TITL C-599890-3321-467 1.0470734271346 125000 -618.083321418174 0 0 102 (C1) n - 1
REM
REM in /home/nfs/bkarasulu/CARBON/AIRSS/Generating-Clusters/TERSOFF/Only-C1/FIRE-HFTN
REM
REM
REM
REM
REM
REM ./C.cell (11c1c37f851c82e70ff6c80c92926a4b)
REM AIRSS Version 0.9.1 bugfix July 2018 build 013d7b7c2542+ Fri, 06 Jul 2018 19:26:36 +0100
REM compiler GCC version 9.2.1 20190827 (Red Hat 9.2.1-1)
REM options -cpp -mtune=generic -march=x86-64 -g -O0 -fpre-include=/usr/include/finclude/math-vector-fortran.h
REM seed 872194020 -948479482 -1149728597 318113874 1030846980 647751933 1326257977 859223816 791473109 1315547841 -225437956 -1599541511 1335652488 780225091 -1974979671 -1978945619 -2141045683 549354086 -860284063 748567448 1778043808 -1562574405 -1279436163 592909107 -686806181 -1868482603 -1715295684 1041557663 1052833036 582094128 448831211 795633673 -693866136
REM
CELL 1.54180   50.00000   50.00000   50.00000   90.00000   90.00000   90.00000
LATT -1
SFAC C  
C      1  0.4168690000000  0.4734260000000  0.5210870000000 1.0
C      1  0.5285890000000  0.4869130000000  0.4105080000000 1.0
C      1  0.4281410000000  0.5469350000000  0.5246280000000 1.0
C      1  0.5101650000000  0.4460880000000  0.4816410000000 1.0
C      1  0.5420790000000  0.5420470000000  0.5947590000000 1.0
C      1  0.5882230000000  0.5420130000000  0.4723370000000 1.0
C      1  0.4911890000000  0.4635280000000  0.4751870000000 1.0
C      1  0.4680230000000  0.4307300000000  0.5624450000000 1.0
C      1  0.5740710000000  0.5942440000000  0.6341890000000 1.0
C      1  0.5273490000000  0.4585970000000  0.5617240000000 1.0
C      1  0.4185810000000  0.5059540000000  0.5730760000000 1.0
C      1  0.5544050000000  0.4525620000000  0.5586960000000 1.0
C      1  0.5595390000000  0.4530660000000  0.4878380000000 1.0
C      1  0.4144100000000  0.5078150000000  0.4717370000000 1.0
C      1  0.5005430000000  0.5431890000000  0.6291520000000 1.0
C      1  0.4794870000000  0.4887800000000  0.4751770000000 1.0
C      1  0.3827730000000  0.5208770000000  0.5395150000000 1.0
C      1  0.5210950000000  0.5324540000000  0.4327120000000 1.0
C      1  0.6291410000000  0.4475520000000  0.5352980000000 1.0
C      1  0.4838350000000  0.5069840000000  0.4966880000000 1.0
C      1  0.5112160000000  0.5578320000000  0.4217730000000 1.0
C      1  0.5903260000000  0.5186310000000  0.5559840000000 1.0
C      1  0.6049090000000  0.4462360000000  0.5448180000000 1.0
C      1  0.6194210000000  0.5081300000000  0.4565370000000 1.0
C      1  0.4732620000000  0.5331360000000  0.4022600000000 1.0
C      1  0.5047060000000  0.5795890000000  0.4391770000000 1.0
C      1  0.4006080000000  0.4379750000000  0.4918530000000 1.0
C      1  0.5019920000000  0.5386760000000  0.5296970000000 1.0
C      1  0.5514560000000  0.4805010000000  0.4252150000000 1.0
C      1  0.4293310000000  0.5685180000000  0.5081370000000 1.0
C      1  0.4797280000000  0.5481390000000  0.4629160000000 1.0
C      1  0.4667300000000  0.4881160000000  0.5600000000000 1.0
C      1  0.4841740000000  0.5762060000000  0.4579950000000 1.0
C      1  0.5403310000000  0.5665370000000  0.5233400000000 1.0
C      1  0.4396150000000  0.5215220000000  0.5187130000000 1.0
C      1  0.5153230000000  0.5614820000000  0.5347890000000 1.0
C      1  0.5280090000000  0.5326780000000  0.4880030000000 1.0
C      1  0.5474200000000  0.5191300000000  0.5794370000000 1.0
C      1  0.5826740000000  0.4969390000000  0.4872930000000 1.0
C      1  0.4398320000000  0.4957560000000  0.5573550000000 1.0
C      1  0.5628380000000  0.5092550000000  0.5584480000000 1.0
C      1  0.4326490000000  0.5325600000000  0.4318580000000 1.0
C      1  0.4844300000000  0.5086520000000  0.4124440000000 1.0
C      1  0.5273940000000  0.5289150000000  0.4600380000000 1.0
C      1  0.5797520000000  0.4472470000000  0.5531030000000 1.0
C      1  0.5668880000000  0.5803080000000  0.6128330000000 1.0
C      1  0.6098560000000  0.5191840000000  0.5747050000000 1.0
C      1  0.5585920000000  0.5651020000000  0.5909710000000 1.0
C      1  0.4590370000000  0.4660120000000  0.4173600000000 1.0
C      1  0.4543210000000  0.5401410000000  0.4764260000000 1.0
C      1  0.5258190000000  0.4960400000000  0.5266960000000 1.0
C      1  0.5918560000000  0.5261920000000  0.5280520000000 1.0
C      1  0.4772220000000  0.4509640000000  0.4025100000000 1.0
C      1  0.4280780000000  0.4003340000000  0.5082160000000 1.0
C      1  0.5280430000000  0.4759220000000  0.3633530000000 1.0
C      1  0.5450260000000  0.5540250000000  0.4973550000000 1.0
C      1  0.4464060000000  0.5379910000000  0.4093100000000 1.0
C      1  0.4319940000000  0.4965190000000  0.5294790000000 1.0
C      1  0.5535740000000  0.5006600000000  0.5318490000000 1.0
C      1  0.4080360000000  0.4125080000000  0.4952080000000 1.0
C      1  0.4608450000000  0.5234230000000  0.5004880000000 1.0
C      1  0.5037480000000  0.4473670000000  0.3940740000000 1.0
C      1  0.4431930000000  0.4185230000000  0.5532180000000 1.0
C      1  0.4170940000000  0.4654170000000  0.4465140000000 1.0
C      1  0.4681220000000  0.4295020000000  0.5166570000000 1.0
C      1  0.5099210000000  0.5165300000000  0.5093010000000 1.0
C      1  0.4338140000000  0.4582100000000  0.4268740000000 1.0
C      1  0.4195390000000  0.4338360000000  0.5564360000000 1.0
C      1  0.5203100000000  0.4700790000000  0.3889820000000 1.0
C      1  0.3832420000000  0.5226820000000  0.5125870000000 1.0
C      1  0.5846080000000  0.5528740000000  0.5204750000000 1.0
C      1  0.5664830000000  0.4760840000000  0.4466190000000 1.0
C      1  0.5713320000000  0.4745170000000  0.4742600000000 1.0
C      1  0.4682060000000  0.4909270000000  0.4272600000000 1.0
C      1  0.4849300000000  0.4725060000000  0.5446090000000 1.0
C      1  0.5810170000000  0.6078910000000  0.6552870000000 1.0
C      1  0.4925440000000  0.5539180000000  0.4003260000000 1.0
C      1  0.5125850000000  0.5090800000000  0.4179190000000 1.0
C      1  0.4438530000000  0.5683230000000  0.4839270000000 1.0
C      1  0.4764560000000  0.4462360000000  0.5383690000000 1.0
C      1  0.5249180000000  0.3975560000000  0.3885950000000 1.0
C      1  0.4094540000000  0.4646670000000  0.4947570000000 1.0
C      1  0.4478190000000  0.4105040000000  0.5250010000000 1.0
C      1  0.5130360000000  0.4766540000000  0.5439670000000 1.0
C      1  0.5119150000000  0.4435580000000  0.5803910000000 1.0
C      1  0.5655800000000  0.5673300000000  0.5375920000000 1.0
C      1  0.5354220000000  0.4416580000000  0.4888130000000 1.0
C      1  0.4618010000000  0.4980270000000  0.4541450000000 1.0
C      1  0.5141920000000  0.4216470000000  0.3911310000000 1.0
C      1  0.5738170000000  0.5539360000000  0.4929850000000 1.0
C      1  0.4612690000000  0.5879230000000  0.4711830000000 1.0
C      1  0.4389650000000  0.5200840000000  0.4584540000000 1.0
C      1  0.5207570000000  0.5425310000000  0.6127180000000 1.0
C      1  0.3951850000000  0.5156360000000  0.5629660000000 1.0
C      1  0.3953750000000  0.5206140000000  0.4885540000000 1.0
C      1  0.4879210000000  0.4311120000000  0.5822340000000 1.0
C      1  0.4128530000000  0.4792550000000  0.4706680000000 1.0
C      1  0.4106430000000  0.4549300000000  0.5421290000000 1.0
C      1  0.5760470000000  0.5052120000000  0.5135260000000 1.0
C      1  0.5667110000000  0.5718960000000  0.5649580000000 1.0
C      1  0.5975300000000  0.5154350000000  0.4710470000000 1.0
C      1  0.5355680000000  0.3738920000000  0.3860990000000 1.0
END
