TITL C-599890-3321-621 4.80651090880187 125000 -263.835528537557 0 0 45 (C1) n - 1
REM
REM in /home/nfs/bkarasulu/CARBON/AIRSS/Generating-Clusters/TERSOFF/Only-C1/FIRE-HFTN
REM
REM
REM
REM
REM
REM ./C.cell (11c1c37f851c82e70ff6c80c92926a4b)
REM AIRSS Version 0.9.1 bugfix July 2018 build 013d7b7c2542+ Fri, 06 Jul 2018 19:26:36 +0100
REM compiler GCC version 9.2.1 20190827 (Red Hat 9.2.1-1)
REM options -cpp -mtune=generic -march=x86-64 -g -O0 -fpre-include=/usr/include/finclude/math-vector-fortran.h
REM seed -935255249 -403081408 -1514115212 390067091 1821573015 -611902164 -1649703358 -123079459 -429082142 -535992508 -31473614 -1923028636 -1694076986 -894427414 441849685 -432844934 -1187340445 -985375485 -755615527 -1856701839 113349478 1176363513 1669303172 -1341005505 -1434740596 1203247622 -2129210002 -1054163523 709495826 1669730733 1836979344 554379336 472924713
REM
CELL 1.54180   50.00000   50.00000   50.00000   90.00000   90.00000   90.00000
LATT -1
SFAC C  
C      1  0.5147950000000  0.5897120000000  0.5398600000000 1.0
C      1  0.5719480000000  0.4714350000000  0.4707380000000 1.0
C      1  0.5017900000000  0.5167210000000  0.5677010000000 1.0
C      1  0.4625180000000  0.5304890000000  0.5438530000000 1.0
C      1  0.4755880000000  0.5023070000000  0.4417770000000 1.0
C      1  0.4380260000000  0.4635930000000  0.5555060000000 1.0
C      1  0.4188890000000  0.4753000000000  0.5696210000000 1.0
C      1  0.5155270000000  0.4638320000000  0.4725050000000 1.0
C      1  0.4830690000000  0.5638560000000  0.5142440000000 1.0
C      1  0.5273360000000  0.5627130000000  0.4780510000000 1.0
C      1  0.4672480000000  0.4443670000000  0.4496540000000 1.0
C      1  0.5248470000000  0.5361840000000  0.4792850000000 1.0
C      1  0.5249440000000  0.6115960000000  0.4808280000000 1.0
C      1  0.4605000000000  0.4514150000000  0.4766140000000 1.0
C      1  0.4527480000000  0.4785830000000  0.4791490000000 1.0
C      1  0.5191310000000  0.5863330000000  0.4908780000000 1.0
C      1  0.4005760000000  0.4876800000000  0.5834410000000 1.0
C      1  0.5131500000000  0.5142750000000  0.4923510000000 1.0
C      1  0.5303440000000  0.6354280000000  0.4717700000000 1.0
C      1  0.5180580000000  0.4985340000000  0.3905830000000 1.0
C      1  0.5118420000000  0.5085250000000  0.5421670000000 1.0
C      1  0.5229310000000  0.5809310000000  0.5637330000000 1.0
C      1  0.5050400000000  0.4442780000000  0.5324830000000 1.0
C      1  0.4913080000000  0.4832370000000  0.4276270000000 1.0
C      1  0.4791030000000  0.5370330000000  0.5215780000000 1.0
C      1  0.5172820000000  0.5344370000000  0.5830370000000 1.0
C      1  0.5041900000000  0.5826170000000  0.5148480000000 1.0
C      1  0.4778720000000  0.4444430000000  0.5239610000000 1.0
C      1  0.5315120000000  0.4433750000000  0.5268500000000 1.0
C      1  0.5012520000000  0.5186200000000  0.5176540000000 1.0
C      1  0.4713640000000  0.4351020000000  0.4975420000000 1.0
C      1  0.5264490000000  0.4391650000000  0.4804820000000 1.0
C      1  0.4813450000000  0.4567110000000  0.4301080000000 1.0
C      1  0.5168540000000  0.4892230000000  0.4163600000000 1.0
C      1  0.5115860000000  0.4153770000000  0.4785820000000 1.0
C      1  0.5450840000000  0.4430810000000  0.5019950000000 1.0
C      1  0.4592550000000  0.4995410000000  0.4632260000000 1.0
C      1  0.4864780000000  0.4127650000000  0.4883700000000 1.0
C      1  0.5680390000000  0.4570770000000  0.4933420000000 1.0
C      1  0.5409660000000  0.4858660000000  0.4308500000000 1.0
C      1  0.4577790000000  0.4535380000000  0.5410110000000 1.0
C      1  0.4734760000000  0.5206440000000  0.5668620000000 1.0
C      1  0.5124820000000  0.4891110000000  0.4803980000000 1.0
C      1  0.5246350000000  0.5600900000000  0.5803860000000 1.0
C      1  0.5608480000000  0.4808590000000  0.4481380000000 1.0
END
