TITL C-599890-3321-603 8.1953464445315e-06 125000 -222.007384526674 0 0 38 (C1) n - 1
REM
REM in /home/nfs/bkarasulu/CARBON/AIRSS/Generating-Clusters/TERSOFF/Only-C1/FIRE-HFTN
REM
REM
REM
REM
REM
REM ./C.cell (11c1c37f851c82e70ff6c80c92926a4b)
REM AIRSS Version 0.9.1 bugfix July 2018 build 013d7b7c2542+ Fri, 06 Jul 2018 19:26:36 +0100
REM compiler GCC version 9.2.1 20190827 (Red Hat 9.2.1-1)
REM options -cpp -mtune=generic -march=x86-64 -g -O0 -fpre-include=/usr/include/finclude/math-vector-fortran.h
REM seed -1899883164 -504336226 -1671382771 44284594 -1743474396 -969237643 -1102364435 -158197703 -1396924502 -738125947 -1531128364 130825477 -1924494952 610623903 1795380518 586698567 314555423 -2044551396 561847754 1865721559 541115906 -1508007808 391493471 73581622 936839215 1013655418 721028859 180062594 -936558971 -1267628636 1835558422 -56596440 -720630605
REM
CELL 1.54180   50.00000   50.00000   50.00000   90.00000   90.00000   90.00000
LATT -1
SFAC C  
C      1  0.5215720000000  0.4771450000000  0.5438740000000 1.0
C      1  0.4976210000000  0.4344240000000  0.5060170000000 1.0
C      1  0.5545910000000  0.5427390000000  0.4956650000000 1.0
C      1  0.5652090000000  0.5243700000000  0.5124490000000 1.0
C      1  0.5129320000000  0.5090060000000  0.4847420000000 1.0
C      1  0.5087130000000  0.5580420000000  0.4804820000000 1.0
C      1  0.4518390000000  0.5259940000000  0.5195300000000 1.0
C      1  0.5634460000000  0.5034220000000  0.5294470000000 1.0
C      1  0.5190060000000  0.5364120000000  0.5288340000000 1.0
C      1  0.5485350000000  0.4850850000000  0.5427350000000 1.0
C      1  0.5096510000000  0.4634730000000  0.4667930000000 1.0
C      1  0.4469980000000  0.4677130000000  0.4879930000000 1.0
C      1  0.5137240000000  0.5140110000000  0.5123630000000 1.0
C      1  0.5029010000000  0.4914750000000  0.4652110000000 1.0
C      1  0.5436680000000  0.5428900000000  0.4491910000000 1.0
C      1  0.4174300000000  0.4933260000000  0.4583680000000 1.0
C      1  0.4836150000000  0.5547680000000  0.4906530000000 1.0
C      1  0.5570050000000  0.4961810000000  0.4317060000000 1.0
C      1  0.4542830000000  0.5119310000000  0.5450890000000 1.0
C      1  0.4993490000000  0.4364100000000  0.5332390000000 1.0
C      1  0.4875460000000  0.5008260000000  0.4445640000000 1.0
C      1  0.4333880000000  0.4916500000000  0.4803920000000 1.0
C      1  0.5509940000000  0.4711500000000  0.4390010000000 1.0
C      1  0.4681930000000  0.5494200000000  0.5144320000000 1.0
C      1  0.4914580000000  0.4459850000000  0.4803630000000 1.0
C      1  0.5333050000000  0.4567450000000  0.4531910000000 1.0
C      1  0.5027860000000  0.4569660000000  0.5532980000000 1.0
C      1  0.5528430000000  0.5224070000000  0.4346450000000 1.0
C      1  0.5360550000000  0.5506710000000  0.4752740000000 1.0
C      1  0.4378110000000  0.5137910000000  0.4979450000000 1.0
C      1  0.4797730000000  0.4700210000000  0.5659990000000 1.0
C      1  0.4638140000000  0.4921790000000  0.5616890000000 1.0
C      1  0.4636860000000  0.4499750000000  0.4733440000000 1.0
C      1  0.5057070000000  0.5550350000000  0.5430930000000 1.0
C      1  0.4564570000000  0.4694470000000  0.5144290000000 1.0
C      1  0.4799420000000  0.5614540000000  0.5374960000000 1.0
C      1  0.5045890000000  0.4919300000000  0.5262790000000 1.0
C      1  0.4795650000000  0.4815290000000  0.5201880000000 1.0
END
