TITL C-599896-8500-512 0.126783847805479 125000 -514.770117821803 0 0 86 (C1) n - 1
REM
REM in /home/nfs/bkarasulu/CARBON/AIRSS/Generating-Clusters/TERSOFF/Only-C1/FIRE-HFTN
REM
REM
REM
REM
REM
REM ./C.cell (11c1c37f851c82e70ff6c80c92926a4b)
REM AIRSS Version 0.9.1 bugfix July 2018 build 013d7b7c2542+ Fri, 06 Jul 2018 19:26:36 +0100
REM compiler GCC version 9.2.1 20190827 (Red Hat 9.2.1-1)
REM options -cpp -mtune=generic -march=x86-64 -g -O0 -fpre-include=/usr/include/finclude/math-vector-fortran.h
REM seed 724807462 -1975854262 -492942620 294464986 -1839307168 -177846575 -1305055057 1601884300 1741652607 -860693150 -12774032 -1889577406 -527866927 -1396391186 988120484 -582868837 -727323931 -864390371 317770488 1628230531 895359393 -1967962872 629696449 1070100151 -1641891709 1235667908 24467897 -936690485 1290846262 1608745055 37386230 -295559504 1222623483
REM
CELL 1.54180   50.00000   50.00000   50.00000   90.00000   90.00000   90.00000
LATT -1
SFAC C  
C      1  0.4821870000000  0.4575790000000  0.5313860000000 1.0
C      1  0.3983820000000  0.5184030000000  0.4817990000000 1.0
C      1  0.4911250000000  0.5460630000000  0.5881780000000 1.0
C      1  0.5577720000000  0.5784000000000  0.4763400000000 1.0
C      1  0.3949950000000  0.4017110000000  0.5944500000000 1.0
C      1  0.4804170000000  0.4836860000000  0.4689680000000 1.0
C      1  0.5363900000000  0.4223570000000  0.5315290000000 1.0
C      1  0.4662280000000  0.4722270000000  0.5495720000000 1.0
C      1  0.4061870000000  0.4057840000000  0.5712600000000 1.0
C      1  0.4361550000000  0.5144930000000  0.5382850000000 1.0
C      1  0.5197290000000  0.5252030000000  0.4835750000000 1.0
C      1  0.4727120000000  0.5027470000000  0.4199660000000 1.0
C      1  0.5662280000000  0.5144390000000  0.4020320000000 1.0
C      1  0.3879860000000  0.5533300000000  0.5157890000000 1.0
C      1  0.4718290000000  0.5725190000000  0.5156730000000 1.0
C      1  0.4603060000000  0.4345660000000  0.4844050000000 1.0
C      1  0.5652140000000  0.4481070000000  0.4704420000000 1.0
C      1  0.5321120000000  0.5456290000000  0.5267460000000 1.0
C      1  0.5625800000000  0.4832820000000  0.6006100000000 1.0
C      1  0.5457660000000  0.4298250000000  0.4716600000000 1.0
C      1  0.3968590000000  0.5201730000000  0.5670080000000 1.0
C      1  0.4826390000000  0.5152620000000  0.5400930000000 1.0
C      1  0.4403210000000  0.5371660000000  0.5804980000000 1.0
C      1  0.5485130000000  0.4657830000000  0.5571870000000 1.0
C      1  0.4233460000000  0.5243230000000  0.5619900000000 1.0
C      1  0.4907130000000  0.4645030000000  0.5930540000000 1.0
C      1  0.4726290000000  0.4191530000000  0.4636780000000 1.0
C      1  0.4995330000000  0.4124190000000  0.4685660000000 1.0
C      1  0.4889360000000  0.5299320000000  0.5189620000000 1.0
C      1  0.5832550000000  0.5234530000000  0.4734940000000 1.0
C      1  0.4177210000000  0.4100900000000  0.5477870000000 1.0
C      1  0.5837600000000  0.5434660000000  0.4535690000000 1.0
C      1  0.4438340000000  0.5138740000000  0.4868730000000 1.0
C      1  0.4955760000000  0.5717480000000  0.4282240000000 1.0
C      1  0.6015570000000  0.5115730000000  0.5428820000000 1.0
C      1  0.5230080000000  0.5705710000000  0.5150940000000 1.0
C      1  0.4987200000000  0.6067100000000  0.5356830000000 1.0
C      1  0.5488970000000  0.4958310000000  0.4149150000000 1.0
C      1  0.4440820000000  0.4232740000000  0.5038910000000 1.0
C      1  0.5217780000000  0.4211430000000  0.4836770000000 1.0
C      1  0.4256320000000  0.4612990000000  0.4385860000000 1.0
C      1  0.5177770000000  0.4765410000000  0.5035220000000 1.0
C      1  0.4784800000000  0.5537820000000  0.4185710000000 1.0
C      1  0.5779650000000  0.4711550000000  0.4746920000000 1.0
C      1  0.4599380000000  0.4990960000000  0.5429350000000 1.0
C      1  0.5474200000000  0.5699790000000  0.4301140000000 1.0
C      1  0.5404700000000  0.5819560000000  0.4962750000000 1.0
C      1  0.4201720000000  0.4834560000000  0.4526300000000 1.0
C      1  0.5790340000000  0.4989120000000  0.5394830000000 1.0
C      1  0.4650500000000  0.4619620000000  0.4817250000000 1.0
C      1  0.4977210000000  0.5829360000000  0.5218080000000 1.0
C      1  0.4695470000000  0.4655860000000  0.5767220000000 1.0
C      1  0.5356880000000  0.4947680000000  0.5177710000000 1.0
C      1  0.4770260000000  0.4849730000000  0.4394050000000 1.0
C      1  0.5925610000000  0.5182550000000  0.4116540000000 1.0
C      1  0.4341520000000  0.5307200000000  0.5120980000000 1.0
C      1  0.5171310000000  0.4674220000000  0.5946290000000 1.0
C      1  0.5531460000000  0.5614760000000  0.4039350000000 1.0
C      1  0.5552070000000  0.5379780000000  0.3910570000000 1.0
C      1  0.5427490000000  0.4722620000000  0.5843440000000 1.0
C      1  0.5051290000000  0.4541500000000  0.5156280000000 1.0
C      1  0.5248060000000  0.5045290000000  0.4643400000000 1.0
C      1  0.5306880000000  0.5435570000000  0.5547640000000 1.0
C      1  0.5184130000000  0.4292380000000  0.5110010000000 1.0
C      1  0.5438960000000  0.4713800000000  0.4037630000000 1.0
C      1  0.4300560000000  0.4154610000000  0.5249580000000 1.0
C      1  0.4711110000000  0.5106140000000  0.4800030000000 1.0
C      1  0.5813440000000  0.4945310000000  0.6147710000000 1.0
C      1  0.4393970000000  0.4391970000000  0.4319990000000 1.0
C      1  0.4209180000000  0.5041180000000  0.4714150000000 1.0
C      1  0.5483090000000  0.4388130000000  0.5491060000000 1.0
C      1  0.4645500000000  0.5440300000000  0.5893250000000 1.0
C      1  0.4585440000000  0.4215700000000  0.4393010000000 1.0
C      1  0.5539910000000  0.4863720000000  0.5380290000000 1.0
C      1  0.5370150000000  0.5032380000000  0.4394450000000 1.0
C      1  0.5832810000000  0.4970890000000  0.4780540000000 1.0
C      1  0.4499120000000  0.5568290000000  0.5138780000000 1.0
C      1  0.4716680000000  0.5285600000000  0.4135300000000 1.0
C      1  0.4916920000000  0.5270220000000  0.4911920000000 1.0
C      1  0.5990430000000  0.5360760000000  0.4309230000000 1.0
C      1  0.5343520000000  0.5227170000000  0.5091580000000 1.0
C      1  0.4045550000000  0.5352560000000  0.5042060000000 1.0
C      1  0.5101210000000  0.4824810000000  0.4762110000000 1.0
C      1  0.5645630000000  0.5648450000000  0.4526450000000 1.0
C      1  0.5207650000000  0.5780450000000  0.4342370000000 1.0
C      1  0.5150340000000  0.5449690000000  0.5763720000000 1.0
END
