TITL C-599897-7526-1108 8433.48259431066 125000 -731.108862431791 0 0 119 (C1) n - 1
REM
REM in /home/nfs/bkarasulu/CARBON/AIRSS/Generating-Clusters/TERSOFF/Only-C1/FIRE-HFTN
REM
REM
REM
REM
REM
REM ./C.cell (11c1c37f851c82e70ff6c80c92926a4b)
REM AIRSS Version 0.9.1 bugfix July 2018 build 013d7b7c2542+ Fri, 06 Jul 2018 19:26:36 +0100
REM compiler GCC version 9.2.1 20190827 (Red Hat 9.2.1-1)
REM options -cpp -mtune=generic -march=x86-64 -g -O0 -fpre-include=/usr/include/finclude/math-vector-fortran.h
REM seed 2053375843 -262210987 1028059567 -1077514793 -387240684 185023483 739694959 416048879 -2037993375 1136414095 412448965 1489406070 -1396071197 1119115565 514198353 1927343547 1463026137 -1643004108 1009550468 -390981582 1846435191 -257982755 1376029695 1998788222 -1534909608 252272609 111708029 933018607 -750759987 -952144883 -4450159 2138431619 691080993
REM
CELL 1.54180   50.00000   50.00000   50.00000   90.00000   90.00000   90.00000
LATT -1
SFAC C  
C      1  0.4880530000000  0.5543880000000  0.5334360000000 1.0
C      1  0.5342800000000  0.4814060000000  0.5365550000000 1.0
C      1  0.4595250000000  0.4823510000000  0.5124260000000 1.0
C      1  0.4379990000000  0.5252060000000  0.4429990000000 1.0
C      1  0.5812150000000  0.4804830000000  0.4363710000000 1.0
C      1  0.5114550000000  0.5609850000000  0.3861560000000 1.0
C      1  0.5004130000000  0.4542530000000  0.5971070000000 1.0
C      1  0.5118360000000  0.3879150000000  0.5168320000000 1.0
C      1  0.4584730000000  0.4777790000000  0.6079080000000 1.0
C      1  0.5406650000000  0.4990610000000  0.4138790000000 1.0
C      1  0.5332870000000  0.4011170000000  0.5024800000000 1.0
C      1  0.4267510000000  0.4688120000000  0.4370650000000 1.0
C      1  0.4855150000000  0.3887900000000  0.5245560000000 1.0
C      1  0.4833080000000  0.5380920000000  0.5819550000000 1.0
C      1  0.4108750000000  0.5150520000000  0.5767510000000 1.0
C      1  0.5017490000000  0.5476120000000  0.4768610000000 1.0
C      1  0.5247830000000  0.5748600000000  0.4070930000000 1.0
C      1  0.5138680000000  0.5655100000000  0.5219280000000 1.0
C      1  0.6125980000000  0.5595950000000  0.4941330000000 1.0
C      1  0.5014940000000  0.6195680000000  0.4271090000000 1.0
C      1  0.4657900000000  0.5116870000000  0.5134630000000 1.0
C      1  0.5833410000000  0.4209590000000  0.5124100000000 1.0
C      1  0.4719900000000  0.6562840000000  0.4504400000000 1.0
C      1  0.4954080000000  0.4230500000000  0.4819690000000 1.0
C      1  0.5042830000000  0.4406070000000  0.5292120000000 1.0
C      1  0.4709950000000  0.4533200000000  0.5982930000000 1.0
C      1  0.3959880000000  0.5024960000000  0.5576810000000 1.0
C      1  0.5645490000000  0.5022050000000  0.4287320000000 1.0
C      1  0.5956670000000  0.4996790000000  0.4789810000000 1.0
C      1  0.5373400000000  0.5516220000000  0.3397400000000 1.0
C      1  0.4595690000000  0.5274540000000  0.4895950000000 1.0
C      1  0.5095100000000  0.5512690000000  0.5836500000000 1.0
C      1  0.4027910000000  0.4442920000000  0.5277840000000 1.0
C      1  0.5522720000000  0.4736930000000  0.5576670000000 1.0
C      1  0.4114920000000  0.5339610000000  0.5274590000000 1.0
C      1  0.3982360000000  0.5090920000000  0.5298510000000 1.0
C      1  0.4307620000000  0.4419980000000  0.5273260000000 1.0
C      1  0.5257050000000  0.5062790000000  0.4718510000000 1.0
C      1  0.5702390000000  0.6091140000000  0.5409810000000 1.0
C      1  0.4869100000000  0.6384820000000  0.4386030000000 1.0
C      1  0.4281590000000  0.5479590000000  0.5464360000000 1.0
C      1  0.5964900000000  0.4444770000000  0.5017980000000 1.0
C      1  0.4558800000000  0.5299230000000  0.5901210000000 1.0
C      1  0.4883850000000  0.5187400000000  0.5613110000000 1.0
C      1  0.5373340000000  0.4370790000000  0.4651870000000 1.0
C      1  0.4970700000000  0.4445890000000  0.4391760000000 1.0
C      1  0.5890120000000  0.5244190000000  0.4666570000000 1.0
C      1  0.4624520000000  0.4645650000000  0.5547170000000 1.0
C      1  0.4971310000000  0.4945460000000  0.5711610000000 1.0
C      1  0.5205980000000  0.4559130000000  0.4511930000000 1.0
C      1  0.4882560000000  0.4794550000000  0.4748320000000 1.0
C      1  0.4138240000000  0.4743650000000  0.4135000000000 1.0
C      1  0.4813400000000  0.5259780000000  0.5344980000000 1.0
C      1  0.4726790000000  0.4194170000000  0.5592850000000 1.0
C      1  0.4769690000000  0.4662960000000  0.4964020000000 1.0
C      1  0.5921740000000  0.4759820000000  0.4622600000000 1.0
C      1  0.4550280000000  0.5047850000000  0.6052780000000 1.0
C      1  0.5136450000000  0.4338180000000  0.5807770000000 1.0
C      1  0.5852310000000  0.4521520000000  0.4759290000000 1.0
C      1  0.5811920000000  0.5686100000000  0.4563960000000 1.0
C      1  0.5197690000000  0.5449330000000  0.5002460000000 1.0
C      1  0.5233630000000  0.4165850000000  0.4801180000000 1.0
C      1  0.5008180000000  0.4267920000000  0.5555490000000 1.0
C      1  0.4422230000000  0.5202730000000  0.4688700000000 1.0
C      1  0.5487910000000  0.4601860000000  0.5032560000000 1.0
C      1  0.5621880000000  0.4863160000000  0.5794520000000 1.0
C      1  0.5144050000000  0.5990830000000  0.4163740000000 1.0
C      1  0.4609480000000  0.4423620000000  0.5731750000000 1.0
C      1  0.5067810000000  0.5917780000000  0.5082870000000 1.0
C      1  0.5334250000000  0.5698110000000  0.5440180000000 1.0
C      1  0.4410570000000  0.5779490000000  0.5083420000000 1.0
C      1  0.4147110000000  0.4770300000000  0.4615350000000 1.0
C      1  0.4458000000000  0.5336470000000  0.4190540000000 1.0
C      1  0.5518740000000  0.5907340000000  0.5429770000000 1.0
C      1  0.5957090000000  0.5515190000000  0.4745390000000 1.0
C      1  0.5870820000000  0.5140340000000  0.5262220000000 1.0
C      1  0.6050410000000  0.4682700000000  0.5153970000000 1.0
C      1  0.4640220000000  0.4047500000000  0.5361090000000 1.0
C      1  0.5612900000000  0.5130800000000  0.5838850000000 1.0
C      1  0.4426760000000  0.4164970000000  0.5205390000000 1.0
C      1  0.4906100000000  0.4822750000000  0.4104800000000 1.0
C      1  0.3862340000000  0.4638460000000  0.5198940000000 1.0
C      1  0.5715880000000  0.5260040000000  0.4425350000000 1.0
C      1  0.4778830000000  0.4616730000000  0.4249580000000 1.0
C      1  0.4742740000000  0.5513650000000  0.4833560000000 1.0
C      1  0.5476520000000  0.5640390000000  0.4189440000000 1.0
C      1  0.4839510000000  0.5968000000000  0.4944050000000 1.0
C      1  0.5658570000000  0.5537800000000  0.4369780000000 1.0
C      1  0.4031660000000  0.4884510000000  0.4830370000000 1.0
C      1  0.4512000000000  0.4542290000000  0.4361240000000 1.0
C      1  0.5087050000000  0.4816240000000  0.5935410000000 1.0
C      1  0.4426440000000  0.5699630000000  0.5358220000000 1.0
C      1  0.5306990000000  0.5175760000000  0.4992560000000 1.0
C      1  0.5331770000000  0.5512180000000  0.5659330000000 1.0
C      1  0.5364370000000  0.4212450000000  0.5892130000000 1.0
C      1  0.5098460000000  0.4676560000000  0.5359730000000 1.0
C      1  0.5537950000000  0.5309970000000  0.5632530000000 1.0
C      1  0.4627940000000  0.5430130000000  0.4009450000000 1.0
C      1  0.3937210000000  0.4892390000000  0.5097830000000 1.0
C      1  0.4361980000000  0.4074650000000  0.4946280000000 1.0
C      1  0.5125420000000  0.5287380000000  0.4582490000000 1.0
C      1  0.4321830000000  0.5341240000000  0.5724890000000 1.0
C      1  0.5614430000000  0.5208960000000  0.5367100000000 1.0
C      1  0.4893300000000  0.4406970000000  0.5039080000000 1.0
C      1  0.4465030000000  0.4657830000000  0.5318620000000 1.0
C      1  0.4544690000000  0.4303560000000  0.4528120000000 1.0
C      1  0.5146590000000  0.4810410000000  0.4649760000000 1.0
C      1  0.4826260000000  0.4266700000000  0.4568910000000 1.0
C      1  0.4691650000000  0.5719580000000  0.5450600000000 1.0
C      1  0.5150000000000  0.4936560000000  0.4076940000000 1.0
C      1  0.5403190000000  0.5062500000000  0.5233570000000 1.0
C      1  0.5574150000000  0.4494030000000  0.4797180000000 1.0
C      1  0.4853060000000  0.5519060000000  0.3901080000000 1.0
C      1  0.5602950000000  0.4061200000000  0.5112510000000 1.0
C      1  0.4885110000000  0.4761370000000  0.5522210000000 1.0
C      1  0.4637100000000  0.5771270000000  0.4907670000000 1.0
C      1  0.5244640000000  0.5564730000000  0.3618720000000 1.0
C      1  0.5985100000000  0.4954520000000  0.5077130000000 1.0
C      1  0.4373170000000  0.4156780000000  0.4691370000000 1.0
END
