TITL C-599890-3321-137 11.0885953810511 125000 -219.275859734739 0 0 37 (C1) n - 1
REM
REM in /home/nfs/bkarasulu/CARBON/AIRSS/Generating-Clusters/TERSOFF/Only-C1/FIRE-HFTN
REM
REM
REM
REM
REM
REM ./C.cell (11c1c37f851c82e70ff6c80c92926a4b)
REM AIRSS Version 0.9.1 bugfix July 2018 build 013d7b7c2542+ Fri, 06 Jul 2018 19:26:36 +0100
REM compiler GCC version 9.2.1 20190827 (Red Hat 9.2.1-1)
REM options -cpp -mtune=generic -march=x86-64 -g -O0 -fpre-include=/usr/include/finclude/math-vector-fortran.h
REM seed -965078934 -1193174612 -759798608 1451597783 1753308673 -1370749636 -1416620758 120971312 1069138194 130937669 1719835163 993294376 -1825123016 425102729 -713101921 -853905762 -313185742 -948013946 29096519 1348247672 -1511480035 -1132904545 -460194299 -796202855 -1704163085 -804292287 414920089 -1865170150 1048287803 1582082561 899826197 -850419724 872053388
REM
CELL 1.54180   50.00000   50.00000   50.00000   90.00000   90.00000   90.00000
LATT -1
SFAC C  
C      1  0.4716940000000  0.4770450000000  0.6372900000000 1.0
C      1  0.5103150000000  0.4793290000000  0.3282500000000 1.0
C      1  0.5376210000000  0.5181290000000  0.4726800000000 1.0
C      1  0.4628780000000  0.4989280000000  0.5381740000000 1.0
C      1  0.5076090000000  0.5432300000000  0.4970860000000 1.0
C      1  0.5648520000000  0.4880260000000  0.4463380000000 1.0
C      1  0.5005480000000  0.5259420000000  0.4451650000000 1.0
C      1  0.5806580000000  0.4840160000000  0.4926930000000 1.0
C      1  0.5413360000000  0.4802530000000  0.5556790000000 1.0
C      1  0.5582450000000  0.4869710000000  0.5363290000000 1.0
C      1  0.4732460000000  0.5270840000000  0.4404460000000 1.0
C      1  0.5811200000000  0.4796990000000  0.4661430000000 1.0
C      1  0.4756070000000  0.4611140000000  0.6162800000000 1.0
C      1  0.4678610000000  0.5027130000000  0.6437850000000 1.0
C      1  0.5201870000000  0.5104040000000  0.4303290000000 1.0
C      1  0.4903820000000  0.4780210000000  0.5730730000000 1.0
C      1  0.4706530000000  0.5220830000000  0.5801090000000 1.0
C      1  0.5177980000000  0.4773710000000  0.5675630000000 1.0
C      1  0.5128250000000  0.4870480000000  0.3534830000000 1.0
C      1  0.4286240000000  0.5165230000000  0.4675020000000 1.0
C      1  0.4021120000000  0.5176110000000  0.4609790000000 1.0
C      1  0.5273870000000  0.5341420000000  0.5142590000000 1.0
C      1  0.5153340000000  0.4947660000000  0.3787090000000 1.0
C      1  0.5632170000000  0.4968900000000  0.5107110000000 1.0
C      1  0.4368160000000  0.5083900000000  0.4930440000000 1.0
C      1  0.4786780000000  0.4572050000000  0.5886660000000 1.0
C      1  0.4705130000000  0.4339590000000  0.5767960000000 1.0
C      1  0.5117020000000  0.5332850000000  0.4705140000000 1.0
C      1  0.4493970000000  0.5022130000000  0.5155670000000 1.0
C      1  0.4483130000000  0.5235070000000  0.4488480000000 1.0
C      1  0.5425950000000  0.5048220000000  0.4476800000000 1.0
C      1  0.4660800000000  0.5257330000000  0.6301800000000 1.0
C      1  0.5178190000000  0.5024710000000  0.4039270000000 1.0
C      1  0.4673460000000  0.5326440000000  0.6043630000000 1.0
C      1  0.4746130000000  0.4998160000000  0.5635150000000 1.0
C      1  0.5461720000000  0.5168790000000  0.5004130000000 1.0
C      1  0.5078460000000  0.4717360000000  0.3034320000000 1.0
END
