TITL C-599891-72-1481 0.216564665868792 125000 -317.769486124537 0 0 53 (C1) n - 1
REM
REM in /home/nfs/bkarasulu/CARBON/AIRSS/Generating-Clusters/TERSOFF/Only-C1/FIRE-HFTN
REM
REM
REM
REM
REM
REM ./C.cell (11c1c37f851c82e70ff6c80c92926a4b)
REM AIRSS Version 0.9.1 bugfix July 2018 build 013d7b7c2542+ Fri, 06 Jul 2018 19:26:36 +0100
REM compiler GCC version 9.2.1 20190827 (Red Hat 9.2.1-1)
REM options -cpp -mtune=generic -march=x86-64 -g -O0 -fpre-include=/usr/include/finclude/math-vector-fortran.h
REM seed -1275681960 -1270917733 630920376 -162858102 1857417713 -295389216 666256215 1061584438 1230677967 749052569 -809200505 -1065905180 -516334592 1131552084 -179048625 -2037418939 1211915980 1837374902 -704408273 983235034 1022349266 377358407 1716090146 -562266950 -1563959402 1211965065 -43144875 -66245096 -470226358 869470767 1190623373 -113418790 194125227
REM
CELL 1.54180   50.00000   50.00000   50.00000   90.00000   90.00000   90.00000
LATT -1
SFAC C  
C      1  0.4387560000000  0.4943010000000  0.5038250000000 1.0
C      1  0.5074160000000  0.4712890000000  0.5784410000000 1.0
C      1  0.4577480000000  0.3862490000000  0.5575690000000 1.0
C      1  0.4079170000000  0.4502840000000  0.5063680000000 1.0
C      1  0.5257420000000  0.5620700000000  0.5086980000000 1.0
C      1  0.4770420000000  0.4213140000000  0.5305600000000 1.0
C      1  0.4937300000000  0.5557310000000  0.5719040000000 1.0
C      1  0.5625240000000  0.5140400000000  0.4596250000000 1.0
C      1  0.5288470000000  0.5020850000000  0.4869010000000 1.0
C      1  0.5225870000000  0.4406070000000  0.4435630000000 1.0
C      1  0.5149290000000  0.5624230000000  0.3948760000000 1.0
C      1  0.5023280000000  0.5325490000000  0.4420010000000 1.0
C      1  0.4445040000000  0.3639570000000  0.5652180000000 1.0
C      1  0.5015980000000  0.5736060000000  0.4995660000000 1.0
C      1  0.4748410000000  0.5741970000000  0.5002680000000 1.0
C      1  0.5316290000000  0.5429900000000  0.4039600000000 1.0
C      1  0.5159750000000  0.5449640000000  0.5584480000000 1.0
C      1  0.4325540000000  0.5187110000000  0.5170350000000 1.0
C      1  0.5443240000000  0.5253340000000  0.4790310000000 1.0
C      1  0.4217910000000  0.4722950000000  0.5048790000000 1.0
C      1  0.5149500000000  0.4967240000000  0.5755860000000 1.0
C      1  0.5277120000000  0.5271650000000  0.4274390000000 1.0
C      1  0.5484490000000  0.5086440000000  0.4351740000000 1.0
C      1  0.5165210000000  0.5165180000000  0.5560250000000 1.0
C      1  0.5128460000000  0.5080890000000  0.5293370000000 1.0
C      1  0.4974120000000  0.4482680000000  0.5696930000000 1.0
C      1  0.5814930000000  0.4973590000000  0.4731130000000 1.0
C      1  0.5594390000000  0.4853310000000  0.5172730000000 1.0
C      1  0.4467060000000  0.5483400000000  0.5537190000000 1.0
C      1  0.4933860000000  0.5185410000000  0.4647620000000 1.0
C      1  0.5790320000000  0.4864850000000  0.4981370000000 1.0
C      1  0.4670200000000  0.5547410000000  0.5699460000000 1.0
C      1  0.4634420000000  0.4935730000000  0.4900350000000 1.0
C      1  0.4863440000000  0.5534960000000  0.4310010000000 1.0
C      1  0.4835980000000  0.4350600000000  0.5074510000000 1.0
C      1  0.5450020000000  0.5515650000000  0.4901170000000 1.0
C      1  0.4615820000000  0.3967960000000  0.5308970000000 1.0
C      1  0.5655150000000  0.5682800000000  0.4825510000000 1.0
C      1  0.5474310000000  0.4821740000000  0.4257770000000 1.0
C      1  0.5328990000000  0.4950080000000  0.5139510000000 1.0
C      1  0.4834940000000  0.4270800000000  0.5585420000000 1.0
C      1  0.5282090000000  0.5589210000000  0.5368760000000 1.0
C      1  0.5050520000000  0.4362270000000  0.4632340000000 1.0
C      1  0.4850320000000  0.4758380000000  0.4808250000000 1.0
C      1  0.4898140000000  0.4482160000000  0.4836410000000 1.0
C      1  0.4716640000000  0.4055930000000  0.5739860000000 1.0
C      1  0.4774860000000  0.5201650000000  0.4892760000000 1.0
C      1  0.5378380000000  0.4575730000000  0.4297170000000 1.0
C      1  0.4920540000000  0.5677870000000  0.4085940000000 1.0
C      1  0.5070330000000  0.4931020000000  0.4710460000000 1.0
C      1  0.4519190000000  0.5631700000000  0.5087390000000 1.0
C      1  0.4919050000000  0.5211790000000  0.5143370000000 1.0
C      1  0.4409410000000  0.5439980000000  0.5264650000000 1.0
END
