TITL C-599892-9790-1120 16.100281766882 125000 -381.122881551531 0 0 64 (C1) n - 1
REM
REM in /home/nfs/bkarasulu/CARBON/AIRSS/Generating-Clusters/TERSOFF/Only-C1/FIRE-HFTN
REM
REM
REM
REM
REM
REM ./C.cell (11c1c37f851c82e70ff6c80c92926a4b)
REM AIRSS Version 0.9.1 bugfix July 2018 build 013d7b7c2542+ Fri, 06 Jul 2018 19:26:36 +0100
REM compiler GCC version 9.2.1 20190827 (Red Hat 9.2.1-1)
REM options -cpp -mtune=generic -march=x86-64 -g -O0 -fpre-include=/usr/include/finclude/math-vector-fortran.h
REM seed -213020098 -386395909 882022676 -1259218279 780111026 1827916724 1844485913 -1086242415 -8417288 1064404588 1641302884 -222436121 1895139992 437952405 -1503809135 -1594729669 1004279001 -1807182348 487752185 -1951311861 1725737597 -1728485975 -763976855 1555501723 1043522108 -991362160 274391529 1318538823 1810887717 -329335444 -1668657267 574384800 -1044154752
REM
CELL 1.54180   50.00000   50.00000   50.00000   90.00000   90.00000   90.00000
LATT -1
SFAC C  
C      1  0.5334710000000  0.4782660000000  0.4020980000000 1.0
C      1  0.5256470000000  0.4329130000000  0.3855480000000 1.0
C      1  0.4436550000000  0.4230420000000  0.4788140000000 1.0
C      1  0.4669430000000  0.5599590000000  0.5583790000000 1.0
C      1  0.5576800000000  0.4889210000000  0.4054620000000 1.0
C      1  0.4617680000000  0.6699750000000  0.6208830000000 1.0
C      1  0.4947930000000  0.6233140000000  0.5747100000000 1.0
C      1  0.4619010000000  0.5798220000000  0.6026440000000 1.0
C      1  0.4520820000000  0.4450070000000  0.4639940000000 1.0
C      1  0.5782040000000  0.4363500000000  0.3868190000000 1.0
C      1  0.4879140000000  0.4811400000000  0.5559570000000 1.0
C      1  0.4775490000000  0.6652960000000  0.5999250000000 1.0
C      1  0.5575580000000  0.5516990000000  0.5447220000000 1.0
C      1  0.4410620000000  0.5766320000000  0.5140550000000 1.0
C      1  0.4755950000000  0.4997010000000  0.4907190000000 1.0
C      1  0.6033140000000  0.5274040000000  0.4923210000000 1.0
C      1  0.4841480000000  0.4723880000000  0.4900300000000 1.0
C      1  0.4951670000000  0.4553000000000  0.4447820000000 1.0
C      1  0.6115520000000  0.5108450000000  0.4434580000000 1.0
C      1  0.4204120000000  0.4796160000000  0.4535390000000 1.0
C      1  0.4801510000000  0.4597890000000  0.5722900000000 1.0
C      1  0.5919020000000  0.4575270000000  0.3958420000000 1.0
C      1  0.4531550000000  0.5690950000000  0.5358750000000 1.0
C      1  0.4979010000000  0.4605570000000  0.5119670000000 1.0
C      1  0.4967210000000  0.3939160000000  0.3863400000000 1.0
C      1  0.5115320000000  0.3868030000000  0.5002680000000 1.0
C      1  0.4888930000000  0.6476280000000  0.5835950000000 1.0
C      1  0.4724340000000  0.5327420000000  0.5613820000000 1.0
C      1  0.5849990000000  0.4823600000000  0.4071550000000 1.0
C      1  0.4380260000000  0.6337330000000  0.6464530000000 1.0
C      1  0.4362530000000  0.4029890000000  0.4937190000000 1.0
C      1  0.4867810000000  0.3746030000000  0.4007410000000 1.0
C      1  0.5036770000000  0.4331310000000  0.5115410000000 1.0
C      1  0.5512730000000  0.5052220000000  0.5336270000000 1.0
C      1  0.5879200000000  0.5298520000000  0.5137690000000 1.0
C      1  0.4431800000000  0.4545500000000  0.4175170000000 1.0
C      1  0.4754760000000  0.5784280000000  0.5782260000000 1.0
C      1  0.5068620000000  0.4160480000000  0.3725890000000 1.0
C      1  0.4352640000000  0.4575870000000  0.4443720000000 1.0
C      1  0.4394940000000  0.6078860000000  0.6401300000000 1.0
C      1  0.5222730000000  0.5844310000000  0.5658810000000 1.0
C      1  0.4784600000000  0.5069680000000  0.5606710000000 1.0
C      1  0.5029090000000  0.4057950000000  0.5178520000000 1.0
C      1  0.6026540000000  0.4977000000000  0.4222020000000 1.0
C      1  0.5659820000000  0.5288580000000  0.5310160000000 1.0
C      1  0.5531740000000  0.4277380000000  0.3833680000000 1.0
C      1  0.4935110000000  0.5200150000000  0.4945840000000 1.0
C      1  0.4464370000000  0.6579830000000  0.6391420000000 1.0
C      1  0.4782050000000  0.4335790000000  0.5764960000000 1.0
C      1  0.4976210000000  0.5955410000000  0.5729140000000 1.0
C      1  0.4988060000000  0.4214880000000  0.3470180000000 1.0
C      1  0.4936960000000  0.4545240000000  0.4165850000000 1.0
C      1  0.5423740000000  0.5700270000000  0.5563730000000 1.0
C      1  0.5169840000000  0.4555650000000  0.4006950000000 1.0
C      1  0.4830400000000  0.4097630000000  0.5655160000000 1.0
C      1  0.5313140000000  0.4878410000000  0.5347680000000 1.0
C      1  0.4270550000000  0.4989480000000  0.4709530000000 1.0
C      1  0.4781140000000  0.4565630000000  0.4671350000000 1.0
C      1  0.5058480000000  0.4763190000000  0.5343140000000 1.0
C      1  0.6116530000000  0.5210360000000  0.4679550000000 1.0
C      1  0.4485990000000  0.5054840000000  0.4853740000000 1.0
C      1  0.4926600000000  0.3990000000000  0.5430850000000 1.0
C      1  0.4675260000000  0.4537390000000  0.4060390000000 1.0
C      1  0.4487990000000  0.5890560000000  0.6238090000000 1.0
END
