TITL C-599892-9790-748 0.762514609661247 125000 -265.698305601366 0 0 46 (C1) n - 1
REM
REM in /home/nfs/bkarasulu/CARBON/AIRSS/Generating-Clusters/TERSOFF/Only-C1/FIRE-HFTN
REM
REM
REM
REM
REM
REM ./C.cell (11c1c37f851c82e70ff6c80c92926a4b)
REM AIRSS Version 0.9.1 bugfix July 2018 build 013d7b7c2542+ Fri, 06 Jul 2018 19:26:36 +0100
REM compiler GCC version 9.2.1 20190827 (Red Hat 9.2.1-1)
REM options -cpp -mtune=generic -march=x86-64 -g -O0 -fpre-include=/usr/include/finclude/math-vector-fortran.h
REM seed 1372361758 1311386850 -1826421342 -621868785 926856478 -1904202061 1515971590 1661460261 -1409097867 -1748351084 -131666151 -1646070587 1851251328 520770004 -996654075 530509870 -875750607 -1494735964 1237126136 -1145453984 263409193 723726477 1214093986 863550288 -2092736742 -964653771 696284455 1099400195 1056357120 -7282513 729948346 312530422 1651961849
REM
CELL 1.54180   50.00000   50.00000   50.00000   90.00000   90.00000   90.00000
LATT -1
SFAC C  
C      1  0.5277300000000  0.4518080000000  0.4718710000000 1.0
C      1  0.4836820000000  0.5611090000000  0.4534550000000 1.0
C      1  0.5099500000000  0.4980560000000  0.4248470000000 1.0
C      1  0.4578520000000  0.5181220000000  0.5263390000000 1.0
C      1  0.5671500000000  0.5082920000000  0.4671620000000 1.0
C      1  0.5077390000000  0.5473280000000  0.4592280000000 1.0
C      1  0.5081120000000  0.4434450000000  0.4909550000000 1.0
C      1  0.4813100000000  0.5071440000000  0.5136660000000 1.0
C      1  0.4370580000000  0.4701200000000  0.5310820000000 1.0
C      1  0.5601920000000  0.5584170000000  0.5189710000000 1.0
C      1  0.4882310000000  0.4884150000000  0.4940190000000 1.0
C      1  0.4993470000000  0.4449820000000  0.5516230000000 1.0
C      1  0.4489380000000  0.5549770000000  0.4919360000000 1.0
C      1  0.5097720000000  0.5031690000000  0.4812860000000 1.0
C      1  0.5337920000000  0.5375870000000  0.4517090000000 1.0
C      1  0.4918970000000  0.4623660000000  0.5054390000000 1.0
C      1  0.4606950000000  0.5616570000000  0.4682990000000 1.0
C      1  0.5175840000000  0.4701930000000  0.4280030000000 1.0
C      1  0.5367670000000  0.4667040000000  0.4495910000000 1.0
C      1  0.5340920000000  0.4291320000000  0.5791860000000 1.0
C      1  0.5329680000000  0.5127710000000  0.4357610000000 1.0
C      1  0.5042310000000  0.4165800000000  0.4949610000000 1.0
C      1  0.5689730000000  0.5790040000000  0.5323160000000 1.0
C      1  0.4279140000000  0.4725660000000  0.5058650000000 1.0
C      1  0.5041980000000  0.5330170000000  0.4838520000000 1.0
C      1  0.5514430000000  0.4922970000000  0.4490410000000 1.0
C      1  0.4882810000000  0.5488570000000  0.5547380000000 1.0
C      1  0.4817280000000  0.5569310000000  0.5277100000000 1.0
C      1  0.5136180000000  0.4102530000000  0.5800470000000 1.0
C      1  0.4842310000000  0.4607330000000  0.5341070000000 1.0
C      1  0.4556940000000  0.5459790000000  0.5181950000000 1.0
C      1  0.4614660000000  0.4762600000000  0.5449140000000 1.0
C      1  0.4635120000000  0.5054060000000  0.5532190000000 1.0
C      1  0.4594750000000  0.4990470000000  0.4399150000000 1.0
C      1  0.5325730000000  0.4954350000000  0.4975960000000 1.0
C      1  0.4925950000000  0.4190970000000  0.5638400000000 1.0
C      1  0.4308590000000  0.4802790000000  0.4803830000000 1.0
C      1  0.5262250000000  0.4501090000000  0.5624240000000 1.0
C      1  0.5333940000000  0.5153040000000  0.5189210000000 1.0
C      1  0.4906280000000  0.5197560000000  0.5582210000000 1.0
C      1  0.4420970000000  0.4900560000000  0.4581570000000 1.0
C      1  0.5002690000000  0.5510880000000  0.5063350000000 1.0
C      1  0.5492970000000  0.5367870000000  0.5050930000000 1.0
C      1  0.5064290000000  0.5124580000000  0.5329840000000 1.0
C      1  0.5533980000000  0.5331550000000  0.4754850000000 1.0
C      1  0.4826150000000  0.5037520000000  0.4272500000000 1.0
END
