TITL C-599894-471-1026 -1.22331496692551e-05 125000 -359.334458037886 0 0 60 (C1) n - 1
REM
REM in /home/nfs/bkarasulu/CARBON/AIRSS/Generating-Clusters/TERSOFF/Only-C1/FIRE-HFTN
REM
REM
REM
REM
REM
REM ./C.cell (11c1c37f851c82e70ff6c80c92926a4b)
REM AIRSS Version 0.9.1 bugfix July 2018 build 013d7b7c2542+ Fri, 06 Jul 2018 19:26:36 +0100
REM compiler GCC version 9.2.1 20190827 (Red Hat 9.2.1-1)
REM options -cpp -mtune=generic -march=x86-64 -g -O0 -fpre-include=/usr/include/finclude/math-vector-fortran.h
REM seed 1832897711 -1493109278 -1959084090 774941842 -476066353 -1117894563 -301954464 1558388487 1871854256 -1444997878 -127565719 -1213022706 1953445798 687567242 997636867 1285292418 208544164 -1793556837 1411509723 -528071967 -940618789 311487054 1643928508 -1574836953 -1598396777 -345829201 408552017 94871712 504598332 -1141033550 624928836 -33000440 -608815561
REM
CELL 1.54180   50.00000   50.00000   50.00000   90.00000   90.00000   90.00000
LATT -1
SFAC C  
C      1  0.4318690000000  0.5006620000000  0.4406720000000 1.0
C      1  0.4705950000000  0.4812680000000  0.4834380000000 1.0
C      1  0.5077390000000  0.5102540000000  0.4981610000000 1.0
C      1  0.4353590000000  0.5530290000000  0.5397030000000 1.0
C      1  0.4262170000000  0.4832500000000  0.5068180000000 1.0
C      1  0.4879610000000  0.5275460000000  0.5829350000000 1.0
C      1  0.5261240000000  0.4211170000000  0.5229180000000 1.0
C      1  0.5681530000000  0.5101570000000  0.4662730000000 1.0
C      1  0.5751230000000  0.5439270000000  0.5395170000000 1.0
C      1  0.5526990000000  0.5365600000000  0.5546500000000 1.0
C      1  0.4772440000000  0.5471960000000  0.5649270000000 1.0
C      1  0.4948830000000  0.5017620000000  0.5727540000000 1.0
C      1  0.4986870000000  0.5747920000000  0.5289750000000 1.0
C      1  0.5430600000000  0.4734790000000  0.4459100000000 1.0
C      1  0.5416700000000  0.5556550000000  0.5722440000000 1.0
C      1  0.5483040000000  0.4379720000000  0.5293540000000 1.0
C      1  0.4767620000000  0.4297640000000  0.5147050000000 1.0
C      1  0.4757310000000  0.4638660000000  0.4585390000000 1.0
C      1  0.4408550000000  0.5210130000000  0.4612450000000 1.0
C      1  0.5375090000000  0.5698390000000  0.4943980000000 1.0
C      1  0.5264850000000  0.4147370000000  0.4951370000000 1.0
C      1  0.4716990000000  0.4361760000000  0.4641020000000 1.0
C      1  0.4459730000000  0.4876500000000  0.4215760000000 1.0
C      1  0.5626730000000  0.4551880000000  0.5140570000000 1.0
C      1  0.4730960000000  0.4893740000000  0.5585290000000 1.0
C      1  0.5353730000000  0.5158230000000  0.5451120000000 1.0
C      1  0.4795710000000  0.5387920000000  0.4343400000000 1.0
C      1  0.5601140000000  0.4831680000000  0.4673080000000 1.0
C      1  0.4998870000000  0.4255820000000  0.5331390000000 1.0
C      1  0.4908590000000  0.5251080000000  0.4794760000000 1.0
C      1  0.5227200000000  0.4360420000000  0.4788040000000 1.0
C      1  0.4655230000000  0.5105380000000  0.4769190000000 1.0
C      1  0.5152130000000  0.5759820000000  0.5079060000000 1.0
C      1  0.4724470000000  0.4225740000000  0.4876590000000 1.0
C      1  0.5662970000000  0.5359760000000  0.4726300000000 1.0
C      1  0.4515880000000  0.4712800000000  0.5044620000000 1.0
C      1  0.5617280000000  0.5555550000000  0.4921520000000 1.0
C      1  0.5203200000000  0.5158530000000  0.4432860000000 1.0
C      1  0.5254080000000  0.5165860000000  0.5186880000000 1.0
C      1  0.4738800000000  0.4919420000000  0.4183020000000 1.0
C      1  0.5159010000000  0.4609500000000  0.4867750000000 1.0
C      1  0.5662660000000  0.4683600000000  0.4908150000000 1.0
C      1  0.5189110000000  0.5699850000000  0.5719490000000 1.0
C      1  0.4544850000000  0.5371290000000  0.5507510000000 1.0
C      1  0.5213710000000  0.4994610000000  0.5634340000000 1.0
C      1  0.4908400000000  0.4773360000000  0.4370940000000 1.0
C      1  0.5781580000000  0.5543400000000  0.5150310000000 1.0
C      1  0.4537480000000  0.5085910000000  0.5499640000000 1.0
C      1  0.4536210000000  0.5438540000000  0.4457330000000 1.0
C      1  0.4800430000000  0.5195150000000  0.4129430000000 1.0
C      1  0.4941160000000  0.4431000000000  0.5555070000000 1.0
C      1  0.4956790000000  0.5669820000000  0.5559140000000 1.0
C      1  0.4627980000000  0.4539780000000  0.5238270000000 1.0
C      1  0.4740220000000  0.4629580000000  0.5492090000000 1.0
C      1  0.5512080000000  0.4528190000000  0.4298750000000 1.0
C      1  0.5004820000000  0.5332340000000  0.4536510000000 1.0
C      1  0.4132650000000  0.5057200000000  0.4996920000000 1.0
C      1  0.5184390000000  0.4873790000000  0.4406280000000 1.0
C      1  0.4998880000000  0.4826300000000  0.4942580000000 1.0
C      1  0.4193580000000  0.5246440000000  0.4812330000000 1.0
END
