TITL C-599894-471-601 43.7658453209979 125000 -969.583664624979 0 0 160 (C1) n - 1
REM
REM in /home/nfs/bkarasulu/CARBON/AIRSS/Generating-Clusters/TERSOFF/Only-C1/FIRE-HFTN
REM
REM
REM
REM
REM
REM ./C.cell (11c1c37f851c82e70ff6c80c92926a4b)
REM AIRSS Version 0.9.1 bugfix July 2018 build 013d7b7c2542+ Fri, 06 Jul 2018 19:26:36 +0100
REM compiler GCC version 9.2.1 20190827 (Red Hat 9.2.1-1)
REM options -cpp -mtune=generic -march=x86-64 -g -O0 -fpre-include=/usr/include/finclude/math-vector-fortran.h
REM seed 1806446946 -1435315224 -1004840897 623112070 -649440609 1037154019 -1314170745 -541989166 -1831424164 -1928525296 -1312984576 -1007112682 465619953 1887073299 1250810705 122159439 2094704258 263627201 -1022665838 -535165217 -727885084 -1450351300 1972964614 -754666581 -1967776630 -362541480 -524674494 -1902875778 -577416553 1269013872 -1001744665 -1032247332 361181582
REM
CELL 1.54180   50.00000   50.00000   50.00000   90.00000   90.00000   90.00000
LATT -1
SFAC C  
C      1  0.5250240000000  0.6062890000000  0.5241620000000 1.0
C      1  0.5905860000000  0.5406250000000  0.4621360000000 1.0
C      1  0.5114640000000  0.5697550000000  0.4712870000000 1.0
C      1  0.4308080000000  0.5346090000000  0.4168210000000 1.0
C      1  0.5539380000000  0.4842680000000  0.5985480000000 1.0
C      1  0.5117090000000  0.5045230000000  0.4287930000000 1.0
C      1  0.4851990000000  0.5306530000000  0.5447610000000 1.0
C      1  0.5679320000000  0.5568390000000  0.5823860000000 1.0
C      1  0.4547090000000  0.4694790000000  0.4920470000000 1.0
C      1  0.4863620000000  0.3813430000000  0.4072580000000 1.0
C      1  0.5674430000000  0.4567140000000  0.5273790000000 1.0
C      1  0.4422480000000  0.6042410000000  0.4696560000000 1.0
C      1  0.4809240000000  0.6238780000000  0.5023630000000 1.0
C      1  0.4491980000000  0.5537160000000  0.4067080000000 1.0
C      1  0.5583530000000  0.4289830000000  0.5284330000000 1.0
C      1  0.5794480000000  0.5175430000000  0.4185090000000 1.0
C      1  0.4223920000000  0.4070760000000  0.4986250000000 1.0
C      1  0.4780850000000  0.5725320000000  0.5959840000000 1.0
C      1  0.5733790000000  0.5142180000000  0.4998480000000 1.0
C      1  0.5866580000000  0.4608910000000  0.5473890000000 1.0
C      1  0.5370940000000  0.5516990000000  0.5061500000000 1.0
C      1  0.3970250000000  0.6148950000000  0.4851310000000 1.0
C      1  0.6024310000000  0.4461290000000  0.4805820000000 1.0
C      1  0.5025580000000  0.6220810000000  0.5179050000000 1.0
C      1  0.4279950000000  0.4029260000000  0.5648490000000 1.0
C      1  0.6018960000000  0.5527710000000  0.5111470000000 1.0
C      1  0.5557260000000  0.4430450000000  0.4795640000000 1.0
C      1  0.5217480000000  0.5646890000000  0.4037030000000 1.0
C      1  0.4981510000000  0.5552550000000  0.4170430000000 1.0
C      1  0.4984790000000  0.4882110000000  0.4851470000000 1.0
C      1  0.4866050000000  0.4907620000000  0.3881860000000 1.0
C      1  0.5151560000000  0.5374110000000  0.5508230000000 1.0
C      1  0.4440050000000  0.6003670000000  0.4413430000000 1.0
C      1  0.4216040000000  0.6047190000000  0.4260080000000 1.0
C      1  0.4164070000000  0.5717000000000  0.4958900000000 1.0
C      1  0.5832140000000  0.5063120000000  0.5459460000000 1.0
C      1  0.4615450000000  0.5008220000000  0.4562340000000 1.0
C      1  0.5027380000000  0.5343680000000  0.4379270000000 1.0
C      1  0.4666780000000  0.5585090000000  0.6163100000000 1.0
C      1  0.4252170000000  0.4513170000000  0.5795070000000 1.0
C      1  0.4466610000000  0.4838840000000  0.5376260000000 1.0
C      1  0.4282860000000  0.5463460000000  0.4987880000000 1.0
C      1  0.5296880000000  0.5490280000000  0.3814530000000 1.0
C      1  0.6050170000000  0.4930510000000  0.4540840000000 1.0
C      1  0.5361720000000  0.5147030000000  0.5418780000000 1.0
C      1  0.5408590000000  0.5982280000000  0.5016010000000 1.0
C      1  0.5220150000000  0.3992540000000  0.4791150000000 1.0
C      1  0.4490480000000  0.4149610000000  0.4881670000000 1.0
C      1  0.5693800000000  0.4609640000000  0.5941580000000 1.0
C      1  0.4176470000000  0.4864040000000  0.4263470000000 1.0
C      1  0.4542170000000  0.5277400000000  0.4572670000000 1.0
C      1  0.4797680000000  0.4206060000000  0.5390860000000 1.0
C      1  0.4940040000000  0.4661430000000  0.4037190000000 1.0
C      1  0.4738350000000  0.5364260000000  0.6301980000000 1.0
C      1  0.5860230000000  0.4553810000000  0.5737500000000 1.0
C      1  0.5383050000000  0.4882820000000  0.4332480000000 1.0
C      1  0.4921560000000  0.5165760000000  0.6294840000000 1.0
C      1  0.5544170000000  0.4815290000000  0.4565770000000 1.0
C      1  0.4309500000000  0.5073590000000  0.4067170000000 1.0
C      1  0.5244920000000  0.4840370000000  0.6060570000000 1.0
C      1  0.4627510000000  0.6165870000000  0.4843300000000 1.0
C      1  0.4684200000000  0.5935030000000  0.4280190000000 1.0
C      1  0.5208160000000  0.5593440000000  0.6090690000000 1.0
C      1  0.4939980000000  0.4618420000000  0.5515450000000 1.0
C      1  0.4134340000000  0.4495340000000  0.4853190000000 1.0
C      1  0.4182780000000  0.5968520000000  0.4835850000000 1.0
C      1  0.5428580000000  0.5760360000000  0.4184540000000 1.0
C      1  0.5125210000000  0.4394320000000  0.5090070000000 1.0
C      1  0.5050480000000  0.5693160000000  0.5879050000000 1.0
C      1  0.4494540000000  0.4592110000000  0.5946240000000 1.0
C      1  0.4383080000000  0.4834640000000  0.5108910000000 1.0
C      1  0.5896630000000  0.5577700000000  0.5626660000000 1.0
C      1  0.4848630000000  0.4068080000000  0.4171210000000 1.0
C      1  0.4155610000000  0.4954780000000  0.4984770000000 1.0
C      1  0.5577220000000  0.4517390000000  0.4530430000000 1.0
C      1  0.4574840000000  0.5472450000000  0.5000920000000 1.0
C      1  0.4195850000000  0.4295410000000  0.5609820000000 1.0
C      1  0.4141110000000  0.5228680000000  0.4895090000000 1.0
C      1  0.5691390000000  0.5085440000000  0.5917260000000 1.0
C      1  0.4578800000000  0.3718930000000  0.5073480000000 1.0
C      1  0.5234760000000  0.5881670000000  0.5462110000000 1.0
C      1  0.5929530000000  0.5175910000000  0.4439420000000 1.0
C      1  0.5675220000000  0.4115560000000  0.5070940000000 1.0
C      1  0.5919210000000  0.5346740000000  0.4902810000000 1.0
C      1  0.5086660000000  0.4212990000000  0.4232020000000 1.0
C      1  0.4055520000000  0.4764210000000  0.4774780000000 1.0
C      1  0.6085220000000  0.4693580000000  0.4672710000000 1.0
C      1  0.5650590000000  0.5720270000000  0.4327250000000 1.0
C      1  0.4710980000000  0.5486770000000  0.5248800000000 1.0
C      1  0.5063560000000  0.6318740000000  0.4270030000000 1.0
C      1  0.5347660000000  0.5216830000000  0.3869950000000 1.0
C      1  0.5811120000000  0.5672770000000  0.4553770000000 1.0
C      1  0.4989090000000  0.4484480000000  0.4600030000000 1.0
C      1  0.4431630000000  0.4393230000000  0.4256960000000 1.0
C      1  0.5797020000000  0.4307890000000  0.4888400000000 1.0
C      1  0.5220260000000  0.4390370000000  0.5855490000000 1.0
C      1  0.5634140000000  0.5208610000000  0.5292140000000 1.0
C      1  0.4693730000000  0.3942400000000  0.4932830000000 1.0
C      1  0.5605340000000  0.4916120000000  0.4861790000000 1.0
C      1  0.5160510000000  0.5652800000000  0.5614250000000 1.0
C      1  0.4513900000000  0.4871590000000  0.6004260000000 1.0
C      1  0.5069990000000  0.4587330000000  0.6003620000000 1.0
C      1  0.4697150000000  0.5259980000000  0.5699120000000 1.0
C      1  0.4631900000000  0.4853200000000  0.4314230000000 1.0
C      1  0.4958340000000  0.5478780000000  0.4631220000000 1.0
C      1  0.5304270000000  0.5742550000000  0.4910380000000 1.0
C      1  0.4104250000000  0.4750550000000  0.5726990000000 1.0
C      1  0.5131660000000  0.4667280000000  0.4747990000000 1.0
C      1  0.4258870000000  0.4907210000000  0.5553250000000 1.0
C      1  0.5292780000000  0.4917540000000  0.5254050000000 1.0
C      1  0.4777890000000  0.4385170000000  0.5620670000000 1.0
C      1  0.4989030000000  0.3982480000000  0.5345090000000 1.0
C      1  0.4362930000000  0.3804000000000  0.5529940000000 1.0
C      1  0.5327050000000  0.5339710000000  0.6101250000000 1.0
C      1  0.4087220000000  0.5211950000000  0.4603670000000 1.0
C      1  0.3774420000000  0.6320730000000  0.4858780000000 1.0
C      1  0.5071800000000  0.5035280000000  0.5082930000000 1.0
C      1  0.3856000000000  0.4811040000000  0.5818580000000 1.0
C      1  0.4700500000000  0.5434050000000  0.4744330000000 1.0
C      1  0.4438160000000  0.4441650000000  0.4831930000000 1.0
C      1  0.4869050000000  0.5052470000000  0.5294320000000 1.0
C      1  0.4722210000000  0.5678600000000  0.4155540000000 1.0
C      1  0.5591120000000  0.5508480000000  0.5251380000000 1.0
C      1  0.4714590000000  0.4870810000000  0.4784150000000 1.0
C      1  0.4594710000000  0.4983560000000  0.4023820000000 1.0
C      1  0.4045650000000  0.4929320000000  0.4520230000000 1.0
C      1  0.4068550000000  0.4346420000000  0.5352770000000 1.0
C      1  0.4885040000000  0.6129040000000  0.4262110000000 1.0
C      1  0.5323410000000  0.4543010000000  0.4937710000000 1.0
C      1  0.4393240000000  0.4664980000000  0.4297320000000 1.0
C      1  0.5220840000000  0.4502780000000  0.5570220000000 1.0
C      1  0.4756260000000  0.4823570000000  0.5411900000000 1.0
C      1  0.4462640000000  0.3681940000000  0.5313390000000 1.0
C      1  0.5163470000000  0.5104090000000  0.6160850000000 1.0
C      1  0.6062420000000  0.5355530000000  0.5717670000000 1.0
C      1  0.5200290000000  0.5295920000000  0.5010310000000 1.0
C      1  0.4981470000000  0.3957960000000  0.4980420000000 1.0
C      1  0.5347490000000  0.4273740000000  0.5427570000000 1.0
C      1  0.5149390000000  0.4469480000000  0.4089060000000 1.0
C      1  0.5111350000000  0.5079880000000  0.3956970000000 1.0
C      1  0.5664820000000  0.6037020000000  0.4910250000000 1.0
C      1  0.4291440000000  0.5341940000000  0.4452970000000 1.0
C      1  0.5212560000000  0.4032590000000  0.5519480000000 1.0
C      1  0.5575510000000  0.5338390000000  0.5970150000000 1.0
C      1  0.5850640000000  0.5608930000000  0.5339070000000 1.0
C      1  0.5473950000000  0.3956800000000  0.4933980000000 1.0
C      1  0.4587580000000  0.5101870000000  0.5885970000000 1.0
C      1  0.4599570000000  0.4191230000000  0.4212970000000 1.0
C      1  0.5606130000000  0.5165340000000  0.3989170000000 1.0
C      1  0.5910540000000  0.5108750000000  0.5727090000000 1.0
C      1  0.5817240000000  0.5888940000000  0.4741040000000 1.0
C      1  0.4918380000000  0.4797500000000  0.4303020000000 1.0
C      1  0.5377720000000  0.4648200000000  0.4141770000000 1.0
C      1  0.4865490000000  0.4366240000000  0.5159520000000 1.0
C      1  0.5262540000000  0.4127740000000  0.4458630000000 1.0
C      1  0.4745960000000  0.4473960000000  0.5897440000000 1.0
C      1  0.5201180000000  0.4098190000000  0.5808810000000 1.0
C      1  0.4065830000000  0.4300900000000  0.5070210000000 1.0
C      1  0.5480390000000  0.4746190000000  0.5103000000000 1.0
C      1  0.5509800000000  0.4272940000000  0.4393820000000 1.0
END
