TITL C-599895-9959-1250 0.111325970858693 125000 -653.309156195577 0 0 109 (C1) n - 1
REM
REM in /home/nfs/bkarasulu/CARBON/AIRSS/Generating-Clusters/TERSOFF/Only-C1/FIRE-HFTN
REM
REM
REM
REM
REM
REM ./C.cell (11c1c37f851c82e70ff6c80c92926a4b)
REM AIRSS Version 0.9.1 bugfix July 2018 build 013d7b7c2542+ Fri, 06 Jul 2018 19:26:36 +0100
REM compiler GCC version 9.2.1 20190827 (Red Hat 9.2.1-1)
REM options -cpp -mtune=generic -march=x86-64 -g -O0 -fpre-include=/usr/include/finclude/math-vector-fortran.h
REM seed 1754771995 -449275845 1679926055 -183399252 -1042844184 1933587889 -1246428755 -1958301051 -2010646161 275133440 703254895 861343967 2055810336 669538969 1201945270 2096863237 568706903 1202266370 1812826536 -315410790 1524430383 1304859046 -258574687 1916574480 1758199817 -1655554546 1336853102 1937390514 -1057782066 -1604130198 -303948597 1734409025 990871535
REM
CELL 1.54180   50.00000   50.00000   50.00000   90.00000   90.00000   90.00000
LATT -1
SFAC C  
C      1  0.6265700000000  0.4222620000000  0.4945830000000 1.0
C      1  0.5901280000000  0.5312680000000  0.4595370000000 1.0
C      1  0.5168630000000  0.6024500000000  0.5223010000000 1.0
C      1  0.4930850000000  0.3358360000000  0.4170240000000 1.0
C      1  0.5176740000000  0.4691520000000  0.5681370000000 1.0
C      1  0.4699510000000  0.5155720000000  0.5874560000000 1.0
C      1  0.5589220000000  0.4401610000000  0.5392870000000 1.0
C      1  0.4395800000000  0.5683510000000  0.4963620000000 1.0
C      1  0.4246830000000  0.5418520000000  0.5413010000000 1.0
C      1  0.4383720000000  0.5075320000000  0.3892970000000 1.0
C      1  0.5338920000000  0.4250950000000  0.4313160000000 1.0
C      1  0.5603570000000  0.4948370000000  0.5444010000000 1.0
C      1  0.4379670000000  0.5243040000000  0.4352730000000 1.0
C      1  0.4727290000000  0.4079270000000  0.4792860000000 1.0
C      1  0.5573000000000  0.5682360000000  0.5254700000000 1.0
C      1  0.5166460000000  0.4219810000000  0.4543790000000 1.0
C      1  0.4503260000000  0.5223480000000  0.6032240000000 1.0
C      1  0.5216760000000  0.4679310000000  0.5169470000000 1.0
C      1  0.4260810000000  0.5525670000000  0.4758090000000 1.0
C      1  0.4656340000000  0.6097740000000  0.5112770000000 1.0
C      1  0.6023290000000  0.4316530000000  0.4927640000000 1.0
C      1  0.4605710000000  0.5889340000000  0.4908180000000 1.0
C      1  0.5175930000000  0.5687010000000  0.5556890000000 1.0
C      1  0.4183870000000  0.4675070000000  0.5234220000000 1.0
C      1  0.5300610000000  0.4440980000000  0.5021830000000 1.0
C      1  0.4229510000000  0.4865060000000  0.3967810000000 1.0
C      1  0.4418180000000  0.4589460000000  0.4771670000000 1.0
C      1  0.5007930000000  0.5632250000000  0.5013180000000 1.0
C      1  0.4905150000000  0.6137090000000  0.5259420000000 1.0
C      1  0.5193340000000  0.5124950000000  0.4428740000000 1.0
C      1  0.4918190000000  0.5110980000000  0.5730060000000 1.0
C      1  0.4584880000000  0.4108810000000  0.5044990000000 1.0
C      1  0.4324310000000  0.4515550000000  0.5429440000000 1.0
C      1  0.4214850000000  0.5000420000000  0.4452950000000 1.0
C      1  0.4439820000000  0.5694420000000  0.4287200000000 1.0
C      1  0.5105140000000  0.4730680000000  0.5952620000000 1.0
C      1  0.5029580000000  0.4864720000000  0.4778370000000 1.0
C      1  0.5565200000000  0.4368390000000  0.5107390000000 1.0
C      1  0.5309010000000  0.5324470000000  0.4842920000000 1.0
C      1  0.5067820000000  0.5452580000000  0.4812090000000 1.0
C      1  0.5903750000000  0.5323590000000  0.5373410000000 1.0
C      1  0.4116590000000  0.4962860000000  0.5254690000000 1.0
C      1  0.4898740000000  0.5452990000000  0.5215290000000 1.0
C      1  0.4691800000000  0.4568980000000  0.4873270000000 1.0
C      1  0.5705930000000  0.5510800000000  0.5466850000000 1.0
C      1  0.5384930000000  0.4901920000000  0.4440760000000 1.0
C      1  0.5054320000000  0.5450660000000  0.5449820000000 1.0
C      1  0.5125730000000  0.5201020000000  0.5565170000000 1.0
C      1  0.4162660000000  0.5113400000000  0.5010010000000 1.0
C      1  0.5557730000000  0.5367790000000  0.5678510000000 1.0
C      1  0.4628830000000  0.4986630000000  0.5089950000000 1.0
C      1  0.4567680000000  0.4543980000000  0.5568900000000 1.0
C      1  0.5641780000000  0.4669000000000  0.5481060000000 1.0
C      1  0.4450040000000  0.6273280000000  0.5166130000000 1.0
C      1  0.5257660000000  0.5407210000000  0.4377550000000 1.0
C      1  0.5150580000000  0.4174100000000  0.5524680000000 1.0
C      1  0.4746550000000  0.4051510000000  0.5268830000000 1.0
C      1  0.4935990000000  0.4601190000000  0.4741690000000 1.0
C      1  0.5268230000000  0.5677800000000  0.4500380000000 1.0
C      1  0.4365990000000  0.5506360000000  0.4493970000000 1.0
C      1  0.4901300000000  0.4238060000000  0.5405970000000 1.0
C      1  0.5409740000000  0.5139290000000  0.5560160000000 1.0
C      1  0.5126460000000  0.5776730000000  0.5810160000000 1.0
C      1  0.5780980000000  0.5362460000000  0.4855920000000 1.0
C      1  0.5408460000000  0.4655570000000  0.4610620000000 1.0
C      1  0.5788070000000  0.5085780000000  0.5264120000000 1.0
C      1  0.5414220000000  0.4231300000000  0.5538680000000 1.0
C      1  0.5010820000000  0.5822120000000  0.4528020000000 1.0
C      1  0.5765650000000  0.4418070000000  0.4913250000000 1.0
C      1  0.4777630000000  0.5226260000000  0.5061980000000 1.0
C      1  0.5417540000000  0.5137840000000  0.6102500000000 1.0
C      1  0.4494760000000  0.5566900000000  0.4047690000000 1.0
C      1  0.5639140000000  0.4912330000000  0.4300190000000 1.0
C      1  0.4842190000000  0.4634400000000  0.6005740000000 1.0
C      1  0.4780490000000  0.5880010000000  0.4670790000000 1.0
C      1  0.4404800000000  0.5008670000000  0.4909600000000 1.0
C      1  0.4140650000000  0.4829500000000  0.4222330000000 1.0
C      1  0.5516960000000  0.4416940000000  0.4186300000000 1.0
C      1  0.6113820000000  0.5470670000000  0.4520540000000 1.0
C      1  0.5655410000000  0.4654640000000  0.4165150000000 1.0
C      1  0.4967030000000  0.5072780000000  0.4602890000000 1.0
C      1  0.5216650000000  0.4899180000000  0.4995890000000 1.0
C      1  0.4363760000000  0.4850840000000  0.4671460000000 1.0
C      1  0.4068870000000  0.5307710000000  0.4821600000000 1.0
C      1  0.5337610000000  0.5837800000000  0.5370480000000 1.0
C      1  0.5634880000000  0.5619880000000  0.4938630000000 1.0
C      1  0.4934800000000  0.3801130000000  0.4453490000000 1.0
C      1  0.4706100000000  0.4705510000000  0.5135010000000 1.0
C      1  0.4452430000000  0.5283140000000  0.4068110000000 1.0
C      1  0.5412070000000  0.5095570000000  0.4961240000000 1.0
C      1  0.5483470000000  0.5728880000000  0.4702560000000 1.0
C      1  0.4932420000000  0.3577780000000  0.4311020000000 1.0
C      1  0.5196250000000  0.4452020000000  0.4728140000000 1.0
C      1  0.4354880000000  0.4267570000000  0.5114680000000 1.0
C      1  0.4154710000000  0.5164240000000  0.5457140000000 1.0
C      1  0.5543020000000  0.5334360000000  0.5961050000000 1.0
C      1  0.4334170000000  0.5601950000000  0.5233120000000 1.0
C      1  0.5689050000000  0.5128450000000  0.5003490000000 1.0
C      1  0.5674350000000  0.4582550000000  0.4701710000000 1.0
C      1  0.4243480000000  0.4500440000000  0.4987480000000 1.0
C      1  0.4632880000000  0.4571360000000  0.5844130000000 1.0
C      1  0.4854370000000  0.5271010000000  0.4774280000000 1.0
C      1  0.5814430000000  0.5108010000000  0.4411210000000 1.0
C      1  0.5128770000000  0.5879850000000  0.4985040000000 1.0
C      1  0.3983620000000  0.5154820000000  0.4587760000000 1.0
C      1  0.5261500000000  0.4916500000000  0.6100670000000 1.0
C      1  0.5080980000000  0.4668650000000  0.5418230000000 1.0
C      1  0.4942790000000  0.4040510000000  0.4600650000000 1.0
C      1  0.4809370000000  0.4541790000000  0.5383940000000 1.0
END
