TITL C-599895-9959-146 0.00138487362867782 125000 -758.495279748484 0 0 126 (C1) n - 1
REM
REM in /home/nfs/bkarasulu/CARBON/AIRSS/Generating-Clusters/TERSOFF/Only-C1/FIRE-HFTN
REM
REM
REM
REM
REM
REM ./C.cell (11c1c37f851c82e70ff6c80c92926a4b)
REM AIRSS Version 0.9.1 bugfix July 2018 build 013d7b7c2542+ Fri, 06 Jul 2018 19:26:36 +0100
REM compiler GCC version 9.2.1 20190827 (Red Hat 9.2.1-1)
REM options -cpp -mtune=generic -march=x86-64 -g -O0 -fpre-include=/usr/include/finclude/math-vector-fortran.h
REM seed -920434286 2063175193 -959825141 -1814738620 771627702 -161883518 521624436 1058579214 -260604752 -254369280 -405179258 -611552241 -648188512 534785997 206775490 334203965 1306488472 -2136125153 -657345773 150561438 1951021615 -897767279 -450946675 1249035190 -1677993022 328475180 1853677084 -42194223 -1645233676 -1698758867 -1608836943 1238472351 451406842
REM
CELL 1.54180   50.00000   50.00000   50.00000   90.00000   90.00000   90.00000
LATT -1
SFAC C  
C      1  0.4662880000000  0.4366490000000  0.6104900000000 1.0
C      1  0.4792590000000  0.4311690000000  0.5645090000000 1.0
C      1  0.4431560000000  0.4802710000000  0.4524660000000 1.0
C      1  0.5741070000000  0.4487360000000  0.3921140000000 1.0
C      1  0.5235820000000  0.5312930000000  0.5851520000000 1.0
C      1  0.5199710000000  0.5732440000000  0.4988930000000 1.0
C      1  0.5287890000000  0.5264190000000  0.5199050000000 1.0
C      1  0.4861920000000  0.5187550000000  0.4597990000000 1.0
C      1  0.4406500000000  0.4881700000000  0.3933650000000 1.0
C      1  0.5528660000000  0.5980060000000  0.5243300000000 1.0
C      1  0.5009640000000  0.5415080000000  0.5998420000000 1.0
C      1  0.5851800000000  0.5572000000000  0.4695950000000 1.0
C      1  0.3986620000000  0.4556250000000  0.5427600000000 1.0
C      1  0.5004000000000  0.5492760000000  0.4267970000000 1.0
C      1  0.4613090000000  0.4692600000000  0.3917430000000 1.0
C      1  0.4527810000000  0.4282310000000  0.5520240000000 1.0
C      1  0.4328780000000  0.5338040000000  0.4075410000000 1.0
C      1  0.4528370000000  0.4792040000000  0.5010470000000 1.0
C      1  0.5178060000000  0.5703410000000  0.5496750000000 1.0
C      1  0.4241040000000  0.4902700000000  0.5640190000000 1.0
C      1  0.5592700000000  0.5126120000000  0.6369890000000 1.0
C      1  0.5297410000000  0.4191200000000  0.5508260000000 1.0
C      1  0.5029700000000  0.4974740000000  0.5459860000000 1.0
C      1  0.4209790000000  0.5591280000000  0.4470880000000 1.0
C      1  0.4376760000000  0.4224870000000  0.5294720000000 1.0
C      1  0.5071950000000  0.4596200000000  0.4011080000000 1.0
C      1  0.5464240000000  0.5345870000000  0.5404470000000 1.0
C      1  0.6123270000000  0.5160950000000  0.4788540000000 1.0
C      1  0.5841150000000  0.5083930000000  0.5955480000000 1.0
C      1  0.5452050000000  0.4102890000000  0.5278430000000 1.0
C      1  0.4156730000000  0.5522260000000  0.5244700000000 1.0
C      1  0.4897580000000  0.4653350000000  0.4439370000000 1.0
C      1  0.5408340000000  0.4667540000000  0.5025860000000 1.0
C      1  0.5424630000000  0.4341600000000  0.5711940000000 1.0
C      1  0.4995320000000  0.4671050000000  0.5946090000000 1.0
C      1  0.4610410000000  0.5192900000000  0.4727280000000 1.0
C      1  0.4233340000000  0.4961130000000  0.4384080000000 1.0
C      1  0.4613950000000  0.4584170000000  0.4475830000000 1.0
C      1  0.5347810000000  0.4411090000000  0.4939520000000 1.0
C      1  0.5006990000000  0.4177600000000  0.5496820000000 1.0
C      1  0.4301510000000  0.5060430000000  0.4121570000000 1.0
C      1  0.5107500000000  0.5611720000000  0.4765930000000 1.0
C      1  0.4902150000000  0.4063050000000  0.5257150000000 1.0
C      1  0.4429390000000  0.5387300000000  0.4826440000000 1.0
C      1  0.4474770000000  0.4195440000000  0.5022330000000 1.0
C      1  0.5259350000000  0.4777430000000  0.5931130000000 1.0
C      1  0.5046070000000  0.4145380000000  0.4643420000000 1.0
C      1  0.4519300000000  0.5839320000000  0.4828840000000 1.0
C      1  0.4829480000000  0.5001520000000  0.5647810000000 1.0
C      1  0.5110740000000  0.5286110000000  0.4070280000000 1.0
C      1  0.4009730000000  0.5388980000000  0.4514220000000 1.0
C      1  0.5402670000000  0.4992060000000  0.4667680000000 1.0
C      1  0.5034830000000  0.5509120000000  0.6259130000000 1.0
C      1  0.4937720000000  0.4931760000000  0.4490550000000 1.0
C      1  0.4042710000000  0.5107790000000  0.4554760000000 1.0
C      1  0.4529840000000  0.5235820000000  0.5249790000000 1.0
C      1  0.4755260000000  0.4211130000000  0.5068670000000 1.0
C      1  0.4180640000000  0.4748950000000  0.5411780000000 1.0
C      1  0.5916950000000  0.4537820000000  0.3735460000000 1.0
C      1  0.5008710000000  0.4918830000000  0.4999380000000 1.0
C      1  0.4314270000000  0.5572360000000  0.4208980000000 1.0
C      1  0.5562750000000  0.4446290000000  0.4112770000000 1.0
C      1  0.5399080000000  0.5385350000000  0.4060130000000 1.0
C      1  0.4543650000000  0.4422260000000  0.3990810000000 1.0
C      1  0.5099060000000  0.4361260000000  0.4816950000000 1.0
C      1  0.5598280000000  0.5090680000000  0.6093010000000 1.0
C      1  0.5630750000000  0.4874700000000  0.4529700000000 1.0
C      1  0.4975000000000  0.5064770000000  0.3954410000000 1.0
C      1  0.5447270000000  0.4719370000000  0.5298260000000 1.0
C      1  0.4805060000000  0.4710270000000  0.5027170000000 1.0
C      1  0.5573620000000  0.4082930000000  0.4745640000000 1.0
C      1  0.4379520000000  0.5633250000000  0.4695950000000 1.0
C      1  0.5693780000000  0.5960610000000  0.5015720000000 1.0
C      1  0.4133570000000  0.5052160000000  0.5038160000000 1.0
C      1  0.5269300000000  0.4870460000000  0.4882390000000 1.0
C      1  0.5549710000000  0.5303850000000  0.4309130000000 1.0
C      1  0.4282640000000  0.4829810000000  0.5158860000000 1.0
C      1  0.5588480000000  0.6153310000000  0.5452750000000 1.0
C      1  0.4229490000000  0.5661420000000  0.5464640000000 1.0
C      1  0.5123050000000  0.5740550000000  0.4167820000000 1.0
C      1  0.5490460000000  0.4193860000000  0.4508120000000 1.0
C      1  0.6069690000000  0.5057500000000  0.5833070000000 1.0
C      1  0.4971650000000  0.3917970000000  0.4528670000000 1.0
C      1  0.5014630000000  0.5141270000000  0.5205400000000 1.0
C      1  0.4891330000000  0.5702500000000  0.5490070000000 1.0
C      1  0.3721630000000  0.4880600000000  0.4842940000000 1.0
C      1  0.4473950000000  0.4258610000000  0.4199930000000 1.0
C      1  0.5318470000000  0.5471180000000  0.5617980000000 1.0
C      1  0.5735440000000  0.5367370000000  0.5345500000000 1.0
C      1  0.5790420000000  0.5823240000000  0.4808070000000 1.0
C      1  0.4819380000000  0.4452270000000  0.5895170000000 1.0
C      1  0.5586990000000  0.5152430000000  0.6629100000000 1.0
C      1  0.5359760000000  0.5675540000000  0.4034830000000 1.0
C      1  0.4428400000000  0.5709600000000  0.5639540000000 1.0
C      1  0.4789140000000  0.5337210000000  0.5209070000000 1.0
C      1  0.5351720000000  0.5057990000000  0.5949030000000 1.0
C      1  0.5441980000000  0.4568900000000  0.5856890000000 1.0
C      1  0.5639570000000  0.6308170000000  0.5656020000000 1.0
C      1  0.5052470000000  0.5603580000000  0.6501360000000 1.0
C      1  0.5069550000000  0.5401900000000  0.4555670000000 1.0
C      1  0.4650440000000  0.5164970000000  0.5788830000000 1.0
C      1  0.5859340000000  0.4769430000000  0.4651770000000 1.0
C      1  0.5979130000000  0.5385710000000  0.4874390000000 1.0
C      1  0.3960820000000  0.5010200000000  0.4813310000000 1.0
C      1  0.4386110000000  0.5073100000000  0.5786950000000 1.0
C      1  0.5337760000000  0.5245470000000  0.4538650000000 1.0
C      1  0.4878960000000  0.4442980000000  0.4970450000000 1.0
C      1  0.4286020000000  0.5309540000000  0.5082380000000 1.0
C      1  0.5378980000000  0.4382990000000  0.4320360000000 1.0
C      1  0.5741440000000  0.5493210000000  0.4446440000000 1.0
C      1  0.5494530000000  0.4176050000000  0.5006530000000 1.0
C      1  0.4698730000000  0.5644790000000  0.5696000000000 1.0
C      1  0.4885870000000  0.4791870000000  0.3926410000000 1.0
C      1  0.5912440000000  0.5395690000000  0.5148220000000 1.0
C      1  0.6077130000000  0.4902010000000  0.4736860000000 1.0
C      1  0.4894030000000  0.3697030000000  0.4414240000000 1.0
C      1  0.4759020000000  0.5419030000000  0.5861390000000 1.0
C      1  0.4796180000000  0.5623730000000  0.5231090000000 1.0
C      1  0.5671590000000  0.5027600000000  0.4288770000000 1.0
C      1  0.4493770000000  0.4322140000000  0.4480340000000 1.0
C      1  0.4678700000000  0.5804290000000  0.5046290000000 1.0
C      1  0.5297170000000  0.5813700000000  0.5248220000000 1.0
C      1  0.5260800000000  0.4814420000000  0.5466060000000 1.0
C      1  0.4410620000000  0.4219730000000  0.4739780000000 1.0
C      1  0.5115830000000  0.4516880000000  0.4285120000000 1.0
C      1  0.4508370000000  0.4931080000000  0.4761380000000 1.0
END
