TITL C-599895-9959-452 5.0999289879701 125000 -193.286026753465 0 0 33 (C1) n - 1
REM
REM in /home/nfs/bkarasulu/CARBON/AIRSS/Generating-Clusters/TERSOFF/Only-C1/FIRE-HFTN
REM
REM
REM
REM
REM
REM ./C.cell (11c1c37f851c82e70ff6c80c92926a4b)
REM AIRSS Version 0.9.1 bugfix July 2018 build 013d7b7c2542+ Fri, 06 Jul 2018 19:26:36 +0100
REM compiler GCC version 9.2.1 20190827 (Red Hat 9.2.1-1)
REM options -cpp -mtune=generic -march=x86-64 -g -O0 -fpre-include=/usr/include/finclude/math-vector-fortran.h
REM seed 1518656935 55300737 -655220719 1947041315 -474807113 391416226 -1554906764 1090602967 273797033 -1182526888 335672653 140688704 1875510951 -1322033785 555138351 2146830183 -1234461924 2062495955 241757117 1053315311 2011204412 -1255980456 1049161905 -1988427765 -1190821004 2105118636 -606697766 -80776129 1458447810 1481021694 889585481 661664247 1979267490
REM
CELL 1.54180   50.00000   50.00000   50.00000   90.00000   90.00000   90.00000
LATT -1
SFAC C  
C      1  0.4445070000000  0.5557030000000  0.5280110000000 1.0
C      1  0.5096040000000  0.5151170000000  0.5596880000000 1.0
C      1  0.4675180000000  0.5831610000000  0.4897550000000 1.0
C      1  0.4480550000000  0.4623150000000  0.5199570000000 1.0
C      1  0.5224110000000  0.5309500000000  0.4346480000000 1.0
C      1  0.3980660000000  0.5324480000000  0.5785140000000 1.0
C      1  0.5219660000000  0.5040420000000  0.4408630000000 1.0
C      1  0.5262020000000  0.4323020000000  0.4370980000000 1.0
C      1  0.5880930000000  0.5107160000000  0.5672800000000 1.0
C      1  0.4282330000000  0.4447240000000  0.5266640000000 1.0
C      1  0.4400260000000  0.5336440000000  0.5445800000000 1.0
C      1  0.4861020000000  0.4569050000000  0.4821340000000 1.0
C      1  0.5455800000000  0.4193370000000  0.4502470000000 1.0
C      1  0.5008380000000  0.5750950000000  0.4506940000000 1.0
C      1  0.5676740000000  0.4612850000000  0.5026180000000 1.0
C      1  0.4840130000000  0.5844160000000  0.4689990000000 1.0
C      1  0.4497510000000  0.4872890000000  0.5324440000000 1.0
C      1  0.4578780000000  0.5115450000000  0.5436490000000 1.0
C      1  0.5347270000000  0.4974890000000  0.4895120000000 1.0
C      1  0.4838370000000  0.5142440000000  0.5536190000000 1.0
C      1  0.5048210000000  0.4673360000000  0.4646470000000 1.0
C      1  0.5621480000000  0.5129170000000  0.5660000000000 1.0
C      1  0.5177790000000  0.4932950000000  0.4677120000000 1.0
C      1  0.5357950000000  0.5145570000000  0.5636810000000 1.0
C      1  0.5199970000000  0.4808390000000  0.4236930000000 1.0
C      1  0.4670160000000  0.4556760000000  0.5004780000000 1.0
C      1  0.5624970000000  0.4217020000000  0.4708010000000 1.0
C      1  0.5146730000000  0.5560830000000  0.4383430000000 1.0
C      1  0.5707520000000  0.4376510000000  0.4905690000000 1.0
C      1  0.5540880000000  0.4842930000000  0.5024440000000 1.0
C      1  0.4182950000000  0.5332980000000  0.5621050000000 1.0
C      1  0.5131800000000  0.4568970000000  0.4385750000000 1.0
C      1  0.4538760000000  0.5727300000000  0.5099780000000 1.0
END
