TITL C-599891-72-1312 0.0623273211504958 125000 -1025.31625492505 0 0 166 (C1) n - 1
REM
REM in /home/nfs/bkarasulu/CARBON/AIRSS/Generating-Clusters/TERSOFF/Only-C1/FIRE-HFTN
REM
REM
REM
REM
REM
REM ./C.cell (11c1c37f851c82e70ff6c80c92926a4b)
REM AIRSS Version 0.9.1 bugfix July 2018 build 013d7b7c2542+ Fri, 06 Jul 2018 19:26:36 +0100
REM compiler GCC version 9.2.1 20190827 (Red Hat 9.2.1-1)
REM options -cpp -mtune=generic -march=x86-64 -g -O0 -fpre-include=/usr/include/finclude/math-vector-fortran.h
REM seed -2137539243 1337571736 -307763410 2144481720 636910507 493150486 -1005373211 -962672758 -989849176 -2071987240 1698849876 1870733262 -1588625992 1221391655 873771513 1624494040 276888115 1801440200 920786783 2134533889 50320416 1154905798 1926823375 -663818393 675439826 -292620586 -1923390473 422502132 -996524363 -727016561 -169240966 -277934307 -2093471808
REM
CELL 1.54180   50.00000   50.00000   50.00000   90.00000   90.00000   90.00000
LATT -1
SFAC C  
C      1  0.4581320000000  0.4009910000000  0.4886320000000 1.0
C      1  0.5447830000000  0.4948190000000  0.4433600000000 1.0
C      1  0.4488890000000  0.6089340000000  0.5254370000000 1.0
C      1  0.5253850000000  0.4156670000000  0.4941910000000 1.0
C      1  0.5034820000000  0.4297390000000  0.5975380000000 1.0
C      1  0.4084940000000  0.5034820000000  0.4335210000000 1.0
C      1  0.5010940000000  0.5071840000000  0.4288640000000 1.0
C      1  0.4430610000000  0.5458620000000  0.4820240000000 1.0
C      1  0.4316890000000  0.4733880000000  0.5598790000000 1.0
C      1  0.4058780000000  0.5180770000000  0.5436310000000 1.0
C      1  0.6465290000000  0.5018660000000  0.4955230000000 1.0
C      1  0.5900180000000  0.4501180000000  0.4553870000000 1.0
C      1  0.5327810000000  0.5321590000000  0.4839250000000 1.0
C      1  0.4416770000000  0.4594480000000  0.4247230000000 1.0
C      1  0.5667840000000  0.5240350000000  0.5699340000000 1.0
C      1  0.4056460000000  0.4877470000000  0.4102450000000 1.0
C      1  0.5525080000000  0.5950940000000  0.4748950000000 1.0
C      1  0.5780760000000  0.5151370000000  0.4965840000000 1.0
C      1  0.3939000000000  0.4345930000000  0.5065720000000 1.0
C      1  0.4253430000000  0.5274510000000  0.4318600000000 1.0
C      1  0.4880830000000  0.3957600000000  0.5650570000000 1.0
C      1  0.4879220000000  0.3749070000000  0.5462050000000 1.0
C      1  0.5118920000000  0.4447340000000  0.5312640000000 1.0
C      1  0.4312670000000  0.4132870000000  0.4830300000000 1.0
C      1  0.4039180000000  0.4611500000000  0.4677010000000 1.0
C      1  0.5417430000000  0.5784300000000  0.4144550000000 1.0
C      1  0.4313710000000  0.5420170000000  0.4558890000000 1.0
C      1  0.5372260000000  0.4118860000000  0.5608330000000 1.0
C      1  0.5173380000000  0.4508430000000  0.6120620000000 1.0
C      1  0.4867760000000  0.6080090000000  0.4790940000000 1.0
C      1  0.5250250000000  0.5832580000000  0.5155620000000 1.0
C      1  0.5988360000000  0.5127000000000  0.4774440000000 1.0
C      1  0.5785210000000  0.6007330000000  0.4741680000000 1.0
C      1  0.4739380000000  0.5601390000000  0.5240210000000 1.0
C      1  0.5480150000000  0.5922550000000  0.5578840000000 1.0
C      1  0.4102590000000  0.5329700000000  0.5192070000000 1.0
C      1  0.5679990000000  0.5349100000000  0.4085760000000 1.0
C      1  0.5311710000000  0.5013090000000  0.3829810000000 1.0
C      1  0.5582570000000  0.5362530000000  0.4973050000000 1.0
C      1  0.4755840000000  0.4622810000000  0.5548020000000 1.0
C      1  0.4391760000000  0.5073290000000  0.5977570000000 1.0
C      1  0.4371210000000  0.4788900000000  0.5146770000000 1.0
C      1  0.5255850000000  0.4626050000000  0.5484930000000 1.0
C      1  0.5110230000000  0.4111490000000  0.5755300000000 1.0
C      1  0.5189910000000  0.5885700000000  0.5652460000000 1.0
C      1  0.4394100000000  0.4497180000000  0.5143900000000 1.0
C      1  0.4873140000000  0.4359200000000  0.4056420000000 1.0
C      1  0.5101870000000  0.6063100000000  0.5236210000000 1.0
C      1  0.4620090000000  0.4061750000000  0.5712750000000 1.0
C      1  0.3925120000000  0.4918850000000  0.5397750000000 1.0
C      1  0.5296080000000  0.5862080000000  0.4877110000000 1.0
C      1  0.4658760000000  0.4396090000000  0.5153470000000 1.0
C      1  0.5721050000000  0.4305440000000  0.4962950000000 1.0
C      1  0.5106330000000  0.5182930000000  0.4996940000000 1.0
C      1  0.5169530000000  0.4912760000000  0.5097940000000 1.0
C      1  0.4992790000000  0.4788680000000  0.4238330000000 1.0
C      1  0.5830130000000  0.4758940000000  0.4174970000000 1.0
C      1  0.4557610000000  0.5290110000000  0.6094630000000 1.0
C      1  0.4977810000000  0.6028650000000  0.5492420000000 1.0
C      1  0.4256270000000  0.5222580000000  0.5725750000000 1.0
C      1  0.4722260000000  0.4652670000000  0.6141710000000 1.0
C      1  0.5848700000000  0.5228290000000  0.4292890000000 1.0
C      1  0.5204640000000  0.4420960000000  0.5047880000000 1.0
C      1  0.5187900000000  0.5777530000000  0.4283250000000 1.0
C      1  0.4999370000000  0.4706090000000  0.6212460000000 1.0
C      1  0.5399380000000  0.4762800000000  0.3956530000000 1.0
C      1  0.5094310000000  0.5343360000000  0.5253290000000 1.0
C      1  0.4432600000000  0.4921570000000  0.5395950000000 1.0
C      1  0.4415150000000  0.5478990000000  0.5720620000000 1.0
C      1  0.4825800000000  0.5190220000000  0.4860790000000 1.0
C      1  0.4889620000000  0.4783450000000  0.3771900000000 1.0
C      1  0.4599820000000  0.5322190000000  0.3892050000000 1.0
C      1  0.5666300000000  0.5748500000000  0.5419010000000 1.0
C      1  0.4254650000000  0.4327480000000  0.4598890000000 1.0
C      1  0.4331400000000  0.5477220000000  0.5104120000000 1.0
C      1  0.4796210000000  0.3822710000000  0.4970580000000 1.0
C      1  0.4713630000000  0.5442390000000  0.4819010000000 1.0
C      1  0.4931390000000  0.4212170000000  0.4483920000000 1.0
C      1  0.6062380000000  0.5937650000000  0.5145840000000 1.0
C      1  0.5380670000000  0.5550620000000  0.5985200000000 1.0
C      1  0.4988360000000  0.6214990000000  0.5020120000000 1.0
C      1  0.4859510000000  0.4882910000000  0.5511300000000 1.0
C      1  0.5150560000000  0.4632150000000  0.4412020000000 1.0
C      1  0.5083940000000  0.5216810000000  0.5893230000000 1.0
C      1  0.4745590000000  0.4377750000000  0.6029390000000 1.0
C      1  0.4681450000000  0.5086900000000  0.5420900000000 1.0
C      1  0.4628960000000  0.4994870000000  0.4817500000000 1.0
C      1  0.5027010000000  0.5035640000000  0.3757990000000 1.0
C      1  0.5168050000000  0.4296700000000  0.4082880000000 1.0
C      1  0.4691200000000  0.6080580000000  0.5448250000000 1.0
C      1  0.4825280000000  0.5344640000000  0.5350380000000 1.0
C      1  0.6210160000000  0.4393560000000  0.4920510000000 1.0
C      1  0.5770890000000  0.5014990000000  0.5228260000000 1.0
C      1  0.4165730000000  0.5871700000000  0.5600660000000 1.0
C      1  0.4368540000000  0.4967420000000  0.4928970000000 1.0
C      1  0.4050130000000  0.4898430000000  0.4588030000000 1.0
C      1  0.4784220000000  0.3685360000000  0.5217840000000 1.0
C      1  0.5571370000000  0.4311620000000  0.5490590000000 1.0
C      1  0.4865410000000  0.4353630000000  0.4719040000000 1.0
C      1  0.5505010000000  0.5218440000000  0.3893190000000 1.0
C      1  0.5068210000000  0.3936150000000  0.4926550000000 1.0
C      1  0.5491270000000  0.4558060000000  0.5625400000000 1.0
C      1  0.4800240000000  0.5241600000000  0.4304680000000 1.0
C      1  0.5328960000000  0.4745680000000  0.4606200000000 1.0
C      1  0.4502050000000  0.4824890000000  0.6075970000000 1.0
C      1  0.5953300000000  0.4758100000000  0.4432900000000 1.0
C      1  0.5594190000000  0.6156440000000  0.5678700000000 1.0
C      1  0.5019960000000  0.5811450000000  0.4760610000000 1.0
C      1  0.4869450000000  0.4646990000000  0.4016920000000 1.0
C      1  0.5601970000000  0.4751610000000  0.5791580000000 1.0
C      1  0.4928890000000  0.5468950000000  0.5834450000000 1.0
C      1  0.5148620000000  0.4895430000000  0.5462620000000 1.0
C      1  0.5109260000000  0.5643120000000  0.4519130000000 1.0
C      1  0.3971340000000  0.5310720000000  0.4926750000000 1.0
C      1  0.3837410000000  0.4807080000000  0.5141170000000 1.0
C      1  0.5558880000000  0.4828920000000  0.4184650000000 1.0
C      1  0.6430950000000  0.4522860000000  0.4994450000000 1.0
C      1  0.5145900000000  0.5672370000000  0.5836750000000 1.0
C      1  0.6005410000000  0.6006030000000  0.4893290000000 1.0
C      1  0.6253960000000  0.5152870000000  0.4862940000000 1.0
C      1  0.5513190000000  0.5017380000000  0.5777580000000 1.0
C      1  0.5255030000000  0.5316510000000  0.6113230000000 1.0
C      1  0.5211290000000  0.4222260000000  0.4369390000000 1.0
C      1  0.4717880000000  0.4239930000000  0.4281930000000 1.0
C      1  0.5274650000000  0.5563040000000  0.5264180000000 1.0
C      1  0.4211690000000  0.4283180000000  0.5064280000000 1.0
C      1  0.5333210000000  0.4484050000000  0.3938320000000 1.0
C      1  0.5472300000000  0.4215530000000  0.4514490000000 1.0
C      1  0.5501220000000  0.4177000000000  0.4804360000000 1.0
C      1  0.4725760000000  0.4251690000000  0.4928720000000 1.0
C      1  0.5760470000000  0.4723140000000  0.5243900000000 1.0
C      1  0.5952260000000  0.4399150000000  0.4814220000000 1.0
C      1  0.4115760000000  0.5068100000000  0.4811610000000 1.0
C      1  0.4843130000000  0.5647800000000  0.4961640000000 1.0
C      1  0.4379580000000  0.6017520000000  0.4984900000000 1.0
C      1  0.4650430000000  0.5469910000000  0.5891020000000 1.0
C      1  0.5248960000000  0.5389830000000  0.4573790000000 1.0
C      1  0.6537640000000  0.4767220000000  0.5009660000000 1.0
C      1  0.4842980000000  0.4443620000000  0.5352910000000 1.0
C      1  0.5630580000000  0.5627300000000  0.4102690000000 1.0
C      1  0.4579990000000  0.6072860000000  0.4781540000000 1.0
C      1  0.4902420000000  0.4628590000000  0.4748800000000 1.0
C      1  0.5258970000000  0.5165420000000  0.4398410000000 1.0
C      1  0.4034490000000  0.4731390000000  0.5585490000000 1.0
C      1  0.4465980000000  0.5636490000000  0.5287670000000 1.0
C      1  0.5925220000000  0.5838420000000  0.5352820000000 1.0
C      1  0.4224490000000  0.4670730000000  0.4059240000000 1.0
C      1  0.5945560000000  0.5045360000000  0.4504890000000 1.0
C      1  0.4351050000000  0.5681240000000  0.5539990000000 1.0
C      1  0.5696300000000  0.4423310000000  0.5233700000000 1.0
C      1  0.4442190000000  0.4332080000000  0.4362600000000 1.0
C      1  0.5709540000000  0.4335140000000  0.4410360000000 1.0
C      1  0.4510340000000  0.4543700000000  0.5672460000000 1.0
C      1  0.5625760000000  0.5476300000000  0.5857460000000 1.0
C      1  0.5568560000000  0.5487270000000  0.5271290000000 1.0
C      1  0.5701260000000  0.5243890000000  0.5416690000000 1.0
C      1  0.4557410000000  0.4311070000000  0.5827700000000 1.0
C      1  0.4134640000000  0.5850310000000  0.4910080000000 1.0
C      1  0.4703760000000  0.4794900000000  0.4644350000000 1.0
C      1  0.4397630000000  0.5327100000000  0.4074190000000 1.0
C      1  0.5173610000000  0.4690020000000  0.4879820000000 1.0
C      1  0.3976790000000  0.5615110000000  0.4852460000000 1.0
C      1  0.4841670000000  0.5253090000000  0.3786070000000 1.0
C      1  0.4561610000000  0.4776290000000  0.4404040000000 1.0
C      1  0.3887930000000  0.4597020000000  0.4942060000000 1.0
C      1  0.5234450000000  0.5053470000000  0.5709080000000 1.0
END
