TITL C-599892-9790-750 -0.0138449509501017 125000 -722.437458255956 0 0 119 (C1) n - 1
REM
REM in /home/nfs/bkarasulu/CARBON/AIRSS/Generating-Clusters/TERSOFF/Only-C1/FIRE-HFTN
REM
REM
REM
REM
REM
REM ./C.cell (11c1c37f851c82e70ff6c80c92926a4b)
REM AIRSS Version 0.9.1 bugfix July 2018 build 013d7b7c2542+ Fri, 06 Jul 2018 19:26:36 +0100
REM compiler GCC version 9.2.1 20190827 (Red Hat 9.2.1-1)
REM options -cpp -mtune=generic -march=x86-64 -g -O0 -fpre-include=/usr/include/finclude/math-vector-fortran.h
REM seed 651138392 -1374977142 308408471 -1505590749 1405442767 -1841369697 -1211743711 -1688022840 471576683 794347544 -1867748450 -859864340 2132053602 -1909132104 1393130490 -214879340 1858145606 -1106877824 -819204108 221931628 -1720898150 670856902 1803231889 6138996 486225653 1829985471 1380784044 609195808 1938399586 -2121426135 416938919 -979255337 1796040917
REM
CELL 1.54180   50.00000   50.00000   50.00000   90.00000   90.00000   90.00000
LATT -1
SFAC C  
C      1  0.5617590000000  0.4568720000000  0.4222770000000 1.0
C      1  0.5403380000000  0.4990080000000  0.6009610000000 1.0
C      1  0.5308390000000  0.5224530000000  0.4250720000000 1.0
C      1  0.5260270000000  0.5182040000000  0.6177800000000 1.0
C      1  0.4703190000000  0.4763020000000  0.4077480000000 1.0
C      1  0.5238310000000  0.4200040000000  0.5674440000000 1.0
C      1  0.4587050000000  0.5556870000000  0.5579400000000 1.0
C      1  0.4582620000000  0.5404350000000  0.5841160000000 1.0
C      1  0.4769200000000  0.5118970000000  0.5465100000000 1.0
C      1  0.5076270000000  0.5289920000000  0.4395850000000 1.0
C      1  0.4729140000000  0.4593980000000  0.4650880000000 1.0
C      1  0.4868510000000  0.5589030000000  0.5514240000000 1.0
C      1  0.5541130000000  0.4828790000000  0.4139790000000 1.0
C      1  0.4729980000000  0.5513170000000  0.4831570000000 1.0
C      1  0.6129490000000  0.5240190000000  0.4530080000000 1.0
C      1  0.4459320000000  0.4398300000000  0.3919130000000 1.0
C      1  0.5352690000000  0.4434370000000  0.4776360000000 1.0
C      1  0.4746880000000  0.5037610000000  0.4138530000000 1.0
C      1  0.5290270000000  0.5302840000000  0.3977430000000 1.0
C      1  0.5407110000000  0.5461250000000  0.5020440000000 1.0
C      1  0.5361340000000  0.4692180000000  0.5182670000000 1.0
C      1  0.4642780000000  0.5288640000000  0.4649710000000 1.0
C      1  0.4569910000000  0.4510610000000  0.5722260000000 1.0
C      1  0.4578080000000  0.4977840000000  0.6238970000000 1.0
C      1  0.6250720000000  0.4800480000000  0.4121170000000 1.0
C      1  0.4417880000000  0.4941050000000  0.6007070000000 1.0
C      1  0.4964040000000  0.4580900000000  0.5948480000000 1.0
C      1  0.4818710000000  0.5210560000000  0.3925390000000 1.0
C      1  0.5003930000000  0.6127780000000  0.5063710000000 1.0
C      1  0.4606860000000  0.5658770000000  0.5057280000000 1.0
C      1  0.5442460000000  0.5938390000000  0.4997200000000 1.0
C      1  0.6043160000000  0.4805160000000  0.4304720000000 1.0
C      1  0.4260630000000  0.5002130000000  0.5397960000000 1.0
C      1  0.5685480000000  0.5007980000000  0.4558380000000 1.0
C      1  0.5681130000000  0.5673510000000  0.4658950000000 1.0
C      1  0.4953650000000  0.4193850000000  0.5643100000000 1.0
C      1  0.5461120000000  0.5705760000000  0.5441270000000 1.0
C      1  0.4424750000000  0.4142010000000  0.5141450000000 1.0
C      1  0.5597820000000  0.4785900000000  0.5925410000000 1.0
C      1  0.5525520000000  0.5688640000000  0.4888240000000 1.0
C      1  0.5104990000000  0.6016890000000  0.5315740000000 1.0
C      1  0.4626650000000  0.4367760000000  0.4784770000000 1.0
C      1  0.4970550000000  0.5329100000000  0.5454930000000 1.0
C      1  0.4166300000000  0.5661900000000  0.4770160000000 1.0
C      1  0.5248670000000  0.5268150000000  0.5424380000000 1.0
C      1  0.4694370000000  0.4644920000000  0.5493310000000 1.0
C      1  0.5164320000000  0.5352890000000  0.4918990000000 1.0
C      1  0.5848000000000  0.5744290000000  0.4165960000000 1.0
C      1  0.5436830000000  0.5704280000000  0.5721500000000 1.0
C      1  0.5011470000000  0.5116040000000  0.4985140000000 1.0
C      1  0.4234790000000  0.5166670000000  0.4856880000000 1.0
C      1  0.5018950000000  0.3343730000000  0.4225510000000 1.0
C      1  0.4371480000000  0.4340800000000  0.4933930000000 1.0
C      1  0.5337360000000  0.5027710000000  0.5532570000000 1.0
C      1  0.4059290000000  0.4578610000000  0.5213900000000 1.0
C      1  0.4150150000000  0.4512470000000  0.4954480000000 1.0
C      1  0.4459180000000  0.5934490000000  0.4471940000000 1.0
C      1  0.5664920000000  0.4782580000000  0.4757000000000 1.0
C      1  0.4995270000000  0.4827160000000  0.5805750000000 1.0
C      1  0.4690390000000  0.5893030000000  0.4341030000000 1.0
C      1  0.5499900000000  0.5036010000000  0.4333110000000 1.0
C      1  0.4951320000000  0.3744280000000  0.4559160000000 1.0
C      1  0.4408340000000  0.4682590000000  0.5884700000000 1.0
C      1  0.4912580000000  0.3953770000000  0.4716860000000 1.0
C      1  0.5871850000000  0.4577120000000  0.4365500000000 1.0
C      1  0.5841600000000  0.4572470000000  0.4650970000000 1.0
C      1  0.4710020000000  0.4083650000000  0.5160710000000 1.0
C      1  0.4446960000000  0.4666320000000  0.3981710000000 1.0
C      1  0.4792430000000  0.4142150000000  0.4881510000000 1.0
C      1  0.5139990000000  0.4471960000000  0.4168680000000 1.0
C      1  0.4819120000000  0.5116670000000  0.4428890000000 1.0
C      1  0.4827760000000  0.4829100000000  0.4561530000000 1.0
C      1  0.5382560000000  0.5930980000000  0.5285240000000 1.0
C      1  0.4806260000000  0.4365160000000  0.5832690000000 1.0
C      1  0.5453060000000  0.4364250000000  0.5683210000000 1.0
C      1  0.6444710000000  0.4799340000000  0.3947170000000 1.0
C      1  0.5389690000000  0.4276160000000  0.4545250000000 1.0
C      1  0.4099600000000  0.4791980000000  0.5369970000000 1.0
C      1  0.5052640000000  0.5093220000000  0.6361650000000 1.0
C      1  0.4879360000000  0.4519850000000  0.4075520000000 1.0
C      1  0.5007240000000  0.5542420000000  0.4774690000000 1.0
C      1  0.4537910000000  0.5919280000000  0.4947000000000 1.0
C      1  0.4852770000000  0.4213290000000  0.5368020000000 1.0
C      1  0.4069950000000  0.4964260000000  0.4754590000000 1.0
C      1  0.4069440000000  0.4695450000000  0.4756640000000 1.0
C      1  0.4197280000000  0.5494440000000  0.5221390000000 1.0
C      1  0.4384720000000  0.5193880000000  0.5874990000000 1.0
C      1  0.4456520000000  0.5583070000000  0.5307400000000 1.0
C      1  0.4732670000000  0.6118390000000  0.4990590000000 1.0
C      1  0.5461280000000  0.4661670000000  0.4916010000000 1.0
C      1  0.5420550000000  0.5456390000000  0.5304610000000 1.0
C      1  0.4497980000000  0.5124480000000  0.5384740000000 1.0
C      1  0.5387250000000  0.4411560000000  0.4294420000000 1.0
C      1  0.4794520000000  0.5158920000000  0.6248320000000 1.0
C      1  0.4515950000000  0.5114280000000  0.4842470000000 1.0
C      1  0.5096070000000  0.4971370000000  0.6600590000000 1.0
C      1  0.5281370000000  0.5610830000000  0.5918350000000 1.0
C      1  0.4821970000000  0.5368070000000  0.6031540000000 1.0
C      1  0.4722460000000  0.4293700000000  0.3969160000000 1.0
C      1  0.5555930000000  0.4630800000000  0.5669890000000 1.0
C      1  0.4822300000000  0.4877140000000  0.5590690000000 1.0
C      1  0.4953950000000  0.5851560000000  0.5481260000000 1.0
C      1  0.4984330000000  0.3539750000000  0.4393850000000 1.0
C      1  0.5056920000000  0.5304680000000  0.3839690000000 1.0
C      1  0.4925560000000  0.5763600000000  0.4351420000000 1.0
C      1  0.5090360000000  0.4607310000000  0.5204570000000 1.0
C      1  0.5226580000000  0.4974840000000  0.5786860000000 1.0
C      1  0.5776000000000  0.5710110000000  0.4414170000000 1.0
C      1  0.5050540000000  0.5557220000000  0.4495720000000 1.0
C      1  0.5232110000000  0.6103840000000  0.4885060000000 1.0
C      1  0.5469600000000  0.4792420000000  0.5432490000000 1.0
C      1  0.4353080000000  0.5877730000000  0.4727380000000 1.0
C      1  0.4808480000000  0.4040090000000  0.3926540000000 1.0
C      1  0.5464520000000  0.4013990000000  0.4561850000000 1.0
C      1  0.4859500000000  0.4498290000000  0.5316650000000 1.0
C      1  0.4750540000000  0.5022010000000  0.4989370000000 1.0
C      1  0.5121660000000  0.5410990000000  0.6033200000000 1.0
C      1  0.5962820000000  0.5035620000000  0.4462300000000 1.0
C      1  0.4152830000000  0.5431550000000  0.4943450000000 1.0
END
