TITL C-599892-9790-28 0.894922060396903 125000 -514.104136565129 0 0 88 (C1) n - 1
REM
REM in /home/nfs/bkarasulu/CARBON/AIRSS/Generating-Clusters/TERSOFF/Only-C1/FIRE-HFTN
REM
REM
REM
REM
REM
REM ./C.cell (11c1c37f851c82e70ff6c80c92926a4b)
REM AIRSS Version 0.9.1 bugfix July 2018 build 013d7b7c2542+ Fri, 06 Jul 2018 19:26:36 +0100
REM compiler GCC version 9.2.1 20190827 (Red Hat 9.2.1-1)
REM options -cpp -mtune=generic -march=x86-64 -g -O0 -fpre-include=/usr/include/finclude/math-vector-fortran.h
REM seed -221266560 354675601 184614012 -1873277570 1597438861 2055407752 2113983436 -407510383 -1147218044 -531417577 286012853 -1921309135 -589587844 -1549084962 1802192749 2041137789 -868433575 58096228 794081387 677583042 -1808203508 1584908338 -313074515 639972562 -1786051924 1702189942 1766125263 567062602 -372120754 85989721 1639562189 953420638 369689781
REM
CELL 1.54180   50.00000   50.00000   50.00000   90.00000   90.00000   90.00000
LATT -1
SFAC C  
C      1  0.5186870000000  0.5164210000000  0.5310470000000 1.0
C      1  0.5461010000000  0.4470960000000  0.5455380000000 1.0
C      1  0.5276390000000  0.4254410000000  0.5416600000000 1.0
C      1  0.4089620000000  0.6319480000000  0.5007570000000 1.0
C      1  0.4741060000000  0.4605590000000  0.4918150000000 1.0
C      1  0.4213770000000  0.4243350000000  0.4628230000000 1.0
C      1  0.4805130000000  0.4423660000000  0.5749160000000 1.0
C      1  0.5439690000000  0.5282930000000  0.5372250000000 1.0
C      1  0.4790370000000  0.5053890000000  0.5044220000000 1.0
C      1  0.5145570000000  0.4807770000000  0.5557790000000 1.0
C      1  0.4867530000000  0.4835230000000  0.5507900000000 1.0
C      1  0.4231960000000  0.6148720000000  0.4871410000000 1.0
C      1  0.5670090000000  0.4934040000000  0.4833210000000 1.0
C      1  0.5165970000000  0.4242520000000  0.4270160000000 1.0
C      1  0.5852660000000  0.5566420000000  0.4816940000000 1.0
C      1  0.4183110000000  0.4996320000000  0.4690820000000 1.0
C      1  0.4267140000000  0.4656740000000  0.5019070000000 1.0
C      1  0.5019910000000  0.4956540000000  0.4629910000000 1.0
C      1  0.4973290000000  0.4452040000000  0.4965670000000 1.0
C      1  0.5000330000000  0.4202410000000  0.5351530000000 1.0
C      1  0.5221890000000  0.4872660000000  0.5107310000000 1.0
C      1  0.4797610000000  0.5745760000000  0.4652840000000 1.0
C      1  0.4670650000000  0.4461930000000  0.4236890000000 1.0
C      1  0.4209470000000  0.4718470000000  0.4744460000000 1.0
C      1  0.4211200000000  0.5337740000000  0.4008490000000 1.0
C      1  0.5070580000000  0.5688300000000  0.4662510000000 1.0
C      1  0.4909860000000  0.5936070000000  0.5339480000000 1.0
C      1  0.5750630000000  0.4661790000000  0.4820050000000 1.0
C      1  0.4391070000000  0.5055560000000  0.5263770000000 1.0
C      1  0.5575850000000  0.5198210000000  0.5609430000000 1.0
C      1  0.4954010000000  0.4193500000000  0.5072100000000 1.0
C      1  0.5752130000000  0.4472380000000  0.5035370000000 1.0
C      1  0.5297040000000  0.4106720000000  0.4071540000000 1.0
C      1  0.5628530000000  0.5147790000000  0.4399220000000 1.0
C      1  0.5674290000000  0.4580620000000  0.5288170000000 1.0
C      1  0.5685140000000  0.5785660000000  0.5212750000000 1.0
C      1  0.5449190000000  0.4091030000000  0.4637480000000 1.0
C      1  0.4679460000000  0.4976830000000  0.5298470000000 1.0
C      1  0.4333780000000  0.5269980000000  0.5080550000000 1.0
C      1  0.4238420000000  0.5223270000000  0.4829050000000 1.0
C      1  0.4962980000000  0.5267640000000  0.5477720000000 1.0
C      1  0.4767060000000  0.4300480000000  0.5493360000000 1.0
C      1  0.4310730000000  0.5502240000000  0.4184540000000 1.0
C      1  0.5442230000000  0.6080170000000  0.4598670000000 1.0
C      1  0.4574840000000  0.3938060000000  0.4823830000000 1.0
C      1  0.4526800000000  0.5094790000000  0.5738030000000 1.0
C      1  0.5359850000000  0.4653780000000  0.5650890000000 1.0
C      1  0.4413260000000  0.5656420000000  0.4374050000000 1.0
C      1  0.5443940000000  0.4653340000000  0.5910200000000 1.0
C      1  0.4529900000000  0.5791950000000  0.4588700000000 1.0
C      1  0.4201290000000  0.4845540000000  0.5220500000000 1.0
C      1  0.4653070000000  0.5901410000000  0.5394930000000 1.0
C      1  0.5774180000000  0.4199140000000  0.4984220000000 1.0
C      1  0.4441890000000  0.4547930000000  0.4343570000000 1.0
C      1  0.4361990000000  0.4593930000000  0.5559450000000 1.0
C      1  0.4160260000000  0.5777110000000  0.5529150000000 1.0
C      1  0.4750160000000  0.4700840000000  0.5743990000000 1.0
C      1  0.5506290000000  0.5078300000000  0.4642860000000 1.0
C      1  0.4259670000000  0.4512360000000  0.4554680000000 1.0
C      1  0.5212270000000  0.4611300000000  0.4929290000000 1.0
C      1  0.5225070000000  0.5157940000000  0.4673700000000 1.0
C      1  0.4379080000000  0.5973190000000  0.4738230000000 1.0
C      1  0.5736140000000  0.5215690000000  0.4171820000000 1.0
C      1  0.4479270000000  0.4801900000000  0.5733730000000 1.0
C      1  0.5268690000000  0.4551970000000  0.4640620000000 1.0
C      1  0.5624940000000  0.5304540000000  0.5155340000000 1.0
C      1  0.5428600000000  0.5888310000000  0.5253540000000 1.0
C      1  0.5751960000000  0.4991090000000  0.5574080000000 1.0
C      1  0.4740100000000  0.5252250000000  0.5644970000000 1.0
C      1  0.4513340000000  0.4525320000000  0.5082370000000 1.0
C      1  0.5724240000000  0.5044270000000  0.5090050000000 1.0
C      1  0.6116240000000  0.6024630000000  0.5432990000000 1.0
C      1  0.4347220000000  0.4029820000000  0.4718630000000 1.0
C      1  0.4530780000000  0.4432610000000  0.5362540000000 1.0
C      1  0.5257450000000  0.5891660000000  0.4621280000000 1.0
C      1  0.5129920000000  0.4743020000000  0.4481750000000 1.0
C      1  0.4813740000000  0.4879150000000  0.4824580000000 1.0
C      1  0.5640110000000  0.4039500000000  0.4816450000000 1.0
C      1  0.4403840000000  0.5842970000000  0.5463640000000 1.0
C      1  0.5720960000000  0.5550320000000  0.5056320000000 1.0
C      1  0.5156200000000  0.5426270000000  0.4706350000000 1.0
C      1  0.5633090000000  0.6257670000000  0.4593830000000 1.0
C      1  0.5756130000000  0.4859110000000  0.5320370000000 1.0
C      1  0.4904070000000  0.4334620000000  0.4226890000000 1.0
C      1  0.4807010000000  0.3993940000000  0.4943420000000 1.0
C      1  0.5298680000000  0.4294430000000  0.4518800000000 1.0
C      1  0.5171430000000  0.5934680000000  0.5297020000000 1.0
C      1  0.5906730000000  0.5910880000000  0.5327700000000 1.0
END
