TITL C-599896-8500-441 -4371.3140309599 125000 -1017.73769157088 0 0 167 (C1) n - 1
REM
REM in /home/nfs/bkarasulu/CARBON/AIRSS/Generating-Clusters/TERSOFF/Only-C1/FIRE-HFTN
REM
REM
REM
REM
REM
REM ./C.cell (11c1c37f851c82e70ff6c80c92926a4b)
REM AIRSS Version 0.9.1 bugfix July 2018 build 013d7b7c2542+ Fri, 06 Jul 2018 19:26:36 +0100
REM compiler GCC version 9.2.1 20190827 (Red Hat 9.2.1-1)
REM options -cpp -mtune=generic -march=x86-64 -g -O0 -fpre-include=/usr/include/finclude/math-vector-fortran.h
REM seed -359113440 -501746258 -1088036550 1270020978 -1807909195 1995049018 399422633 1107673966 -1415255838 1427734752 1378262849 1582492334 -964885143 989478050 -2067621915 -1431453500 -333250896 -1788820658 2093173803 1817591971 -2046483033 1814179590 -1003495008 -1153888806 1553648659 480016985 1217503048 706133349 489356523 -425177571 708931654 1772199615 265580623
REM
CELL 1.54180   50.00000   50.00000   50.00000   90.00000   90.00000   90.00000
LATT -1
SFAC C  
C      1  0.4665690000000  0.4588540000000  0.5787390000000 1.0
C      1  0.6115610000000  0.5348180000000  0.5992090000000 1.0
C      1  0.5860180000000  0.5897300000000  0.5062140000000 1.0
C      1  0.4956740000000  0.5027320000000  0.4715170000000 1.0
C      1  0.4894760000000  0.5912270000000  0.6085870000000 1.0
C      1  0.4061790000000  0.5012580000000  0.4689620000000 1.0
C      1  0.5316990000000  0.4411910000000  0.5524430000000 1.0
C      1  0.5252300000000  0.5679410000000  0.4977610000000 1.0
C      1  0.4808670000000  0.5494670000000  0.4841350000000 1.0
C      1  0.4873830000000  0.4368110000000  0.5211480000000 1.0
C      1  0.5651880000000  0.4771260000000  0.4624360000000 1.0
C      1  0.4918210000000  0.5296660000000  0.3387210000000 1.0
C      1  0.5325380000000  0.4972510000000  0.4255710000000 1.0
C      1  0.4151550000000  0.4246240000000  0.4360100000000 1.0
C      1  0.5083640000000  0.4430620000000  0.4490490000000 1.0
C      1  0.4343220000000  0.5783100000000  0.5806800000000 1.0
C      1  0.5489940000000  0.4184850000000  0.4490970000000 1.0
C      1  0.5779130000000  0.5636250000000  0.5786390000000 1.0
C      1  0.4316430000000  0.6520670000000  0.4651440000000 1.0
C      1  0.4170700000000  0.5356640000000  0.5491600000000 1.0
C      1  0.5604350000000  0.4521750000000  0.6018360000000 1.0
C      1  0.5325290000000  0.4452730000000  0.6027050000000 1.0
C      1  0.4740560000000  0.5566250000000  0.5467930000000 1.0
C      1  0.5510850000000  0.4417630000000  0.4024000000000 1.0
C      1  0.4296100000000  0.5594950000000  0.5085120000000 1.0
C      1  0.4352600000000  0.4613780000000  0.4120340000000 1.0
C      1  0.4738240000000  0.5677740000000  0.6100350000000 1.0
C      1  0.5329590000000  0.5689700000000  0.6110590000000 1.0
C      1  0.5479340000000  0.5673980000000  0.5422310000000 1.0
C      1  0.4572990000000  0.4797590000000  0.4495880000000 1.0
C      1  0.5823590000000  0.5291990000000  0.4223170000000 1.0
C      1  0.3942130000000  0.4550090000000  0.5055690000000 1.0
C      1  0.4589300000000  0.5253490000000  0.3748270000000 1.0
C      1  0.5229220000000  0.4330520000000  0.5786180000000 1.0
C      1  0.5124070000000  0.3999760000000  0.4761480000000 1.0
C      1  0.4670840000000  0.4207290000000  0.5327430000000 1.0
C      1  0.5853960000000  0.4445890000000  0.4334330000000 1.0
C      1  0.5430600000000  0.3732780000000  0.4545240000000 1.0
C      1  0.5236180000000  0.4237090000000  0.4621550000000 1.0
C      1  0.4563630000000  0.3667310000000  0.5072760000000 1.0
C      1  0.4857290000000  0.5239930000000  0.3653070000000 1.0
C      1  0.4093710000000  0.4875400000000  0.4460700000000 1.0
C      1  0.5883350000000  0.4627290000000  0.4543520000000 1.0
C      1  0.4442410000000  0.6473280000000  0.5131150000000 1.0
C      1  0.4708850000000  0.6020440000000  0.5165940000000 1.0
C      1  0.5199960000000  0.4883980000000  0.4714460000000 1.0
C      1  0.5423540000000  0.5191380000000  0.5328460000000 1.0
C      1  0.4509210000000  0.4957100000000  0.4931160000000 1.0
C      1  0.5922840000000  0.5231300000000  0.5562550000000 1.0
C      1  0.5785010000000  0.4020670000000  0.4830250000000 1.0
C      1  0.4558510000000  0.5221840000000  0.4215560000000 1.0
C      1  0.4970420000000  0.5355220000000  0.3134150000000 1.0
C      1  0.4975330000000  0.4775240000000  0.6285700000000 1.0
C      1  0.5094390000000  0.3918110000000  0.5289510000000 1.0
C      1  0.6056130000000  0.4630470000000  0.5203690000000 1.0
C      1  0.4425210000000  0.4645520000000  0.5619030000000 1.0
C      1  0.4526960000000  0.5083520000000  0.3968480000000 1.0
C      1  0.3956870000000  0.4706760000000  0.5275730000000 1.0
C      1  0.5192720000000  0.5079330000000  0.4050040000000 1.0
C      1  0.5587460000000  0.4642260000000  0.3893440000000 1.0
C      1  0.5944150000000  0.5402180000000  0.5786620000000 1.0
C      1  0.4622680000000  0.5432730000000  0.4368630000000 1.0
C      1  0.4759700000000  0.4319580000000  0.5818920000000 1.0
C      1  0.5027970000000  0.3884810000000  0.5011040000000 1.0
C      1  0.3959580000000  0.5179020000000  0.5432270000000 1.0
C      1  0.4219420000000  0.5603350000000  0.5362990000000 1.0
C      1  0.4121000000000  0.5850120000000  0.3647840000000 1.0
C      1  0.5609540000000  0.4320580000000  0.4270270000000 1.0
C      1  0.4656650000000  0.5290570000000  0.5484030000000 1.0
C      1  0.4797830000000  0.5951990000000  0.4901740000000 1.0
C      1  0.5059180000000  0.5164960000000  0.3835620000000 1.0
C      1  0.4250470000000  0.5810630000000  0.5553670000000 1.0
C      1  0.5852340000000  0.4216790000000  0.5029530000000 1.0
C      1  0.4327910000000  0.4753070000000  0.4367900000000 1.0
C      1  0.4526420000000  0.4678660000000  0.5336930000000 1.0
C      1  0.4987120000000  0.5734960000000  0.4914930000000 1.0
C      1  0.4824570000000  0.4810020000000  0.5856970000000 1.0
C      1  0.5168100000000  0.5466880000000  0.6201340000000 1.0
C      1  0.5166730000000  0.5922920000000  0.6084250000000 1.0
C      1  0.6250680000000  0.5465890000000  0.5155480000000 1.0
C      1  0.5801920000000  0.5098630000000  0.4038750000000 1.0
C      1  0.4884880000000  0.5431630000000  0.6174720000000 1.0
C      1  0.4236200000000  0.4416940000000  0.5641690000000 1.0
C      1  0.4763150000000  0.5103190000000  0.5301370000000 1.0
C      1  0.4277390000000  0.4909310000000  0.5639850000000 1.0
C      1  0.4409760000000  0.3808620000000  0.5240360000000 1.0
C      1  0.5976920000000  0.4294290000000  0.6332890000000 1.0
C      1  0.4582440000000  0.6263610000000  0.5217530000000 1.0
C      1  0.5865960000000  0.5076630000000  0.5330310000000 1.0
C      1  0.5663400000000  0.4722560000000  0.5822950000000 1.0
C      1  0.5801830000000  0.5448280000000  0.4439560000000 1.0
C      1  0.5892960000000  0.4792100000000  0.5367920000000 1.0
C      1  0.4994440000000  0.4169520000000  0.5757260000000 1.0
C      1  0.5259600000000  0.5340250000000  0.5729220000000 1.0
C      1  0.4245620000000  0.5041260000000  0.4882660000000 1.0
C      1  0.5825900000000  0.5788260000000  0.4816690000000 1.0
C      1  0.5143210000000  0.3793160000000  0.4543750000000 1.0
C      1  0.4405910000000  0.4211850000000  0.4748910000000 1.0
C      1  0.5715500000000  0.4878080000000  0.3912460000000 1.0
C      1  0.5796080000000  0.4404910000000  0.6181330000000 1.0
C      1  0.4647270000000  0.4314720000000  0.4779220000000 1.0
C      1  0.5268570000000  0.5067880000000  0.5799110000000 1.0
C      1  0.4494420000000  0.5606540000000  0.5965510000000 1.0
C      1  0.5588320000000  0.5679130000000  0.5994730000000 1.0
C      1  0.4153210000000  0.4272450000000  0.4644680000000 1.0
C      1  0.4715180000000  0.5201720000000  0.6105300000000 1.0
C      1  0.4810540000000  0.3703630000000  0.4975980000000 1.0
C      1  0.5591860000000  0.4762430000000  0.4908960000000 1.0
C      1  0.4143070000000  0.5648820000000  0.4087660000000 1.0
C      1  0.5331170000000  0.4852020000000  0.4977450000000 1.0
C      1  0.6237000000000  0.5161830000000  0.4774740000000 1.0
C      1  0.4061210000000  0.5677150000000  0.4612400000000 1.0
C      1  0.5399860000000  0.4869050000000  0.4504270000000 1.0
C      1  0.4403750000000  0.5206410000000  0.5655770000000 1.0
C      1  0.4075120000000  0.5666680000000  0.4345530000000 1.0
C      1  0.5697200000000  0.4240170000000  0.5265970000000 1.0
C      1  0.4489010000000  0.5310380000000  0.5935350000000 1.0
C      1  0.5518850000000  0.4959570000000  0.5861230000000 1.0
C      1  0.5839820000000  0.5219490000000  0.5068660000000 1.0
C      1  0.4711380000000  0.3941210000000  0.4249400000000 1.0
C      1  0.4816650000000  0.4369310000000  0.4077150000000 1.0
C      1  0.4435910000000  0.4054870000000  0.5370090000000 1.0
C      1  0.4551420000000  0.5492220000000  0.5007010000000 1.0
C      1  0.4241030000000  0.4170940000000  0.5534100000000 1.0
C      1  0.3983450000000  0.4408550000000  0.4828520000000 1.0
C      1  0.4997820000000  0.5143940000000  0.5156350000000 1.0
C      1  0.4022480000000  0.6032840000000  0.3490270000000 1.0
C      1  0.5754920000000  0.5538520000000  0.4701800000000 1.0
C      1  0.4398500000000  0.6323310000000  0.4490770000000 1.0
C      1  0.5333840000000  0.5419390000000  0.4899700000000 1.0
C      1  0.5624320000000  0.5357800000000  0.4894190000000 1.0
C      1  0.4828930000000  0.4419750000000  0.4941760000000 1.0
C      1  0.5054010000000  0.4901420000000  0.5726550000000 1.0
C      1  0.4030890000000  0.4905040000000  0.5465850000000 1.0
C      1  0.4665390000000  0.5897520000000  0.4641290000000 1.0
C      1  0.5111420000000  0.4449250000000  0.5335120000000 1.0
C      1  0.5366700000000  0.5799510000000  0.5201140000000 1.0
C      1  0.5252210000000  0.5021470000000  0.5189870000000 1.0
C      1  0.5734770000000  0.5746980000000  0.5523410000000 1.0
C      1  0.4531770000000  0.6092430000000  0.4494330000000 1.0
C      1  0.4983800000000  0.4487050000000  0.4249650000000 1.0
C      1  0.4414990000000  0.5471720000000  0.3715950000000 1.0
C      1  0.5383290000000  0.5417270000000  0.5491760000000 1.0
C      1  0.6180290000000  0.5667650000000  0.5319990000000 1.0
C      1  0.5588220000000  0.4421890000000  0.5451610000000 1.0
C      1  0.6071820000000  0.4550860000000  0.4736790000000 1.0
C      1  0.4227000000000  0.5655360000000  0.3818220000000 1.0
C      1  0.4349870000000  0.4324940000000  0.4166010000000 1.0
C      1  0.4445220000000  0.4810550000000  0.3934350000000 1.0
C      1  0.4124180000000  0.5663860000000  0.4872200000000 1.0
C      1  0.4802740000000  0.4930730000000  0.6116680000000 1.0
C      1  0.5027080000000  0.3968840000000  0.5550460000000 1.0
C      1  0.6115580000000  0.5282680000000  0.4987350000000 1.0
C      1  0.5021320000000  0.5413640000000  0.2885220000000 1.0
C      1  0.6030240000000  0.4443440000000  0.4992210000000 1.0
C      1  0.4607360000000  0.4188440000000  0.4142290000000 1.0
C      1  0.5733240000000  0.4646910000000  0.5555930000000 1.0
C      1  0.4747610000000  0.5818280000000  0.5367540000000 1.0
C      1  0.5934490000000  0.5808650000000  0.5323640000000 1.0
C      1  0.4921490000000  0.3806380000000  0.4361940000000 1.0
C      1  0.4693870000000  0.5609070000000  0.4573310000000 1.0
C      1  0.4334440000000  0.6581040000000  0.4911630000000 1.0
C      1  0.4596470000000  0.4904460000000  0.5190980000000 1.0
C      1  0.5156740000000  0.4581800000000  0.6219310000000 1.0
C      1  0.4690780000000  0.4924360000000  0.4711740000000 1.0
C      1  0.5615610000000  0.3951770000000  0.4610680000000 1.0
C      1  0.4993690000000  0.5268860000000  0.4883370000000 1.0
END
