TITL C-599890-3321-1395 -0.0169726555314735 125000 -292.536563387821 0 0 49 (C1) n - 1
REM
REM in /home/nfs/bkarasulu/CARBON/AIRSS/Generating-Clusters/TERSOFF/Only-C1/FIRE-HFTN
REM
REM
REM
REM
REM
REM ./C.cell (11c1c37f851c82e70ff6c80c92926a4b)
REM AIRSS Version 0.9.1 bugfix July 2018 build 013d7b7c2542+ Fri, 06 Jul 2018 19:26:36 +0100
REM compiler GCC version 9.2.1 20190827 (Red Hat 9.2.1-1)
REM options -cpp -mtune=generic -march=x86-64 -g -O0 -fpre-include=/usr/include/finclude/math-vector-fortran.h
REM seed 524721942 358733867 2056911577 -1423521637 1090604262 1606570437 1354502370 276527412 1961422932 -1180129019 -304328926 1425714948 1825962809 -2081190705 298802240 -1327319068 -669944368 -1365832479 1478971058 761106517 224397991 31248793 -1443217239 -1315079402 -1911283581 -1565926462 966074440 -2026483606 -1657361670 602013157 -1841115001 376539185 -994219387
REM
CELL 1.54180   50.00000   50.00000   50.00000   90.00000   90.00000   90.00000
LATT -1
SFAC C  
C      1  0.4372900000000  0.4226140000000  0.5028900000000 1.0
C      1  0.5277370000000  0.5933980000000  0.5658530000000 1.0
C      1  0.4738640000000  0.5085890000000  0.5233420000000 1.0
C      1  0.4385700000000  0.4342570000000  0.4451820000000 1.0
C      1  0.5594930000000  0.5472290000000  0.5457360000000 1.0
C      1  0.5265220000000  0.5803390000000  0.5893120000000 1.0
C      1  0.5511860000000  0.5356530000000  0.4797260000000 1.0
C      1  0.3898040000000  0.5154940000000  0.4253170000000 1.0
C      1  0.4599810000000  0.4167030000000  0.4865620000000 1.0
C      1  0.4872550000000  0.4481760000000  0.5160110000000 1.0
C      1  0.5685300000000  0.5454700000000  0.5001630000000 1.0
C      1  0.4576840000000  0.4865070000000  0.5153890000000 1.0
C      1  0.4649600000000  0.4614460000000  0.5280590000000 1.0
C      1  0.5319160000000  0.5307560000000  0.5987970000000 1.0
C      1  0.5278720000000  0.5572520000000  0.6031520000000 1.0
C      1  0.5549390000000  0.5005790000000  0.5612030000000 1.0
C      1  0.4534480000000  0.4161630000000  0.4587990000000 1.0
C      1  0.5043290000000  0.4697590000000  0.5045910000000 1.0
C      1  0.5123450000000  0.5256800000000  0.4398710000000 1.0
C      1  0.4507740000000  0.4828420000000  0.4872430000000 1.0
C      1  0.5377870000000  0.5163870000000  0.4368090000000 1.0
C      1  0.5186230000000  0.4908440000000  0.5159680000000 1.0
C      1  0.3951070000000  0.4896340000000  0.4180490000000 1.0
C      1  0.4288240000000  0.4656030000000  0.4803540000000 1.0
C      1  0.5564570000000  0.5211110000000  0.4560720000000 1.0
C      1  0.5472600000000  0.4874950000000  0.5151120000000 1.0
C      1  0.5304270000000  0.4332540000000  0.4707860000000 1.0
C      1  0.5232750000000  0.5446220000000  0.4836680000000 1.0
C      1  0.5572810000000  0.4669390000000  0.4984530000000 1.0
C      1  0.4851730000000  0.4278980000000  0.4939880000000 1.0
C      1  0.5360300000000  0.5790730000000  0.5157640000000 1.0
C      1  0.5020330000000  0.5129090000000  0.5247610000000 1.0
C      1  0.5184800000000  0.5565430000000  0.5093980000000 1.0
C      1  0.5625570000000  0.5737730000000  0.5053940000000 1.0
C      1  0.5027650000000  0.4390610000000  0.4723570000000 1.0
C      1  0.5325730000000  0.5392790000000  0.5525960000000 1.0
C      1  0.4099930000000  0.4732440000000  0.4351490000000 1.0
C      1  0.5708000000000  0.5305410000000  0.5248470000000 1.0
C      1  0.5053990000000  0.5393670000000  0.4623770000000 1.0
C      1  0.5512120000000  0.4463200000000  0.4822260000000 1.0
C      1  0.5311090000000  0.5940300000000  0.5391800000000 1.0
C      1  0.5138750000000  0.5379300000000  0.5310710000000 1.0
C      1  0.4737330000000  0.4817670000000  0.4697550000000 1.0
C      1  0.4223310000000  0.4451190000000  0.4992240000000 1.0
C      1  0.5366550000000  0.5194010000000  0.5735150000000 1.0
C      1  0.3860120000000  0.4796360000000  0.3942380000000 1.0
C      1  0.5628280000000  0.5032170000000  0.5329090000000 1.0
C      1  0.4252520000000  0.4581770000000  0.4527660000000 1.0
C      1  0.4976520000000  0.4679250000000  0.4760160000000 1.0
END
