TITL C-599893-4344-150 0.00011695560260477 125000 -486.395221506167 0 0 80 (C1) n - 1
REM
REM in /home/nfs/bkarasulu/CARBON/AIRSS/Generating-Clusters/TERSOFF/Only-C1/FIRE-HFTN
REM
REM
REM
REM
REM
REM ./C.cell (11c1c37f851c82e70ff6c80c92926a4b)
REM AIRSS Version 0.9.1 bugfix July 2018 build 013d7b7c2542+ Fri, 06 Jul 2018 19:26:36 +0100
REM compiler GCC version 9.2.1 20190827 (Red Hat 9.2.1-1)
REM options -cpp -mtune=generic -march=x86-64 -g -O0 -fpre-include=/usr/include/finclude/math-vector-fortran.h
REM seed -1401016891 1357483754 -1329976347 -1659819978 -1543596078 1251743979 363428496 -1091009033 2011854733 -2142824200 -1967042805 683379447 -1028678212 -844814197 -583184094 -804803996 20630205 1869435182 413703027 -1198160187 233779243 -507559614 -1652996159 -2065685542 1120040770 1070903485 -1625553425 -1290348987 645266530 -922966389 1013592421 505408882 -1946557534
REM
CELL 1.54180   50.00000   50.00000   50.00000   90.00000   90.00000   90.00000
LATT -1
SFAC C  
C      1  0.4223660000000  0.4903990000000  0.4981460000000 1.0
C      1  0.4441540000000  0.4781340000000  0.5639600000000 1.0
C      1  0.5139010000000  0.5770190000000  0.5226080000000 1.0
C      1  0.4443800000000  0.5514320000000  0.5405860000000 1.0
C      1  0.4720270000000  0.4726440000000  0.5616640000000 1.0
C      1  0.4869360000000  0.4952840000000  0.5683530000000 1.0
C      1  0.4502180000000  0.5573930000000  0.4791860000000 1.0
C      1  0.4795540000000  0.4808770000000  0.4928710000000 1.0
C      1  0.4361550000000  0.5005050000000  0.5475170000000 1.0
C      1  0.4715590000000  0.5429360000000  0.4669930000000 1.0
C      1  0.5519000000000  0.5294570000000  0.4833120000000 1.0
C      1  0.5552460000000  0.4278720000000  0.4592740000000 1.0
C      1  0.6090430000000  0.4879230000000  0.5667640000000 1.0
C      1  0.4816960000000  0.4541030000000  0.5427100000000 1.0
C      1  0.5716310000000  0.4294150000000  0.5061270000000 1.0
C      1  0.4165090000000  0.5565320000000  0.5422680000000 1.0
C      1  0.5031420000000  0.4136380000000  0.5020920000000 1.0
C      1  0.5095380000000  0.4515190000000  0.5348270000000 1.0
C      1  0.5155110000000  0.4731880000000  0.4594430000000 1.0
C      1  0.5336430000000  0.5805480000000  0.4804660000000 1.0
C      1  0.5858460000000  0.4631380000000  0.4769260000000 1.0
C      1  0.4437340000000  0.4480620000000  0.4791360000000 1.0
C      1  0.4536020000000  0.4722700000000  0.4380580000000 1.0
C      1  0.6157730000000  0.4449380000000  0.5894760000000 1.0
C      1  0.5278530000000  0.4860580000000  0.5017240000000 1.0
C      1  0.4388490000000  0.5123290000000  0.4907670000000 1.0
C      1  0.5871520000000  0.4283370000000  0.5527810000000 1.0
C      1  0.5112780000000  0.5919730000000  0.4980470000000 1.0
C      1  0.4186800000000  0.4925030000000  0.5261840000000 1.0
C      1  0.4583280000000  0.4334230000000  0.4992810000000 1.0
C      1  0.5221350000000  0.5509780000000  0.5136100000000 1.0
C      1  0.4867520000000  0.5675810000000  0.4313960000000 1.0
C      1  0.5384220000000  0.4981520000000  0.4268800000000 1.0
C      1  0.5019220000000  0.5331000000000  0.5063680000000 1.0
C      1  0.4858080000000  0.5898250000000  0.4833830000000 1.0
C      1  0.5248960000000  0.5851870000000  0.4535160000000 1.0
C      1  0.4942110000000  0.5851970000000  0.4549590000000 1.0
C      1  0.5368640000000  0.4918510000000  0.4541230000000 1.0
C      1  0.4797280000000  0.5219360000000  0.5616100000000 1.0
C      1  0.5714750000000  0.4386930000000  0.4792380000000 1.0
C      1  0.4809500000000  0.4203200000000  0.4861200000000 1.0
C      1  0.5891390000000  0.4900190000000  0.5469540000000 1.0
C      1  0.4821940000000  0.4290780000000  0.4583280000000 1.0
C      1  0.4696300000000  0.4912430000000  0.4234250000000 1.0
C      1  0.4664010000000  0.5195430000000  0.4261950000000 1.0
C      1  0.5057310000000  0.4751340000000  0.4856160000000 1.0
C      1  0.6194540000000  0.4711700000000  0.5848820000000 1.0
C      1  0.5695130000000  0.5099050000000  0.5500270000000 1.0
C      1  0.5931840000000  0.4776490000000  0.4987620000000 1.0
C      1  0.5509990000000  0.5266660000000  0.5593620000000 1.0
C      1  0.5192600000000  0.4917990000000  0.4087780000000 1.0
C      1  0.5277960000000  0.5384440000000  0.5653780000000 1.0
C      1  0.5009890000000  0.5399630000000  0.5648490000000 1.0
C      1  0.4278560000000  0.4796950000000  0.4503170000000 1.0
C      1  0.4741890000000  0.5433390000000  0.4391840000000 1.0
C      1  0.5262670000000  0.4738450000000  0.5273800000000 1.0
C      1  0.5093650000000  0.5685370000000  0.4134090000000 1.0
C      1  0.4588430000000  0.5702320000000  0.5240390000000 1.0
C      1  0.5324120000000  0.4227610000000  0.4464020000000 1.0
C      1  0.4932800000000  0.4844770000000  0.4093180000000 1.0
C      1  0.5883290000000  0.4706630000000  0.5259720000000 1.0
C      1  0.5057430000000  0.4237620000000  0.4442270000000 1.0
C      1  0.5416410000000  0.5543040000000  0.4918470000000 1.0
C      1  0.4625280000000  0.5771670000000  0.4962650000000 1.0
C      1  0.4837630000000  0.5266230000000  0.4862550000000 1.0
C      1  0.4049940000000  0.5481110000000  0.4973090000000 1.0
C      1  0.4532080000000  0.5253160000000  0.5497660000000 1.0
C      1  0.5812480000000  0.4426160000000  0.5294940000000 1.0
C      1  0.6011250000000  0.4272320000000  0.5755530000000 1.0
C      1  0.3702080000000  0.5626400000000  0.5282330000000 1.0
C      1  0.3960580000000  0.5560810000000  0.5228380000000 1.0
C      1  0.4665000000000  0.5052570000000  0.4916080000000 1.0
C      1  0.4625110000000  0.4410670000000  0.5260220000000 1.0
C      1  0.5153480000000  0.4265280000000  0.5224530000000 1.0
C      1  0.4294800000000  0.5393560000000  0.4869390000000 1.0
C      1  0.4245140000000  0.4699600000000  0.4782090000000 1.0
C      1  0.5316810000000  0.5780040000000  0.4266430000000 1.0
C      1  0.5432630000000  0.5024400000000  0.4811000000000 1.0
C      1  0.4271470000000  0.4644370000000  0.5802220000000 1.0
C      1  0.4608440000000  0.4482700000000  0.4536880000000 1.0
END
