TITL C-599892-9790-1008 1.00562289039307 125000 -425.573698878256 0 0 71 (C1) n - 1
REM
REM in /home/nfs/bkarasulu/CARBON/AIRSS/Generating-Clusters/TERSOFF/Only-C1/FIRE-HFTN
REM
REM
REM
REM
REM
REM ./C.cell (11c1c37f851c82e70ff6c80c92926a4b)
REM AIRSS Version 0.9.1 bugfix July 2018 build 013d7b7c2542+ Fri, 06 Jul 2018 19:26:36 +0100
REM compiler GCC version 9.2.1 20190827 (Red Hat 9.2.1-1)
REM options -cpp -mtune=generic -march=x86-64 -g -O0 -fpre-include=/usr/include/finclude/math-vector-fortran.h
REM seed 1189111242 164919797 1589676867 977270451 693783569 -131278083 -403337163 -1197417431 374285214 -759485766 1987972031 1896447087 -1471104888 468376007 1974524518 -1160438034 -1964357634 1977157363 1357651964 708107960 -42533873 1981649280 -1512406678 2089972802 -920456661 596664809 -537307462 1439578439 1704274933 -1183879550 -1524413315 -110904406 958121239
REM
CELL 1.54180   50.00000   50.00000   50.00000   90.00000   90.00000   90.00000
LATT -1
SFAC C  
C      1  0.4966480000000  0.5556250000000  0.5026760000000 1.0
C      1  0.4701380000000  0.5085310000000  0.4395510000000 1.0
C      1  0.5522520000000  0.4947320000000  0.4067150000000 1.0
C      1  0.5724120000000  0.5567910000000  0.5320110000000 1.0
C      1  0.5601090000000  0.5081000000000  0.4301330000000 1.0
C      1  0.5051090000000  0.4281820000000  0.5349690000000 1.0
C      1  0.4861030000000  0.5056810000000  0.5032410000000 1.0
C      1  0.4652930000000  0.5619340000000  0.5388040000000 1.0
C      1  0.4938070000000  0.6335090000000  0.5634120000000 1.0
C      1  0.4448180000000  0.4507530000000  0.4605910000000 1.0
C      1  0.5163730000000  0.5409600000000  0.5861840000000 1.0
C      1  0.4544310000000  0.4414010000000  0.5359650000000 1.0
C      1  0.5156940000000  0.5248460000000  0.4402780000000 1.0
C      1  0.4826370000000  0.4782690000000  0.4032180000000 1.0
C      1  0.5238780000000  0.4489680000000  0.5322130000000 1.0
C      1  0.4999570000000  0.6138470000000  0.5474520000000 1.0
C      1  0.5859170000000  0.5159930000000  0.4342390000000 1.0
C      1  0.3976900000000  0.5343270000000  0.5156350000000 1.0
C      1  0.4756730000000  0.5495320000000  0.5618580000000 1.0
C      1  0.4344140000000  0.4828320000000  0.5231510000000 1.0
C      1  0.3717920000000  0.5360500000000  0.5132940000000 1.0
C      1  0.4526010000000  0.4632720000000  0.4384810000000 1.0
C      1  0.4384210000000  0.5076730000000  0.5102130000000 1.0
C      1  0.4458350000000  0.4329920000000  0.6101300000000 1.0
C      1  0.4782380000000  0.4266080000000  0.5355410000000 1.0
C      1  0.5115620000000  0.4293660000000  0.4408730000000 1.0
C      1  0.4671860000000  0.4836060000000  0.4259420000000 1.0
C      1  0.5501800000000  0.4991700000000  0.5562800000000 1.0
C      1  0.4425330000000  0.4484150000000  0.4869360000000 1.0
C      1  0.4319380000000  0.4786070000000  0.5516990000000 1.0
C      1  0.4439500000000  0.4566800000000  0.5133790000000 1.0
C      1  0.5470130000000  0.4589320000000  0.4626650000000 1.0
C      1  0.5125050000000  0.4749600000000  0.5339770000000 1.0
C      1  0.5810490000000  0.5328980000000  0.5405130000000 1.0
C      1  0.4580520000000  0.5124700000000  0.4645360000000 1.0
C      1  0.4604590000000  0.5097350000000  0.4921710000000 1.0
C      1  0.5178090000000  0.5675180000000  0.4882490000000 1.0
C      1  0.5064860000000  0.4779070000000  0.3913950000000 1.0
C      1  0.5700010000000  0.4282370000000  0.4289540000000 1.0
C      1  0.5242440000000  0.4134690000000  0.4230520000000 1.0
C      1  0.4858220000000  0.5730090000000  0.5226310000000 1.0
C      1  0.5682390000000  0.4473730000000  0.4478940000000 1.0
C      1  0.5421800000000  0.5531970000000  0.4933500000000 1.0
C      1  0.4490600000000  0.4123230000000  0.6583650000000 1.0
C      1  0.5396410000000  0.5133740000000  0.4492520000000 1.0
C      1  0.5236860000000  0.4975450000000  0.5471200000000 1.0
C      1  0.5507630000000  0.4129820000000  0.4176170000000 1.0
C      1  0.5524730000000  0.5684360000000  0.5164600000000 1.0
C      1  0.5324270000000  0.4837760000000  0.3927090000000 1.0
C      1  0.4894910000000  0.5274780000000  0.4308640000000 1.0
C      1  0.5053920000000  0.5271890000000  0.5110150000000 1.0
C      1  0.5316930000000  0.5867330000000  0.5211950000000 1.0
C      1  0.4443080000000  0.4433390000000  0.5857960000000 1.0
C      1  0.5512990000000  0.4790520000000  0.4822470000000 1.0
C      1  0.5495240000000  0.4490320000000  0.5204940000000 1.0
C      1  0.5212400000000  0.4484780000000  0.4572720000000 1.0
C      1  0.5420600000000  0.5056480000000  0.4768560000000 1.0
C      1  0.5059190000000  0.5921960000000  0.5311210000000 1.0
C      1  0.4824210000000  0.5480540000000  0.4134420000000 1.0
C      1  0.4756630000000  0.5669240000000  0.3967880000000 1.0
C      1  0.5104530000000  0.5226010000000  0.5413880000000 1.0
C      1  0.5010370000000  0.5375080000000  0.5638260000000 1.0
C      1  0.4474600000000  0.4225720000000  0.6344480000000 1.0
C      1  0.4409260000000  0.5528400000000  0.5284370000000 1.0
C      1  0.5799180000000  0.4873060000000  0.5215540000000 1.0
C      1  0.5627280000000  0.4703850000000  0.5069360000000 1.0
C      1  0.4253310000000  0.5317440000000  0.5181810000000 1.0
C      1  0.4435850000000  0.4536040000000  0.5601810000000 1.0
C      1  0.4930560000000  0.4809260000000  0.5144760000000 1.0
C      1  0.5334060000000  0.5251230000000  0.4956610000000 1.0
C      1  0.5735870000000  0.5058750000000  0.5418470000000 1.0
END
