TITL C-599892-9790-913 -0.066765416805641 125000 -862.77909116884 0 0 141 (C1) n - 1
REM
REM in /home/nfs/bkarasulu/CARBON/AIRSS/Generating-Clusters/TERSOFF/Only-C1/FIRE-HFTN
REM
REM
REM
REM
REM
REM ./C.cell (11c1c37f851c82e70ff6c80c92926a4b)
REM AIRSS Version 0.9.1 bugfix July 2018 build 013d7b7c2542+ Fri, 06 Jul 2018 19:26:36 +0100
REM compiler GCC version 9.2.1 20190827 (Red Hat 9.2.1-1)
REM options -cpp -mtune=generic -march=x86-64 -g -O0 -fpre-include=/usr/include/finclude/math-vector-fortran.h
REM seed -1215327369 -74094821 -1609058581 -69399664 267603254 996235612 -609985104 672164337 -1598104248 2006122378 910641875 -1673071352 -826999041 782718113 -888706205 600844487 155577543 -503416578 580342444 1818625890 -1237202101 403895582 1834511451 -737901029 -1416835495 -1822711294 -473453308 -69686623 -1265551630 621910495 592833091 -960077243 1813093549
REM
CELL 1.54180   50.00000   50.00000   50.00000   90.00000   90.00000   90.00000
LATT -1
SFAC C  
C      1  0.4088600000000  0.4431740000000  0.4594920000000 1.0
C      1  0.5140240000000  0.5347720000000  0.4832050000000 1.0
C      1  0.5383560000000  0.5583040000000  0.4257160000000 1.0
C      1  0.5000600000000  0.4296500000000  0.5102800000000 1.0
C      1  0.5547260000000  0.5250570000000  0.6108140000000 1.0
C      1  0.4907470000000  0.4816180000000  0.4181950000000 1.0
C      1  0.4866000000000  0.5240300000000  0.3991610000000 1.0
C      1  0.5838460000000  0.5338410000000  0.4809000000000 1.0
C      1  0.4129810000000  0.5196790000000  0.5732240000000 1.0
C      1  0.5007160000000  0.4890980000000  0.4694930000000 1.0
C      1  0.4288540000000  0.4092250000000  0.4063040000000 1.0
C      1  0.5471540000000  0.4377740000000  0.4084990000000 1.0
C      1  0.5407610000000  0.4012690000000  0.5302430000000 1.0
C      1  0.5078850000000  0.4453220000000  0.6040160000000 1.0
C      1  0.4531850000000  0.6301300000000  0.5012620000000 1.0
C      1  0.4313620000000  0.4583850000000  0.4014270000000 1.0
C      1  0.4820130000000  0.6022400000000  0.5352210000000 1.0
C      1  0.5198050000000  0.4393670000000  0.4932740000000 1.0
C      1  0.5664680000000  0.4770010000000  0.5719540000000 1.0
C      1  0.5217160000000  0.4308890000000  0.4662310000000 1.0
C      1  0.5302070000000  0.3998090000000  0.6016690000000 1.0
C      1  0.4035490000000  0.5341670000000  0.4979820000000 1.0
C      1  0.4042680000000  0.5798060000000  0.4176630000000 1.0
C      1  0.4616520000000  0.4340480000000  0.4831780000000 1.0
C      1  0.5859500000000  0.4820740000000  0.4364460000000 1.0
C      1  0.3918090000000  0.6001070000000  0.4070690000000 1.0
C      1  0.5598480000000  0.4875620000000  0.4264970000000 1.0
C      1  0.5834760000000  0.4731720000000  0.5010370000000 1.0
C      1  0.4439980000000  0.4338720000000  0.4084380000000 1.0
C      1  0.5030240000000  0.4406190000000  0.4467260000000 1.0
C      1  0.6018840000000  0.5369610000000  0.5222950000000 1.0
C      1  0.5496900000000  0.5075730000000  0.4078260000000 1.0
C      1  0.5810760000000  0.4683900000000  0.5509120000000 1.0
C      1  0.4165170000000  0.4886530000000  0.4393450000000 1.0
C      1  0.5364780000000  0.4591540000000  0.5053820000000 1.0
C      1  0.4693210000000  0.4976140000000  0.5464330000000 1.0
C      1  0.5607980000000  0.4105490000000  0.5113460000000 1.0
C      1  0.4623560000000  0.5244850000000  0.5094880000000 1.0
C      1  0.4739640000000  0.4445420000000  0.4564640000000 1.0
C      1  0.4874310000000  0.5675260000000  0.4173080000000 1.0
C      1  0.4770090000000  0.4738590000000  0.4637350000000 1.0
C      1  0.4884530000000  0.5301120000000  0.6000810000000 1.0
C      1  0.5725150000000  0.5387010000000  0.5256120000000 1.0
C      1  0.5590930000000  0.5441690000000  0.5492530000000 1.0
C      1  0.5381540000000  0.4791980000000  0.4438520000000 1.0
C      1  0.4851510000000  0.5229300000000  0.5475060000000 1.0
C      1  0.5804160000000  0.5364250000000  0.4309440000000 1.0
C      1  0.5016420000000  0.5004200000000  0.3989950000000 1.0
C      1  0.4029420000000  0.5147770000000  0.4775580000000 1.0
C      1  0.5524850000000  0.5942760000000  0.4968030000000 1.0
C      1  0.5103470000000  0.5270730000000  0.5594660000000 1.0
C      1  0.6129130000000  0.5636670000000  0.5232050000000 1.0
C      1  0.5496520000000  0.5954850000000  0.5265880000000 1.0
C      1  0.5402480000000  0.3886500000000  0.5784200000000 1.0
C      1  0.5279440000000  0.4742540000000  0.5276660000000 1.0
C      1  0.5534150000000  0.4231900000000  0.4311680000000 1.0
C      1  0.5299020000000  0.4607090000000  0.4018940000000 1.0
C      1  0.6035090000000  0.5193680000000  0.4990760000000 1.0
C      1  0.4087640000000  0.4617610000000  0.5285030000000 1.0
C      1  0.5567660000000  0.4717200000000  0.4908350000000 1.0
C      1  0.5710900000000  0.5430280000000  0.5993300000000 1.0
C      1  0.6009720000000  0.4920270000000  0.4875800000000 1.0
C      1  0.5458210000000  0.4849900000000  0.4695700000000 1.0
C      1  0.4737440000000  0.5913700000000  0.4211420000000 1.0
C      1  0.4622040000000  0.4801600000000  0.5681080000000 1.0
C      1  0.4264660000000  0.4236450000000  0.4492660000000 1.0
C      1  0.3939530000000  0.4762990000000  0.5092680000000 1.0
C      1  0.5548500000000  0.5352110000000  0.4179960000000 1.0
C      1  0.5972980000000  0.4969890000000  0.4577040000000 1.0
C      1  0.5615560000000  0.5388420000000  0.4988070000000 1.0
C      1  0.4629500000000  0.6145440000000  0.4262130000000 1.0
C      1  0.5430690000000  0.5735560000000  0.4499190000000 1.0
C      1  0.4520960000000  0.4342430000000  0.4372200000000 1.0
C      1  0.4269320000000  0.4428030000000  0.5174760000000 1.0
C      1  0.5996640000000  0.5813720000000  0.5413420000000 1.0
C      1  0.4046610000000  0.4708880000000  0.4598260000000 1.0
C      1  0.5314850000000  0.4604460000000  0.6015830000000 1.0
C      1  0.5779360000000  0.6035900000000  0.4872160000000 1.0
C      1  0.4805530000000  0.4262130000000  0.5549540000000 1.0
C      1  0.5013820000000  0.4115960000000  0.5678580000000 1.0
C      1  0.4841950000000  0.4602650000000  0.6065150000000 1.0
C      1  0.4484290000000  0.4006910000000  0.5167110000000 1.0
C      1  0.4018300000000  0.3807000000000  0.4381150000000 1.0
C      1  0.4174820000000  0.5595240000000  0.4284280000000 1.0
C      1  0.5020000000000  0.5906600000000  0.5514850000000 1.0
C      1  0.5450820000000  0.4821710000000  0.5901540000000 1.0
C      1  0.5360060000000  0.5085480000000  0.5975840000000 1.0
C      1  0.4675400000000  0.6169560000000  0.5185820000000 1.0
C      1  0.5348250000000  0.6231540000000  0.5626490000000 1.0
C      1  0.5063070000000  0.4643570000000  0.5415640000000 1.0
C      1  0.4536910000000  0.5619820000000  0.5348460000000 1.0
C      1  0.5125800000000  0.5214740000000  0.5872670000000 1.0
C      1  0.4495150000000  0.4813310000000  0.4979210000000 1.0
C      1  0.4599140000000  0.4071840000000  0.4927430000000 1.0
C      1  0.4576260000000  0.4976890000000  0.5190910000000 1.0
C      1  0.4630700000000  0.4847980000000  0.4219870000000 1.0
C      1  0.4962350000000  0.5175080000000  0.4708190000000 1.0
C      1  0.5463890000000  0.4183840000000  0.4588320000000 1.0
C      1  0.4712350000000  0.4825580000000  0.5951490000000 1.0
C      1  0.4725850000000  0.5420820000000  0.5291720000000 1.0
C      1  0.3968340000000  0.4866900000000  0.4831760000000 1.0
C      1  0.5395020000000  0.4981160000000  0.5324440000000 1.0
C      1  0.4927690000000  0.4411390000000  0.5345480000000 1.0
C      1  0.4723010000000  0.5080280000000  0.6075230000000 1.0
C      1  0.5859400000000  0.4570670000000  0.5251220000000 1.0
C      1  0.5754200000000  0.5931380000000  0.5396150000000 1.0
C      1  0.5897410000000  0.5253030000000  0.4546800000000 1.0
C      1  0.4266100000000  0.5439730000000  0.5689130000000 1.0
C      1  0.5722390000000  0.5496560000000  0.5734220000000 1.0
C      1  0.4924700000000  0.5743140000000  0.5738810000000 1.0
C      1  0.5284850000000  0.6016540000000  0.5460730000000 1.0
C      1  0.5371700000000  0.5490410000000  0.4895340000000 1.0
C      1  0.4098690000000  0.5466630000000  0.5209660000000 1.0
C      1  0.4752080000000  0.5418850000000  0.4183320000000 1.0
C      1  0.4430550000000  0.4593060000000  0.5629340000000 1.0
C      1  0.4480030000000  0.5533310000000  0.5855310000000 1.0
C      1  0.4522420000000  0.4320190000000  0.5559290000000 1.0
C      1  0.5260100000000  0.3985050000000  0.5547050000000 1.0
C      1  0.6192500000000  0.5770100000000  0.4988370000000 1.0
C      1  0.4084480000000  0.4940210000000  0.5668500000000 1.0
C      1  0.6034300000000  0.5948060000000  0.4858670000000 1.0
C      1  0.5151250000000  0.5664910000000  0.4123500000000 1.0
C      1  0.4352620000000  0.4803120000000  0.4191590000000 1.0
C      1  0.5087330000000  0.4182630000000  0.5958500000000 1.0
C      1  0.5404690000000  0.5751050000000  0.4784430000000 1.0
C      1  0.4143890000000  0.5159260000000  0.4505210000000 1.0
C      1  0.4378020000000  0.4213460000000  0.5331950000000 1.0
C      1  0.4765200000000  0.5546640000000  0.5889740000000 1.0
C      1  0.4296790000000  0.5371080000000  0.4394920000000 1.0
C      1  0.5800200000000  0.4293140000000  0.5213210000000 1.0
C      1  0.5136950000000  0.4639330000000  0.4291720000000 1.0
C      1  0.5290890000000  0.4913280000000  0.3934710000000 1.0
C      1  0.4272530000000  0.5542530000000  0.5420340000000 1.0
C      1  0.5594970000000  0.4076520000000  0.4823130000000 1.0
C      1  0.4564420000000  0.4924870000000  0.4722110000000 1.0
C      1  0.4678060000000  0.5191450000000  0.4629620000000 1.0
C      1  0.4581520000000  0.5340340000000  0.4404340000000 1.0
C      1  0.5313470000000  0.5416100000000  0.5487420000000 1.0
C      1  0.4170060000000  0.4700230000000  0.5547010000000 1.0
C      1  0.4455620000000  0.4532120000000  0.4984010000000 1.0
C      1  0.4171970000000  0.4020480000000  0.4318080000000 1.0
END
