TITL C-599890-3321-1169 0.110011967531352 125000 -541.667005307073 0 0 89 (C1) n - 1
REM
REM in /home/nfs/bkarasulu/CARBON/AIRSS/Generating-Clusters/TERSOFF/Only-C1/FIRE-HFTN
REM
REM
REM
REM
REM
REM ./C.cell (11c1c37f851c82e70ff6c80c92926a4b)
REM AIRSS Version 0.9.1 bugfix July 2018 build 013d7b7c2542+ Fri, 06 Jul 2018 19:26:36 +0100
REM compiler GCC version 9.2.1 20190827 (Red Hat 9.2.1-1)
REM options -cpp -mtune=generic -march=x86-64 -g -O0 -fpre-include=/usr/include/finclude/math-vector-fortran.h
REM seed 1526529744 -1138285557 -2040144126 -812978287 -74553643 770055422 38607844 -1493084167 -1028708939 2110486595 748572908 -428556085 -1657228481 98807500 1900602553 -573774434 -600175281 -2073766492 -490308272 -634648411 1430257513 -701220698 -1154998866 2503941 1484242913 -859051082 850237327 1718974516 -724503929 738638634 1953346023 542228688 -1836534623
REM
CELL 1.54180   50.00000   50.00000   50.00000   90.00000   90.00000   90.00000
LATT -1
SFAC C  
C      1  0.4041310000000  0.5046350000000  0.4777280000000 1.0
C      1  0.6035750000000  0.4990920000000  0.4041340000000 1.0
C      1  0.4180710000000  0.5155710000000  0.4262530000000 1.0
C      1  0.5008270000000  0.5518760000000  0.4604440000000 1.0
C      1  0.4361600000000  0.4276620000000  0.4902360000000 1.0
C      1  0.4329890000000  0.5706890000000  0.5342720000000 1.0
C      1  0.5777260000000  0.4649120000000  0.4311500000000 1.0
C      1  0.5214720000000  0.4666460000000  0.4742630000000 1.0
C      1  0.4167130000000  0.4594260000000  0.5246690000000 1.0
C      1  0.5468550000000  0.4104380000000  0.4685420000000 1.0
C      1  0.5917220000000  0.4274930000000  0.4079120000000 1.0
C      1  0.4804680000000  0.4612280000000  0.4463890000000 1.0
C      1  0.4111250000000  0.5670420000000  0.5521360000000 1.0
C      1  0.3758640000000  0.4911530000000  0.5365600000000 1.0
C      1  0.4391520000000  0.4609250000000  0.5432970000000 1.0
C      1  0.6161260000000  0.4640440000000  0.4924450000000 1.0
C      1  0.4843960000000  0.4217850000000  0.5085380000000 1.0
C      1  0.4855140000000  0.5101960000000  0.4432630000000 1.0
C      1  0.5123010000000  0.4934740000000  0.4786130000000 1.0
C      1  0.5449910000000  0.4600360000000  0.5526120000000 1.0
C      1  0.4536430000000  0.4706890000000  0.4998200000000 1.0
C      1  0.3909190000000  0.4925590000000  0.4572040000000 1.0
C      1  0.5828080000000  0.4273720000000  0.5076810000000 1.0
C      1  0.5554800000000  0.4251950000000  0.5138690000000 1.0
C      1  0.3920060000000  0.4710920000000  0.5297600000000 1.0
C      1  0.4665410000000  0.4885080000000  0.4828200000000 1.0
C      1  0.4435540000000  0.4516840000000  0.5694600000000 1.0
C      1  0.5888290000000  0.5598140000000  0.4997170000000 1.0
C      1  0.5992890000000  0.5643290000000  0.5236560000000 1.0
C      1  0.5489920000000  0.4659070000000  0.4692380000000 1.0
C      1  0.4719790000000  0.5511370000000  0.5577540000000 1.0
C      1  0.6041590000000  0.5627350000000  0.5511580000000 1.0
C      1  0.4602130000000  0.4156330000000  0.4946700000000 1.0
C      1  0.5725130000000  0.5775430000000  0.5846450000000 1.0
C      1  0.5588740000000  0.5084720000000  0.5677240000000 1.0
C      1  0.5708910000000  0.5320550000000  0.5692360000000 1.0
C      1  0.4461790000000  0.5724900000000  0.4599460000000 1.0
C      1  0.5720840000000  0.5478330000000  0.4808490000000 1.0
C      1  0.6042160000000  0.5109330000000  0.4744050000000 1.0
C      1  0.4854700000000  0.4334670000000  0.5571330000000 1.0
C      1  0.3790720000000  0.5854780000000  0.5232110000000 1.0
C      1  0.4708770000000  0.4294640000000  0.6042590000000 1.0
C      1  0.4848410000000  0.5297010000000  0.5021170000000 1.0
C      1  0.5358680000000  0.5213640000000  0.4464000000000 1.0
C      1  0.5604050000000  0.4185820000000  0.4470060000000 1.0
C      1  0.5005530000000  0.5505650000000  0.4902140000000 1.0
C      1  0.4254020000000  0.5229370000000  0.4742620000000 1.0
C      1  0.5300370000000  0.5482750000000  0.4546590000000 1.0
C      1  0.5615130000000  0.5092360000000  0.4512810000000 1.0
C      1  0.4355850000000  0.5683000000000  0.4860470000000 1.0
C      1  0.5309720000000  0.5707850000000  0.5242340000000 1.0
C      1  0.4668110000000  0.4378170000000  0.5781350000000 1.0
C      1  0.4381830000000  0.5399500000000  0.4929050000000 1.0
C      1  0.4256600000000  0.5827380000000  0.5083160000000 1.0
C      1  0.5463990000000  0.4390090000000  0.5364640000000 1.0
C      1  0.4798710000000  0.5385810000000  0.4456220000000 1.0
C      1  0.4635040000000  0.4627530000000  0.5262410000000 1.0
C      1  0.4893080000000  0.5487160000000  0.5776460000000 1.0
C      1  0.5097630000000  0.4124290000000  0.5009410000000 1.0
C      1  0.3839420000000  0.5661250000000  0.5435320000000 1.0
C      1  0.4747940000000  0.4216430000000  0.6288090000000 1.0
C      1  0.5371980000000  0.4142430000000  0.4947820000000 1.0
C      1  0.6164580000000  0.4890960000000  0.4834740000000 1.0
C      1  0.6036190000000  0.4495760000000  0.3963640000000 1.0
C      1  0.5823310000000  0.5575860000000  0.5686970000000 1.0
C      1  0.6294650000000  0.5657990000000  0.5610840000000 1.0
C      1  0.4590800000000  0.5367080000000  0.5121940000000 1.0
C      1  0.4532850000000  0.5487970000000  0.4448700000000 1.0
C      1  0.3996840000000  0.5944020000000  0.5077080000000 1.0
C      1  0.4553350000000  0.5527710000000  0.5355660000000 1.0
C      1  0.5495580000000  0.4841430000000  0.5627210000000 1.0
C      1  0.3679860000000  0.5158450000000  0.5426790000000 1.0
C      1  0.6040050000000  0.4418000000000  0.5005740000000 1.0
C      1  0.4292910000000  0.4540590000000  0.4983370000000 1.0
C      1  0.5641250000000  0.4804640000000  0.4501980000000 1.0
C      1  0.5803190000000  0.5238670000000  0.4673760000000 1.0
C      1  0.5452310000000  0.5564160000000  0.4782040000000 1.0
C      1  0.4895520000000  0.5027540000000  0.4936450000000 1.0
C      1  0.4817440000000  0.4407990000000  0.5299780000000 1.0
C      1  0.4699520000000  0.4869550000000  0.4537240000000 1.0
C      1  0.3696870000000  0.5422400000000  0.5459550000000 1.0
C      1  0.5064440000000  0.5465890000000  0.5971760000000 1.0
C      1  0.5957640000000  0.4738110000000  0.4099570000000 1.0
C      1  0.5130410000000  0.5055500000000  0.4517440000000 1.0
C      1  0.3979210000000  0.4979860000000  0.4314250000000 1.0
C      1  0.5750120000000  0.4352680000000  0.4301870000000 1.0
C      1  0.5028920000000  0.4513330000000  0.4586600000000 1.0
C      1  0.4326730000000  0.5289490000000  0.4464070000000 1.0
C      1  0.5261700000000  0.5599780000000  0.4998100000000 1.0
END
