TITL C-599891-72-1242 0.00088217887899901 125000 -812.414987730278 0 0 132 (C1) n - 1
REM
REM in /home/nfs/bkarasulu/CARBON/AIRSS/Generating-Clusters/TERSOFF/Only-C1/FIRE-HFTN
REM
REM
REM
REM
REM
REM ./C.cell (11c1c37f851c82e70ff6c80c92926a4b)
REM AIRSS Version 0.9.1 bugfix July 2018 build 013d7b7c2542+ Fri, 06 Jul 2018 19:26:36 +0100
REM compiler GCC version 9.2.1 20190827 (Red Hat 9.2.1-1)
REM options -cpp -mtune=generic -march=x86-64 -g -O0 -fpre-include=/usr/include/finclude/math-vector-fortran.h
REM seed -851489301 1717115478 892755220 -1594554401 124631591 1007306431 -350094970 954407105 1140252928 -949504168 830393446 1368468771 1893749784 -1310848613 1574963759 1434903772 -311492105 -1006915308 -497117808 2113662432 1358741802 -1716295891 -213939622 -751748081 233748038 -793810430 1222707652 1131559045 1985501632 140353098 52923102 -110289165 -793506975
REM
CELL 1.54180   50.00000   50.00000   50.00000   90.00000   90.00000   90.00000
LATT -1
SFAC C  
C      1  0.4826670000000  0.5563230000000  0.5651050000000 1.0
C      1  0.4562710000000  0.5195410000000  0.5829440000000 1.0
C      1  0.6315190000000  0.4555510000000  0.4870400000000 1.0
C      1  0.4564800000000  0.4718060000000  0.3656860000000 1.0
C      1  0.4700950000000  0.4497760000000  0.4306790000000 1.0
C      1  0.4614830000000  0.5616730000000  0.5470950000000 1.0
C      1  0.5407890000000  0.4965780000000  0.4662810000000 1.0
C      1  0.6088360000000  0.4759020000000  0.5489320000000 1.0
C      1  0.4396120000000  0.5116620000000  0.3883050000000 1.0
C      1  0.4067960000000  0.4541550000000  0.4636700000000 1.0
C      1  0.4875470000000  0.4161630000000  0.4932960000000 1.0
C      1  0.5558070000000  0.5608220000000  0.4237500000000 1.0
C      1  0.5038460000000  0.4531680000000  0.3710790000000 1.0
C      1  0.4128700000000  0.4420980000000  0.5129000000000 1.0
C      1  0.4181760000000  0.5014890000000  0.5574220000000 1.0
C      1  0.5416120000000  0.5037270000000  0.5997050000000 1.0
C      1  0.5086760000000  0.5030430000000  0.5518950000000 1.0
C      1  0.4583560000000  0.4721880000000  0.5667900000000 1.0
C      1  0.4133690000000  0.5504870000000  0.5151220000000 1.0
C      1  0.4830270000000  0.4488930000000  0.4558420000000 1.0
C      1  0.5131570000000  0.4255140000000  0.4992710000000 1.0
C      1  0.5911060000000  0.5324990000000  0.4757270000000 1.0
C      1  0.5843470000000  0.5791820000000  0.5317680000000 1.0
C      1  0.4719710000000  0.4290800000000  0.4729760000000 1.0
C      1  0.3643240000000  0.5016830000000  0.5390160000000 1.0
C      1  0.5068290000000  0.5279640000000  0.3804520000000 1.0
C      1  0.5541110000000  0.5152020000000  0.6222120000000 1.0
C      1  0.6102790000000  0.4514300000000  0.5345970000000 1.0
C      1  0.4237630000000  0.4943780000000  0.4439120000000 1.0
C      1  0.4375260000000  0.5859200000000  0.4842620000000 1.0
C      1  0.4317470000000  0.4649330000000  0.4058180000000 1.0
C      1  0.4618440000000  0.5410560000000  0.4455570000000 1.0
C      1  0.3981720000000  0.4530130000000  0.4913200000000 1.0
C      1  0.6054250000000  0.4748800000000  0.5768780000000 1.0
C      1  0.6191310000000  0.4928500000000  0.4588400000000 1.0
C      1  0.4908760000000  0.6090560000000  0.4421850000000 1.0
C      1  0.5051980000000  0.5445340000000  0.6275400000000 1.0
C      1  0.5482140000000  0.4883990000000  0.4933150000000 1.0
C      1  0.6184730000000  0.5193170000000  0.5289070000000 1.0
C      1  0.4888510000000  0.5081200000000  0.4219360000000 1.0
C      1  0.5074610000000  0.5475690000000  0.3615790000000 1.0
C      1  0.4439700000000  0.4976570000000  0.5700740000000 1.0
C      1  0.5128440000000  0.5323720000000  0.4645850000000 1.0
C      1  0.5283860000000  0.5099730000000  0.3847500000000 1.0
C      1  0.5824480000000  0.4800260000000  0.5898130000000 1.0
C      1  0.5089670000000  0.5431230000000  0.5279160000000 1.0
C      1  0.4416690000000  0.4496120000000  0.4274530000000 1.0
C      1  0.4071250000000  0.4803310000000  0.5407840000000 1.0
C      1  0.4688050000000  0.5479170000000  0.4723670000000 1.0
C      1  0.5055170000000  0.5153360000000  0.5278960000000 1.0
C      1  0.5411690000000  0.4662760000000  0.5377980000000 1.0
C      1  0.5916630000000  0.4312670000000  0.5406380000000 1.0
C      1  0.3963450000000  0.5231210000000  0.4804990000000 1.0
C      1  0.4580890000000  0.5553900000000  0.5212340000000 1.0
C      1  0.5709760000000  0.5383280000000  0.6615830000000 1.0
C      1  0.5226760000000  0.4623720000000  0.3878200000000 1.0
C      1  0.5016410000000  0.4919460000000  0.5761190000000 1.0
C      1  0.4213760000000  0.4560500000000  0.5359110000000 1.0
C      1  0.4280980000000  0.4396540000000  0.4513690000000 1.0
C      1  0.5423770000000  0.5281860000000  0.4633210000000 1.0
C      1  0.4093590000000  0.5488380000000  0.5429420000000 1.0
C      1  0.4964090000000  0.4716600000000  0.4665870000000 1.0
C      1  0.5620760000000  0.3701970000000  0.5159550000000 1.0
C      1  0.5179120000000  0.5941080000000  0.4795420000000 1.0
C      1  0.6095000000000  0.5170820000000  0.4642160000000 1.0
C      1  0.3837230000000  0.4779770000000  0.4979710000000 1.0
C      1  0.6063260000000  0.5821600000000  0.5454490000000 1.0
C      1  0.4399270000000  0.4831730000000  0.3855420000000 1.0
C      1  0.4848330000000  0.5235480000000  0.3977250000000 1.0
C      1  0.5443880000000  0.4121260000000  0.5859360000000 1.0
C      1  0.4443270000000  0.4527250000000  0.5516410000000 1.0
C      1  0.4682710000000  0.5128920000000  0.4407370000000 1.0
C      1  0.4424360000000  0.5154920000000  0.4973830000000 1.0
C      1  0.5561770000000  0.5635630000000  0.4942410000000 1.0
C      1  0.5296920000000  0.4451280000000  0.5535510000000 1.0
C      1  0.5721050000000  0.5035130000000  0.5327590000000 1.0
C      1  0.5472790000000  0.4240650000000  0.5614410000000 1.0
C      1  0.5414730000000  0.4650300000000  0.5087080000000 1.0
C      1  0.4496900000000  0.4967650000000  0.4540000000000 1.0
C      1  0.4907870000000  0.5988800000000  0.4680640000000 1.0
C      1  0.5753390000000  0.4367300000000  0.4589210000000 1.0
C      1  0.6183650000000  0.4654180000000  0.4643150000000 1.0
C      1  0.5264420000000  0.5467460000000  0.6437500000000 1.0
C      1  0.4636620000000  0.5946320000000  0.4795240000000 1.0
C      1  0.5262150000000  0.4868210000000  0.4012440000000 1.0
C      1  0.4502120000000  0.3852110000000  0.4990000000000 1.0
C      1  0.5610090000000  0.5103930000000  0.5073090000000 1.0
C      1  0.5405840000000  0.5756620000000  0.4714200000000 1.0
C      1  0.3872100000000  0.4967260000000  0.4754380000000 1.0
C      1  0.3983690000000  0.5514140000000  0.4715850000000 1.0
C      1  0.3736220000000  0.5200360000000  0.5569200000000 1.0
C      1  0.5121750000000  0.4919430000000  0.4255850000000 1.0
C      1  0.5185100000000  0.4839750000000  0.4522810000000 1.0
C      1  0.4551680000000  0.4949470000000  0.4819960000000 1.0
C      1  0.4351620000000  0.3983510000000  0.4805880000000 1.0
C      1  0.5224450000000  0.6048960000000  0.5059810000000 1.0
C      1  0.4573000000000  0.5324160000000  0.3970210000000 1.0
C      1  0.4517450000000  0.5497600000000  0.4198710000000 1.0
C      1  0.5476500000000  0.5564470000000  0.4490030000000 1.0
C      1  0.4778980000000  0.5375990000000  0.5862240000000 1.0
C      1  0.5600980000000  0.5782200000000  0.5182670000000 1.0
C      1  0.4962370000000  0.5491330000000  0.4781930000000 1.0
C      1  0.3827810000000  0.4850390000000  0.5255020000000 1.0
C      1  0.4794240000000  0.4586980000000  0.3617360000000 1.0
C      1  0.4962060000000  0.4993910000000  0.5072090000000 1.0
C      1  0.5131460000000  0.5062990000000  0.5973860000000 1.0
C      1  0.6273940000000  0.4494500000000  0.5126220000000 1.0
C      1  0.5981830000000  0.4492660000000  0.4534270000000 1.0
C      1  0.4440330000000  0.4219610000000  0.4677220000000 1.0
C      1  0.5513680000000  0.5336210000000  0.6433030000000 1.0
C      1  0.5684800000000  0.4158160000000  0.5441110000000 1.0
C      1  0.4566450000000  0.5405000000000  0.4973050000000 1.0
C      1  0.5046120000000  0.5558810000000  0.5037440000000 1.0
C      1  0.5364930000000  0.4404340000000  0.4950180000000 1.0
C      1  0.6003870000000  0.5001890000000  0.5361520000000 1.0
C      1  0.5077570000000  0.5592560000000  0.5516850000000 1.0
C      1  0.5545310000000  0.4327190000000  0.4749730000000 1.0
C      1  0.4863450000000  0.4684270000000  0.5726390000000 1.0
C      1  0.4821880000000  0.4863440000000  0.4871080000000 1.0
C      1  0.5658800000000  0.3917110000000  0.5301600000000 1.0
C      1  0.4015830000000  0.4816420000000  0.4550460000000 1.0
C      1  0.4983020000000  0.5299220000000  0.6047420000000 1.0
C      1  0.4147150000000  0.5683480000000  0.4905510000000 1.0
C      1  0.4016980000000  0.5257130000000  0.5577150000000 1.0
C      1  0.5579960000000  0.4905910000000  0.5799620000000 1.0
C      1  0.5636520000000  0.5340840000000  0.4881160000000 1.0
C      1  0.4155520000000  0.5235140000000  0.5024610000000 1.0
C      1  0.5236290000000  0.5825550000000  0.5502190000000 1.0
C      1  0.5029220000000  0.4471340000000  0.5633510000000 1.0
C      1  0.4751700000000  0.3937600000000  0.5054790000000 1.0
C      1  0.5368940000000  0.5925660000000  0.5272420000000 1.0
C      1  0.5551470000000  0.4882130000000  0.5509520000000 1.0
END
