TITL C-599893-4344-764 82228.2826256108 125000 -997.007414088576 0 0 163 (C1) n - 1
REM
REM in /home/nfs/bkarasulu/CARBON/AIRSS/Generating-Clusters/TERSOFF/Only-C1/FIRE-HFTN
REM
REM
REM
REM
REM
REM ./C.cell (11c1c37f851c82e70ff6c80c92926a4b)
REM AIRSS Version 0.9.1 bugfix July 2018 build 013d7b7c2542+ Fri, 06 Jul 2018 19:26:36 +0100
REM compiler GCC version 9.2.1 20190827 (Red Hat 9.2.1-1)
REM options -cpp -mtune=generic -march=x86-64 -g -O0 -fpre-include=/usr/include/finclude/math-vector-fortran.h
REM seed -186837452 -1241325790 -1551015082 1480516564 -2073532298 256370072 2062842854 794935404 1237515780 -745167113 408742210 343746349 1273270644 -51339652 458203145 1103937503 -2083513262 -105820737 465282687 -176442292 -2130875252 1969781454 81210410 -13651275 -1796541993 -1166127168 -1526130174 -219097728 -1036878412 1389581856 1873139133 -247601894 -532779846
REM
CELL 1.54180   50.00000   50.00000   50.00000   90.00000   90.00000   90.00000
LATT -1
SFAC C  
C      1  0.4191380000000  0.5266120000000  0.4300000000000 1.0
C      1  0.5080920000000  0.5170090000000  0.3933900000000 1.0
C      1  0.5331380000000  0.5654240000000  0.5167580000000 1.0
C      1  0.4382820000000  0.5235580000000  0.5914390000000 1.0
C      1  0.4532010000000  0.4613450000000  0.4189280000000 1.0
C      1  0.5318480000000  0.5380010000000  0.5077760000000 1.0
C      1  0.3668050000000  0.4832770000000  0.4979520000000 1.0
C      1  0.5788590000000  0.4790350000000  0.5227340000000 1.0
C      1  0.4093820000000  0.4756830000000  0.4403950000000 1.0
C      1  0.4225240000000  0.4026080000000  0.4926630000000 1.0
C      1  0.6224210000000  0.5041360000000  0.4978110000000 1.0
C      1  0.4592250000000  0.5404630000000  0.5928130000000 1.0
C      1  0.5434800000000  0.4931140000000  0.6029570000000 1.0
C      1  0.4617960000000  0.5642770000000  0.5507240000000 1.0
C      1  0.4277440000000  0.4552950000000  0.4279310000000 1.0
C      1  0.5146480000000  0.4896360000000  0.5181930000000 1.0
C      1  0.6412690000000  0.5725930000000  0.6094780000000 1.0
C      1  0.5493210000000  0.5584540000000  0.5884770000000 1.0
C      1  0.5330550000000  0.6174100000000  0.4638330000000 1.0
C      1  0.5697260000000  0.4070110000000  0.4733790000000 1.0
C      1  0.4898880000000  0.4296910000000  0.4797890000000 1.0
C      1  0.5632550000000  0.5133280000000  0.6063920000000 1.0
C      1  0.5935800000000  0.5367260000000  0.4476030000000 1.0
C      1  0.5763710000000  0.4556370000000  0.4590850000000 1.0
C      1  0.5430030000000  0.4496120000000  0.6247630000000 1.0
C      1  0.4697600000000  0.6014600000000  0.4549560000000 1.0
C      1  0.4923140000000  0.4894810000000  0.4997210000000 1.0
C      1  0.4866790000000  0.4524760000000  0.4620200000000 1.0
C      1  0.5933080000000  0.5130390000000  0.4325190000000 1.0
C      1  0.5653410000000  0.4757120000000  0.5003310000000 1.0
C      1  0.4578060000000  0.4633570000000  0.3902230000000 1.0
C      1  0.5145300000000  0.4714920000000  0.4100070000000 1.0
C      1  0.4526900000000  0.4870480000000  0.3763450000000 1.0
C      1  0.4340010000000  0.5729550000000  0.5484330000000 1.0
C      1  0.4271690000000  0.5513370000000  0.4783070000000 1.0
C      1  0.5978880000000  0.4114490000000  0.4752230000000 1.0
C      1  0.5358810000000  0.4428310000000  0.5315690000000 1.0
C      1  0.4479290000000  0.4106040000000  0.4499140000000 1.0
C      1  0.5598920000000  0.6111920000000  0.4666340000000 1.0
C      1  0.4368340000000  0.4436280000000  0.5137980000000 1.0
C      1  0.5567350000000  0.4091870000000  0.4985320000000 1.0
C      1  0.5444910000000  0.5073260000000  0.4228960000000 1.0
C      1  0.5365810000000  0.5846990000000  0.4961030000000 1.0
C      1  0.5599840000000  0.5045850000000  0.5574610000000 1.0
C      1  0.4949590000000  0.4567530000000  0.5485800000000 1.0
C      1  0.5177810000000  0.5053170000000  0.5985760000000 1.0
C      1  0.4048110000000  0.5048680000000  0.4429020000000 1.0
C      1  0.6109630000000  0.5275780000000  0.4913210000000 1.0
C      1  0.6262450000000  0.4513280000000  0.4948330000000 1.0
C      1  0.3879630000000  0.5125310000000  0.4655350000000 1.0
C      1  0.5753200000000  0.4822600000000  0.5500850000000 1.0
C      1  0.4532620000000  0.4374930000000  0.5329110000000 1.0
C      1  0.6886630000000  0.5927490000000  0.5989440000000 1.0
C      1  0.4366360000000  0.6127030000000  0.5190860000000 1.0
C      1  0.5162240000000  0.5993300000000  0.4791960000000 1.0
C      1  0.4599830000000  0.4977380000000  0.4556950000000 1.0
C      1  0.3798510000000  0.5301480000000  0.5134030000000 1.0
C      1  0.5277220000000  0.5645690000000  0.5706550000000 1.0
C      1  0.4013360000000  0.5785880000000  0.5132780000000 1.0
C      1  0.4239610000000  0.4705760000000  0.4839270000000 1.0
C      1  0.4031370000000  0.5329990000000  0.5590810000000 1.0
C      1  0.6652750000000  0.5827920000000  0.6047450000000 1.0
C      1  0.3904760000000  0.4761880000000  0.5442770000000 1.0
C      1  0.4792970000000  0.4347600000000  0.5416620000000 1.0
C      1  0.6169360000000  0.5622750000000  0.6114490000000 1.0
C      1  0.4889050000000  0.6671970000000  0.4966710000000 1.0
C      1  0.5139920000000  0.5474670000000  0.4347190000000 1.0
C      1  0.5310710000000  0.4799370000000  0.4621810000000 1.0
C      1  0.5342860000000  0.5152900000000  0.5529780000000 1.0
C      1  0.5347160000000  0.4779630000000  0.4307560000000 1.0
C      1  0.4877030000000  0.4698300000000  0.5719180000000 1.0
C      1  0.5358760000000  0.5344620000000  0.4793000000000 1.0
C      1  0.5903100000000  0.4697060000000  0.3832840000000 1.0
C      1  0.4965110000000  0.4505230000000  0.4117910000000 1.0
C      1  0.4432800000000  0.5922040000000  0.4599510000000 1.0
C      1  0.4915360000000  0.4296880000000  0.5995990000000 1.0
C      1  0.4678400000000  0.4996010000000  0.5145580000000 1.0
C      1  0.4260860000000  0.4282600000000  0.4408120000000 1.0
C      1  0.5279900000000  0.4048740000000  0.4419490000000 1.0
C      1  0.5158610000000  0.5209880000000  0.5747430000000 1.0
C      1  0.5544530000000  0.4145530000000  0.4490600000000 1.0
C      1  0.5261820000000  0.5150950000000  0.5255110000000 1.0
C      1  0.4976330000000  0.4989840000000  0.6172080000000 1.0
C      1  0.4474690000000  0.4049240000000  0.4788790000000 1.0
C      1  0.4035500000000  0.4609800000000  0.4661830000000 1.0
C      1  0.6015550000000  0.4464870000000  0.5716260000000 1.0
C      1  0.3731920000000  0.4967210000000  0.5486460000000 1.0
C      1  0.5152130000000  0.4115860000000  0.5617510000000 1.0
C      1  0.5010810000000  0.4013190000000  0.4375860000000 1.0
C      1  0.5056720000000  0.4078040000000  0.5885930000000 1.0
C      1  0.4523700000000  0.6330810000000  0.5128520000000 1.0
C      1  0.4244580000000  0.5888030000000  0.5263530000000 1.0
C      1  0.5324700000000  0.5725920000000  0.5439880000000 1.0
C      1  0.4424680000000  0.5075740000000  0.5036770000000 1.0
C      1  0.4758940000000  0.5533180000000  0.5738220000000 1.0
C      1  0.4612980000000  0.4986180000000  0.5435950000000 1.0
C      1  0.6006450000000  0.4685930000000  0.4535990000000 1.0
C      1  0.4940080000000  0.4100020000000  0.5404170000000 1.0
C      1  0.3853740000000  0.5575140000000  0.5080900000000 1.0
C      1  0.5234920000000  0.5256220000000  0.4160830000000 1.0
C      1  0.4743010000000  0.5192870000000  0.4501450000000 1.0
C      1  0.4314180000000  0.5667950000000  0.4556440000000 1.0
C      1  0.3685920000000  0.4565070000000  0.5020510000000 1.0
C      1  0.3822080000000  0.5228160000000  0.5416540000000 1.0
C      1  0.5101150000000  0.3847100000000  0.6023900000000 1.0
C      1  0.5645200000000  0.4393820000000  0.4384710000000 1.0
C      1  0.4778280000000  0.4536160000000  0.4341130000000 1.0
C      1  0.4530320000000  0.5623930000000  0.4127330000000 1.0
C      1  0.4703480000000  0.6509740000000  0.5051590000000 1.0
C      1  0.5373070000000  0.4314350000000  0.5583970000000 1.0
C      1  0.4909620000000  0.5893600000000  0.4705030000000 1.0
C      1  0.5926260000000  0.5519440000000  0.6094070000000 1.0
C      1  0.3990590000000  0.4128390000000  0.5018060000000 1.0
C      1  0.4896150000000  0.5422100000000  0.4532780000000 1.0
C      1  0.5967500000000  0.5454350000000  0.4744230000000 1.0
C      1  0.6282120000000  0.4778810000000  0.4987400000000 1.0
C      1  0.3768820000000  0.5096780000000  0.4920900000000 1.0
C      1  0.5011910000000  0.4756360000000  0.4735140000000 1.0
C      1  0.4813930000000  0.4468390000000  0.3872710000000 1.0
C      1  0.4805790000000  0.5544510000000  0.5011610000000 1.0
C      1  0.6164800000000  0.4279750000000  0.4856910000000 1.0
C      1  0.4846940000000  0.4752720000000  0.6187650000000 1.0
C      1  0.4866170000000  0.5611380000000  0.4748380000000 1.0
C      1  0.4331010000000  0.5521220000000  0.4306760000000 1.0
C      1  0.6089510000000  0.4916280000000  0.4425920000000 1.0
C      1  0.4227220000000  0.4866110000000  0.5066790000000 1.0
C      1  0.4335520000000  0.4962840000000  0.5510870000000 1.0
C      1  0.4473260000000  0.4781550000000  0.4688000000000 1.0
C      1  0.5840200000000  0.5691600000000  0.4831120000000 1.0
C      1  0.5372590000000  0.4267370000000  0.5082200000000 1.0
C      1  0.4347990000000  0.5325030000000  0.4950500000000 1.0
C      1  0.4622860000000  0.5120630000000  0.3743090000000 1.0
C      1  0.5523900000000  0.4493050000000  0.5770710000000 1.0
C      1  0.5042690000000  0.5476910000000  0.5743180000000 1.0
C      1  0.4766700000000  0.5789820000000  0.4129940000000 1.0
C      1  0.5679570000000  0.5412150000000  0.6017010000000 1.0
C      1  0.4038980000000  0.4331580000000  0.4587030000000 1.0
C      1  0.5574660000000  0.4596980000000  0.4199110000000 1.0
C      1  0.4745380000000  0.6036790000000  0.4270430000000 1.0
C      1  0.5358330000000  0.5082130000000  0.4708980000000 1.0
C      1  0.5563670000000  0.4673090000000  0.4755310000000 1.0
C      1  0.5172010000000  0.4648070000000  0.5323070000000 1.0
C      1  0.5638110000000  0.5886290000000  0.4843980000000 1.0
C      1  0.5749980000000  0.4770490000000  0.4044850000000 1.0
C      1  0.4225380000000  0.5145170000000  0.5697790000000 1.0
C      1  0.4845120000000  0.3972640000000  0.5159510000000 1.0
C      1  0.4126170000000  0.5593490000000  0.5610180000000 1.0
C      1  0.4735480000000  0.4033160000000  0.4376680000000 1.0
C      1  0.5156260000000  0.4291430000000  0.4908560000000 1.0
C      1  0.5453050000000  0.4639300000000  0.6013260000000 1.0
C      1  0.3802420000000  0.4321680000000  0.5047420000000 1.0
C      1  0.4160080000000  0.4820430000000  0.5337730000000 1.0
C      1  0.4730160000000  0.4091240000000  0.4916060000000 1.0
C      1  0.4779700000000  0.4950150000000  0.5655100000000 1.0
C      1  0.5773400000000  0.4590950000000  0.5663510000000 1.0
C      1  0.4857080000000  0.4570340000000  0.5972720000000 1.0
C      1  0.5025670000000  0.5677430000000  0.4155150000000 1.0
C      1  0.6244690000000  0.4345500000000  0.5750210000000 1.0
C      1  0.5131650000000  0.4895600000000  0.3884560000000 1.0
C      1  0.5723310000000  0.5042090000000  0.4153900000000 1.0
C      1  0.5346200000000  0.5521370000000  0.4565330000000 1.0
C      1  0.4750010000000  0.5607810000000  0.5262210000000 1.0
C      1  0.4841660000000  0.5259510000000  0.3817560000000 1.0
END
