TITL C-599893-4344-1121 0.126793340181455 125000 -391.107667169685 0 0 64 (C1) n - 1
REM
REM in /home/nfs/bkarasulu/CARBON/AIRSS/Generating-Clusters/TERSOFF/Only-C1/FIRE-HFTN
REM
REM
REM
REM
REM
REM ./C.cell (11c1c37f851c82e70ff6c80c92926a4b)
REM AIRSS Version 0.9.1 bugfix July 2018 build 013d7b7c2542+ Fri, 06 Jul 2018 19:26:36 +0100
REM compiler GCC version 9.2.1 20190827 (Red Hat 9.2.1-1)
REM options -cpp -mtune=generic -march=x86-64 -g -O0 -fpre-include=/usr/include/finclude/math-vector-fortran.h
REM seed 1933276584 -1066693940 1282082950 860891592 289849855 -1001145915 -720924182 -920234883 -1789328299 1868616901 -872950802 -1404972597 -1523105634 -447407334 94696920 2040860501 1463838646 -946916383 192016113 1132555215 -1173807526 1133610806 -1477418055 1087945932 740181367 1561398289 1235618829 758966102 -813203681 -578342665 1328569524 -1691817923 2054677184
REM
CELL 1.54180   50.00000   50.00000   50.00000   90.00000   90.00000   90.00000
LATT -1
SFAC C  
C      1  0.4492090000000  0.5476570000000  0.5539190000000 1.0
C      1  0.4032690000000  0.5478630000000  0.5361460000000 1.0
C      1  0.5228350000000  0.5390900000000  0.5231320000000 1.0
C      1  0.3884070000000  0.5425000000000  0.5140180000000 1.0
C      1  0.4964230000000  0.4772030000000  0.4369800000000 1.0
C      1  0.5135990000000  0.4016180000000  0.4935430000000 1.0
C      1  0.5373060000000  0.3924490000000  0.5366450000000 1.0
C      1  0.5092440000000  0.5279570000000  0.4476210000000 1.0
C      1  0.4610290000000  0.5819060000000  0.5031980000000 1.0
C      1  0.4496060000000  0.4925680000000  0.4915250000000 1.0
C      1  0.5488640000000  0.5799470000000  0.5197610000000 1.0
C      1  0.5638670000000  0.4749060000000  0.5297440000000 1.0
C      1  0.5149080000000  0.4024350000000  0.5232780000000 1.0
C      1  0.4916840000000  0.5019070000000  0.6274370000000 1.0
C      1  0.4815680000000  0.4575990000000  0.5005300000000 1.0
C      1  0.4938250000000  0.5196410000000  0.5568500000000 1.0
C      1  0.5335440000000  0.5568300000000  0.4793120000000 1.0
C      1  0.4869000000000  0.4116510000000  0.4876920000000 1.0
C      1  0.4488290000000  0.4780540000000  0.4421770000000 1.0
C      1  0.5438910000000  0.6062400000000  0.5219940000000 1.0
C      1  0.4306180000000  0.5555880000000  0.5346640000000 1.0
C      1  0.5074060000000  0.6192930000000  0.4918510000000 1.0
C      1  0.4419150000000  0.4883400000000  0.4660460000000 1.0
C      1  0.4958390000000  0.5006070000000  0.5116370000000 1.0
C      1  0.5508660000000  0.5117340000000  0.4707640000000 1.0
C      1  0.5032370000000  0.5203800000000  0.5300690000000 1.0
C      1  0.5750850000000  0.5110430000000  0.4580750000000 1.0
C      1  0.5605640000000  0.4722740000000  0.5018820000000 1.0
C      1  0.5328570000000  0.4922870000000  0.5679660000000 1.0
C      1  0.4789850000000  0.4308770000000  0.5082340000000 1.0
C      1  0.4879360000000  0.5463970000000  0.4476340000000 1.0
C      1  0.4714760000000  0.4844140000000  0.5073320000000 1.0
C      1  0.5051240000000  0.4641320000000  0.4845490000000 1.0
C      1  0.4710010000000  0.4672770000000  0.4284610000000 1.0
C      1  0.5590660000000  0.4195200000000  0.4873800000000 1.0
C      1  0.4703600000000  0.5338710000000  0.5623630000000 1.0
C      1  0.4253230000000  0.5550730000000  0.4852430000000 1.0
C      1  0.5261500000000  0.6231160000000  0.5108360000000 1.0
C      1  0.4414250000000  0.5545440000000  0.4621080000000 1.0
C      1  0.4388250000000  0.5654470000000  0.5089980000000 1.0
C      1  0.3990420000000  0.5455690000000  0.4891950000000 1.0
C      1  0.5164900000000  0.4880270000000  0.4957480000000 1.0
C      1  0.4724400000000  0.4417620000000  0.4165430000000 1.0
C      1  0.5010600000000  0.5961630000000  0.4770740000000 1.0
C      1  0.4828870000000  0.5007660000000  0.6519510000000 1.0
C      1  0.5638610000000  0.4473170000000  0.4890380000000 1.0
C      1  0.5229960000000  0.5805450000000  0.4682810000000 1.0
C      1  0.4933140000000  0.4200480000000  0.5313760000000 1.0
C      1  0.4765130000000  0.5823590000000  0.4794150000000 1.0
C      1  0.5053180000000  0.5035470000000  0.4342770000000 1.0
C      1  0.5293300000000  0.4072320000000  0.4483720000000 1.0
C      1  0.5374730000000  0.5571830000000  0.5077140000000 1.0
C      1  0.5081920000000  0.4613550000000  0.4570860000000 1.0
C      1  0.5728380000000  0.4029770000000  0.5058770000000 1.0
C      1  0.5630150000000  0.3919560000000  0.5284900000000 1.0
C      1  0.4897510000000  0.4212030000000  0.4174930000000 1.0
C      1  0.5004780000000  0.5031730000000  0.6024770000000 1.0
C      1  0.5115220000000  0.4102710000000  0.4286100000000 1.0
C      1  0.5350960000000  0.4083040000000  0.4759080000000 1.0
C      1  0.4686490000000  0.5623260000000  0.4601500000000 1.0
C      1  0.5436720000000  0.4920830000000  0.4899720000000 1.0
C      1  0.5319570000000  0.5323740000000  0.4647510000000 1.0
C      1  0.5521970000000  0.4822270000000  0.5526310000000 1.0
C      1  0.5090430000000  0.5050020000000  0.5759800000000 1.0
END
