TITL C-599893-4344-16 0.213488742128423 125000 -926.361534917283 0 0 150 (C1) n - 1
REM
REM in /home/nfs/bkarasulu/CARBON/AIRSS/Generating-Clusters/TERSOFF/Only-C1/FIRE-HFTN
REM
REM
REM
REM
REM
REM ./C.cell (11c1c37f851c82e70ff6c80c92926a4b)
REM AIRSS Version 0.9.1 bugfix July 2018 build 013d7b7c2542+ Fri, 06 Jul 2018 19:26:36 +0100
REM compiler GCC version 9.2.1 20190827 (Red Hat 9.2.1-1)
REM options -cpp -mtune=generic -march=x86-64 -g -O0 -fpre-include=/usr/include/finclude/math-vector-fortran.h
REM seed 1629391724 -466022814 25812440 -1718625136 -2045961674 851701793 -1269610779 -746425002 -1659945865 2056872304 1196669999 958060650 -356542185 -1884034438 -1118280534 302285312 1851091380 -1188312399 268169054 1462542914 -1047911564 -410603578 -358029912 1353279427 1070792412 -465472484 1266176116 1266649572 -487768235 776882502 -886366478 1199655963 92874372
REM
CELL 1.54180   50.00000   50.00000   50.00000   90.00000   90.00000   90.00000
LATT -1
SFAC C  
C      1  0.5886200000000  0.4575500000000  0.5349650000000 1.0
C      1  0.4926290000000  0.4652190000000  0.5091850000000 1.0
C      1  0.4972980000000  0.3982710000000  0.5792950000000 1.0
C      1  0.5341230000000  0.4399500000000  0.4206170000000 1.0
C      1  0.5318060000000  0.4502600000000  0.5834000000000 1.0
C      1  0.4550240000000  0.4887270000000  0.5295770000000 1.0
C      1  0.4088200000000  0.5277850000000  0.5437650000000 1.0
C      1  0.5101260000000  0.4263620000000  0.4195740000000 1.0
C      1  0.5465130000000  0.4897730000000  0.4673460000000 1.0
C      1  0.4713490000000  0.5335980000000  0.5966240000000 1.0
C      1  0.5152340000000  0.5517590000000  0.4552270000000 1.0
C      1  0.5559260000000  0.4415000000000  0.4636960000000 1.0
C      1  0.4414220000000  0.4620420000000  0.4910130000000 1.0
C      1  0.5345480000000  0.6132150000000  0.4407620000000 1.0
C      1  0.4137440000000  0.5315820000000  0.4973690000000 1.0
C      1  0.5297050000000  0.5350570000000  0.3958040000000 1.0
C      1  0.4328150000000  0.4711390000000  0.5729760000000 1.0
C      1  0.5188640000000  0.6237950000000  0.4598110000000 1.0
C      1  0.4770500000000  0.4954890000000  0.4090320000000 1.0
C      1  0.6274870000000  0.4753700000000  0.6215830000000 1.0
C      1  0.5307740000000  0.4257290000000  0.4675770000000 1.0
C      1  0.4638650000000  0.5058860000000  0.5976520000000 1.0
C      1  0.5253640000000  0.3958630000000  0.5746950000000 1.0
C      1  0.5415050000000  0.4485650000000  0.5252190000000 1.0
C      1  0.4868350000000  0.6140180000000  0.5249170000000 1.0
C      1  0.4623280000000  0.4376040000000  0.4187920000000 1.0
C      1  0.4805540000000  0.5914330000000  0.4089520000000 1.0
C      1  0.5698530000000  0.5627930000000  0.5034910000000 1.0
C      1  0.5612310000000  0.5366530000000  0.4596960000000 1.0
C      1  0.5045460000000  0.4407310000000  0.4667510000000 1.0
C      1  0.4414490000000  0.5867750000000  0.5160100000000 1.0
C      1  0.4362760000000  0.5372360000000  0.5457460000000 1.0
C      1  0.4868480000000  0.5142050000000  0.5491810000000 1.0
C      1  0.5563130000000  0.5831630000000  0.5216650000000 1.0
C      1  0.4863110000000  0.4895140000000  0.5923100000000 1.0
C      1  0.4397200000000  0.5195340000000  0.4985070000000 1.0
C      1  0.5016460000000  0.5119570000000  0.5029320000000 1.0
C      1  0.6131730000000  0.4654900000000  0.6021650000000 1.0
C      1  0.5552960000000  0.5471440000000  0.4040090000000 1.0
C      1  0.4985720000000  0.4960810000000  0.5668310000000 1.0
C      1  0.5195980000000  0.5448070000000  0.5324310000000 1.0
C      1  0.4093560000000  0.4722470000000  0.5564000000000 1.0
C      1  0.6019470000000  0.4911160000000  0.4969360000000 1.0
C      1  0.4736770000000  0.6127530000000  0.4804050000000 1.0
C      1  0.5062430000000  0.4858900000000  0.4958390000000 1.0
C      1  0.4890430000000  0.4400180000000  0.4938410000000 1.0
C      1  0.3792750000000  0.4895790000000  0.4865870000000 1.0
C      1  0.4020420000000  0.4990050000000  0.4114460000000 1.0
C      1  0.4827550000000  0.4199390000000  0.4272930000000 1.0
C      1  0.6097600000000  0.4943440000000  0.4697340000000 1.0
C      1  0.4468970000000  0.4605060000000  0.4219530000000 1.0
C      1  0.4997210000000  0.4164100000000  0.5087890000000 1.0
C      1  0.5538240000000  0.4535280000000  0.4375300000000 1.0
C      1  0.5558010000000  0.5744400000000  0.4112440000000 1.0
C      1  0.5031060000000  0.4672080000000  0.4525120000000 1.0
C      1  0.4941200000000  0.3893350000000  0.5146150000000 1.0
C      1  0.5528750000000  0.4049010000000  0.5028450000000 1.0
C      1  0.4795100000000  0.3873270000000  0.5599150000000 1.0
C      1  0.5189280000000  0.4825830000000  0.4711980000000 1.0
C      1  0.5588700000000  0.4997440000000  0.4160520000000 1.0
C      1  0.4583800000000  0.4383420000000  0.4940720000000 1.0
C      1  0.4670810000000  0.6000610000000  0.4555440000000 1.0
C      1  0.4519360000000  0.5183000000000  0.4485390000000 1.0
C      1  0.5292390000000  0.5657550000000  0.4753140000000 1.0
C      1  0.5720720000000  0.4471300000000  0.4888510000000 1.0
C      1  0.4376740000000  0.5670010000000  0.5384690000000 1.0
C      1  0.5366880000000  0.4003790000000  0.4797350000000 1.0
C      1  0.4928660000000  0.5607670000000  0.4416740000000 1.0
C      1  0.4511860000000  0.4487700000000  0.5677420000000 1.0
C      1  0.4735850000000  0.4016160000000  0.4474620000000 1.0
C      1  0.4250740000000  0.4586020000000  0.4682320000000 1.0
C      1  0.5264300000000  0.4707110000000  0.6041450000000 1.0
C      1  0.4595930000000  0.6350860000000  0.4208160000000 1.0
C      1  0.5341580000000  0.4983730000000  0.6049840000000 1.0
C      1  0.5362070000000  0.4752860000000  0.5331470000000 1.0
C      1  0.3871780000000  0.4946940000000  0.5136500000000 1.0
C      1  0.5120940000000  0.6190530000000  0.5098300000000 1.0
C      1  0.4898130000000  0.5483320000000  0.5798960000000 1.0
C      1  0.4512990000000  0.4832400000000  0.4046750000000 1.0
C      1  0.4746680000000  0.5222780000000  0.4615980000000 1.0
C      1  0.5518870000000  0.5742830000000  0.5489930000000 1.0
C      1  0.5038910000000  0.5625370000000  0.5161250000000 1.0
C      1  0.4325890000000  0.4705540000000  0.4444940000000 1.0
C      1  0.5197000000000  0.5442020000000  0.5802460000000 1.0
C      1  0.4834190000000  0.5206540000000  0.3960770000000 1.0
C      1  0.3936760000000  0.4765440000000  0.5347100000000 1.0
C      1  0.4483770000000  0.3982570000000  0.5209460000000 1.0
C      1  0.5898450000000  0.5430160000000  0.5104480000000 1.0
C      1  0.6037760000000  0.5136890000000  0.4519160000000 1.0
C      1  0.4224020000000  0.5812630000000  0.4952710000000 1.0
C      1  0.4876050000000  0.4412940000000  0.6105630000000 1.0
C      1  0.4832490000000  0.5262130000000  0.4875260000000 1.0
C      1  0.5980430000000  0.4562610000000  0.5824760000000 1.0
C      1  0.5649980000000  0.5288430000000  0.5867370000000 1.0
C      1  0.5180910000000  0.5769510000000  0.4977230000000 1.0
C      1  0.5326120000000  0.5075190000000  0.4063850000000 1.0
C      1  0.3794820000000  0.4930520000000  0.4596460000000 1.0
C      1  0.4926510000000  0.5657450000000  0.4133420000000 1.0
C      1  0.4110560000000  0.5578960000000  0.4878460000000 1.0
C      1  0.5172460000000  0.5078600000000  0.4309640000000 1.0
C      1  0.4714410000000  0.5721890000000  0.4559500000000 1.0
C      1  0.4638250000000  0.6049900000000  0.5084020000000 1.0
C      1  0.5823580000000  0.5295240000000  0.4428120000000 1.0
C      1  0.5282380000000  0.5280120000000  0.4485740000000 1.0
C      1  0.4725070000000  0.3867660000000  0.5323140000000 1.0
C      1  0.4579470000000  0.5144580000000  0.5441600000000 1.0
C      1  0.5488250000000  0.4087590000000  0.5704240000000 1.0
C      1  0.4769990000000  0.5561290000000  0.5241740000000 1.0
C      1  0.5796090000000  0.4495770000000  0.5620560000000 1.0
C      1  0.5572280000000  0.4821910000000  0.4398550000000 1.0
C      1  0.5556140000000  0.4980790000000  0.4934010000000 1.0
C      1  0.5376990000000  0.5249070000000  0.5942100000000 1.0
C      1  0.5328330000000  0.5984390000000  0.5103770000000 1.0
C      1  0.4783320000000  0.5587670000000  0.5545560000000 1.0
C      1  0.5014930000000  0.6233060000000  0.4821430000000 1.0
C      1  0.4752360000000  0.4682940000000  0.5317730000000 1.0
C      1  0.4963850000000  0.4870890000000  0.4308700000000 1.0
C      1  0.5081800000000  0.4526160000000  0.5644600000000 1.0
C      1  0.5016090000000  0.5433430000000  0.3972320000000 1.0
C      1  0.4397820000000  0.4924780000000  0.5906910000000 1.0
C      1  0.4972260000000  0.4679830000000  0.6080760000000 1.0
C      1  0.5998780000000  0.5174640000000  0.5095540000000 1.0
C      1  0.5761050000000  0.5205980000000  0.5637350000000 1.0
C      1  0.5548500000000  0.4365900000000  0.5722610000000 1.0
C      1  0.4581540000000  0.3976130000000  0.4695980000000 1.0
C      1  0.4515860000000  0.6591180000000  0.4146970000000 1.0
C      1  0.5676680000000  0.5101440000000  0.5407160000000 1.0
C      1  0.5901880000000  0.4651600000000  0.5058660000000 1.0
C      1  0.4428870000000  0.4895720000000  0.5034590000000 1.0
C      1  0.3863830000000  0.4970880000000  0.4336690000000 1.0
C      1  0.4630980000000  0.5379040000000  0.5044590000000 1.0
C      1  0.4342150000000  0.4987240000000  0.4468440000000 1.0
C      1  0.5474580000000  0.5963010000000  0.4244050000000 1.0
C      1  0.5574900000000  0.4318430000000  0.5094860000000 1.0
C      1  0.5563410000000  0.5569660000000  0.4784770000000 1.0
C      1  0.3975980000000  0.5209580000000  0.5184110000000 1.0
C      1  0.4261650000000  0.4962100000000  0.3987240000000 1.0
C      1  0.5320570000000  0.5549020000000  0.5557020000000 1.0
C      1  0.5046290000000  0.3698060000000  0.4974400000000 1.0
C      1  0.4686900000000  0.6098660000000  0.4281970000000 1.0
C      1  0.4375510000000  0.4248170000000  0.5613700000000 1.0
C      1  0.5058870000000  0.5207400000000  0.5291240000000 1.0
C      1  0.4504760000000  0.4103040000000  0.4942260000000 1.0
C      1  0.5227550000000  0.3761590000000  0.4784310000000 1.0
C      1  0.5525510000000  0.4958260000000  0.5219440000000 1.0
C      1  0.4783590000000  0.4525450000000  0.5564120000000 1.0
C      1  0.5726980000000  0.5260600000000  0.4161930000000 1.0
C      1  0.4313320000000  0.4090360000000  0.5405610000000 1.0
C      1  0.4886170000000  0.4164890000000  0.5995890000000 1.0
C      1  0.5162390000000  0.4783920000000  0.5528450000000 1.0
END
