TITL C-599897-7526-888 0.735669079199398 125000 -517.463312953497 0 0 85 (C1) n - 1
REM
REM in /home/nfs/bkarasulu/CARBON/AIRSS/Generating-Clusters/TERSOFF/Only-C1/FIRE-HFTN
REM
REM
REM
REM
REM
REM ./C.cell (11c1c37f851c82e70ff6c80c92926a4b)
REM AIRSS Version 0.9.1 bugfix July 2018 build 013d7b7c2542+ Fri, 06 Jul 2018 19:26:36 +0100
REM compiler GCC version 9.2.1 20190827 (Red Hat 9.2.1-1)
REM options -cpp -mtune=generic -march=x86-64 -g -O0 -fpre-include=/usr/include/finclude/math-vector-fortran.h
REM seed -7052995 -1922760450 -1771482836 1336737764 654151235 -2033908515 -283406821 547203093 1390935550 511657444 964331508 -1187551089 -1503574505 -1343131530 400068633 2129614690 -359880147 2124480654 412702154 1712608541 -481307677 1862958322 1109375602 1765800383 1311216324 253193124 826831577 343359029 -267846397 -1398687067 -237463167 -819739757 887866635
REM
CELL 1.54180   50.00000   50.00000   50.00000   90.00000   90.00000   90.00000
LATT -1
SFAC C  
C      1  0.5417640000000  0.5567320000000  0.4881250000000 1.0
C      1  0.4804090000000  0.5363690000000  0.5392320000000 1.0
C      1  0.5171470000000  0.5973240000000  0.5116360000000 1.0
C      1  0.4751630000000  0.5310590000000  0.4096080000000 1.0
C      1  0.4027080000000  0.4412900000000  0.5480060000000 1.0
C      1  0.5861130000000  0.5124940000000  0.4800330000000 1.0
C      1  0.6045760000000  0.5263860000000  0.5825830000000 1.0
C      1  0.5662240000000  0.5066330000000  0.4356150000000 1.0
C      1  0.4782790000000  0.4872200000000  0.4326680000000 1.0
C      1  0.5086430000000  0.4693850000000  0.4682860000000 1.0
C      1  0.5045830000000  0.5318060000000  0.5523290000000 1.0
C      1  0.5268080000000  0.5733030000000  0.5050540000000 1.0
C      1  0.4500120000000  0.4467060000000  0.4233110000000 1.0
C      1  0.5541770000000  0.5348630000000  0.5704520000000 1.0
C      1  0.5331590000000  0.4858240000000  0.4667540000000 1.0
C      1  0.5467440000000  0.6193880000000  0.4628800000000 1.0
C      1  0.5288220000000  0.5339630000000  0.5627990000000 1.0
C      1  0.5684290000000  0.4427810000000  0.5134550000000 1.0
C      1  0.5310030000000  0.6321080000000  0.4805480000000 1.0
C      1  0.4625120000000  0.4522200000000  0.5865800000000 1.0
C      1  0.5597170000000  0.4645560000000  0.6060780000000 1.0
C      1  0.4269560000000  0.4439740000000  0.4724570000000 1.0
C      1  0.5325700000000  0.4715180000000  0.5636810000000 1.0
C      1  0.4178700000000  0.4443590000000  0.4973430000000 1.0
C      1  0.3968280000000  0.4398500000000  0.5738030000000 1.0
C      1  0.5350030000000  0.5152680000000  0.3970090000000 1.0
C      1  0.4380810000000  0.5155850000000  0.5235250000000 1.0
C      1  0.5796960000000  0.5316730000000  0.5768700000000 1.0
C      1  0.5197950000000  0.4699800000000  0.4060980000000 1.0
C      1  0.5673490000000  0.5168480000000  0.4992860000000 1.0
C      1  0.4195520000000  0.5176820000000  0.5028480000000 1.0
C      1  0.5131140000000  0.4980520000000  0.4012990000000 1.0
C      1  0.4718680000000  0.5574470000000  0.4514330000000 1.0
C      1  0.4835290000000  0.4104340000000  0.5697080000000 1.0
C      1  0.4689080000000  0.4262250000000  0.5857440000000 1.0
C      1  0.5180490000000  0.6224020000000  0.5020640000000 1.0
C      1  0.5809580000000  0.5225430000000  0.4539150000000 1.0
C      1  0.4771730000000  0.4879570000000  0.5248990000000 1.0
C      1  0.4788570000000  0.4683610000000  0.5046570000000 1.0
C      1  0.4884400000000  0.5064190000000  0.4135480000000 1.0
C      1  0.4104980000000  0.5199090000000  0.4779970000000 1.0
C      1  0.4418790000000  0.4931330000000  0.5690520000000 1.0
C      1  0.3911210000000  0.4390660000000  0.6260480000000 1.0
C      1  0.4673340000000  0.5614020000000  0.5412250000000 1.0
C      1  0.5578360000000  0.5676860000000  0.4666300000000 1.0
C      1  0.4307230000000  0.5080750000000  0.5497930000000 1.0
C      1  0.4996690000000  0.4151080000000  0.5487610000000 1.0
C      1  0.4764960000000  0.5443280000000  0.3857370000000 1.0
C      1  0.5381150000000  0.4705640000000  0.5912530000000 1.0
C      1  0.4330780000000  0.5336940000000  0.4346690000000 1.0
C      1  0.4149860000000  0.5255170000000  0.4523910000000 1.0
C      1  0.4561420000000  0.5763660000000  0.5218880000000 1.0
C      1  0.5505230000000  0.4839480000000  0.4441970000000 1.0
C      1  0.4379250000000  0.4437050000000  0.4483520000000 1.0
C      1  0.5084080000000  0.4627910000000  0.5518830000000 1.0
C      1  0.5758720000000  0.5504320000000  0.4533930000000 1.0
C      1  0.5420870000000  0.4663090000000  0.4233240000000 1.0
C      1  0.4102840000000  0.4435060000000  0.5227140000000 1.0
C      1  0.5009230000000  0.4558060000000  0.4918810000000 1.0
C      1  0.5240540000000  0.5113840000000  0.4791250000000 1.0
C      1  0.5971170000000  0.4524150000000  0.5532540000000 1.0
C      1  0.5447470000000  0.4353790000000  0.5031180000000 1.0
C      1  0.5755540000000  0.4578540000000  0.5360710000000 1.0
C      1  0.4761910000000  0.5267940000000  0.4905410000000 1.0
C      1  0.4636430000000  0.4754670000000  0.5709130000000 1.0
C      1  0.4740850000000  0.4611230000000  0.4213030000000 1.0
C      1  0.4383410000000  0.4360030000000  0.4009990000000 1.0
C      1  0.4685000000000  0.5169600000000  0.5189590000000 1.0
C      1  0.4951340000000  0.5123130000000  0.4753710000000 1.0
C      1  0.6003790000000  0.4521380000000  0.5799410000000 1.0
C      1  0.5549870000000  0.4741670000000  0.5466750000000 1.0
C      1  0.4841260000000  0.4778690000000  0.5509790000000 1.0
C      1  0.4882610000000  0.5783250000000  0.4446620000000 1.0
C      1  0.5176670000000  0.4402990000000  0.5088910000000 1.0
C      1  0.4668750000000  0.5515600000000  0.4789520000000 1.0
C      1  0.5558520000000  0.5945720000000  0.4589770000000 1.0
C      1  0.4555880000000  0.5712590000000  0.4955470000000 1.0
C      1  0.5851060000000  0.4570630000000  0.6014910000000 1.0
C      1  0.4597380000000  0.5415170000000  0.4311390000000 1.0
C      1  0.4880880000000  0.4890310000000  0.4590280000000 1.0
C      1  0.5093650000000  0.4383160000000  0.5363180000000 1.0
C      1  0.4973470000000  0.4525670000000  0.4072930000000 1.0
C      1  0.3933970000000  0.4393250000000  0.6000790000000 1.0
C      1  0.5581430000000  0.5175210000000  0.4106930000000 1.0
C      1  0.5422340000000  0.5284500000000  0.4922720000000 1.0
END
