TITL C-599891-72-1228 83529.1805099304 125000 -837.402574751186 0 0 138 (C1) n - 1
REM
REM in /home/nfs/bkarasulu/CARBON/AIRSS/Generating-Clusters/TERSOFF/Only-C1/FIRE-HFTN
REM
REM
REM
REM
REM
REM ./C.cell (11c1c37f851c82e70ff6c80c92926a4b)
REM AIRSS Version 0.9.1 bugfix July 2018 build 013d7b7c2542+ Fri, 06 Jul 2018 19:26:36 +0100
REM compiler GCC version 9.2.1 20190827 (Red Hat 9.2.1-1)
REM options -cpp -mtune=generic -march=x86-64 -g -O0 -fpre-include=/usr/include/finclude/math-vector-fortran.h
REM seed -1496947214 -781867975 1897458516 1638689807 2005083587 1788593199 -317253560 741746593 -2040021524 -925102625 1226351363 1030990039 -1230412477 -411499811 -1770214693 -1902475718 728760854 256948143 -898269442 -103780040 1417973237 2132279978 652796404 -166554365 939985804 -1934021497 -1341125778 1913235157 -1923363306 -1111907011 -21779340 -1756208403 -1380846414
REM
CELL 1.54180   50.00000   50.00000   50.00000   90.00000   90.00000   90.00000
LATT -1
SFAC C  
C      1  0.5352820000000  0.4998430000000  0.4078130000000 1.0
C      1  0.5627670000000  0.4954590000000  0.4552090000000 1.0
C      1  0.6288650000000  0.3766490000000  0.5317020000000 1.0
C      1  0.6403510000000  0.4097280000000  0.4980670000000 1.0
C      1  0.4785850000000  0.4521970000000  0.5971460000000 1.0
C      1  0.5511460000000  0.4869810000000  0.3896510000000 1.0
C      1  0.5338010000000  0.5623160000000  0.4557740000000 1.0
C      1  0.5493300000000  0.5539800000000  0.5545010000000 1.0
C      1  0.4691800000000  0.5370350000000  0.4052640000000 1.0
C      1  0.4774650000000  0.4244740000000  0.5255940000000 1.0
C      1  0.4932200000000  0.5646120000000  0.4357210000000 1.0
C      1  0.5884900000000  0.5963680000000  0.4672790000000 1.0
C      1  0.5096270000000  0.6092560000000  0.4387030000000 1.0
C      1  0.5922840000000  0.4510780000000  0.5182140000000 1.0
C      1  0.5999530000000  0.4711440000000  0.4760890000000 1.0
C      1  0.4629600000000  0.5094990000000  0.5688100000000 1.0
C      1  0.4009790000000  0.4132530000000  0.5326490000000 1.0
C      1  0.4698260000000  0.5792500000000  0.5632030000000 1.0
C      1  0.3944520000000  0.5604970000000  0.5031140000000 1.0
C      1  0.5282640000000  0.4693180000000  0.5299680000000 1.0
C      1  0.4379230000000  0.4265360000000  0.4410430000000 1.0
C      1  0.4587210000000  0.4914180000000  0.4151680000000 1.0
C      1  0.4306800000000  0.4927720000000  0.4794260000000 1.0
C      1  0.5765300000000  0.4874980000000  0.4790710000000 1.0
C      1  0.5065620000000  0.5551860000000  0.5247110000000 1.0
C      1  0.4978010000000  0.5421700000000  0.5869190000000 1.0
C      1  0.5432610000000  0.5120140000000  0.5818550000000 1.0
C      1  0.5674330000000  0.5367390000000  0.4282210000000 1.0
C      1  0.4900840000000  0.5677380000000  0.5770550000000 1.0
C      1  0.4158330000000  0.4481660000000  0.5652520000000 1.0
C      1  0.4563200000000  0.4676460000000  0.5318950000000 1.0
C      1  0.3928720000000  0.3814570000000  0.4967330000000 1.0
C      1  0.4492470000000  0.5829200000000  0.5439270000000 1.0
C      1  0.3747420000000  0.5280400000000  0.5338460000000 1.0
C      1  0.4404520000000  0.4495020000000  0.4904970000000 1.0
C      1  0.5852880000000  0.4676780000000  0.5767490000000 1.0
C      1  0.5110450000000  0.6363310000000  0.4945710000000 1.0
C      1  0.5739170000000  0.4294990000000  0.5186270000000 1.0
C      1  0.5646240000000  0.3911360000000  0.5667700000000 1.0
C      1  0.5210680000000  0.5202260000000  0.4759110000000 1.0
C      1  0.5322080000000  0.4573260000000  0.5550520000000 1.0
C      1  0.4379870000000  0.4668400000000  0.4675060000000 1.0
C      1  0.4905480000000  0.5905900000000  0.4539030000000 1.0
C      1  0.4755510000000  0.5251160000000  0.5885250000000 1.0
C      1  0.4283250000000  0.5639510000000  0.5385540000000 1.0
C      1  0.3870450000000  0.5012860000000  0.4509250000000 1.0
C      1  0.5471840000000  0.4379750000000  0.5695390000000 1.0
C      1  0.4704690000000  0.4459570000000  0.5440460000000 1.0
C      1  0.4124210000000  0.5508150000000  0.5579130000000 1.0
C      1  0.5492570000000  0.5795210000000  0.4399940000000 1.0
C      1  0.4102360000000  0.3967820000000  0.5112820000000 1.0
C      1  0.4796330000000  0.4439150000000  0.5703890000000 1.0
C      1  0.4437000000000  0.4044410000000  0.4548880000000 1.0
C      1  0.3886520000000  0.4899550000000  0.5024730000000 1.0
C      1  0.5063240000000  0.5026590000000  0.4040310000000 1.0
C      1  0.4596490000000  0.5933870000000  0.4524860000000 1.0
C      1  0.6437430000000  0.3842370000000  0.5091920000000 1.0
C      1  0.4921870000000  0.4835320000000  0.5054670000000 1.0
C      1  0.5218210000000  0.5213240000000  0.4469670000000 1.0
C      1  0.5475960000000  0.5120460000000  0.4336120000000 1.0
C      1  0.4339910000000  0.4635410000000  0.5149370000000 1.0
C      1  0.4505610000000  0.6041570000000  0.5253690000000 1.0
C      1  0.3728600000000  0.5484820000000  0.5141140000000 1.0
C      1  0.3811210000000  0.5454850000000  0.4317230000000 1.0
C      1  0.5699540000000  0.6072470000000  0.4837090000000 1.0
C      1  0.4563010000000  0.4050230000000  0.5273580000000 1.0
C      1  0.6293060000000  0.4331520000000  0.4920800000000 1.0
C      1  0.4927220000000  0.4404380000000  0.6171720000000 1.0
C      1  0.4176920000000  0.4224310000000  0.5536860000000 1.0
C      1  0.5356140000000  0.6031220000000  0.4324780000000 1.0
C      1  0.5810480000000  0.5434710000000  0.5048640000000 1.0
C      1  0.4705690000000  0.5606860000000  0.4202160000000 1.0
C      1  0.5708240000000  0.5352500000000  0.5519980000000 1.0
C      1  0.5015200000000  0.6605360000000  0.4961140000000 1.0
C      1  0.5660190000000  0.5102240000000  0.5643820000000 1.0
C      1  0.5036460000000  0.5024610000000  0.4883550000000 1.0
C      1  0.4246680000000  0.5603250000000  0.4300230000000 1.0
C      1  0.4958040000000  0.4619110000000  0.4297710000000 1.0
C      1  0.4388740000000  0.3965240000000  0.5060170000000 1.0
C      1  0.5083170000000  0.5632500000000  0.4959420000000 1.0
C      1  0.5143640000000  0.5480030000000  0.4401800000000 1.0
C      1  0.5228910000000  0.5287220000000  0.5886320000000 1.0
C      1  0.3748320000000  0.5017410000000  0.5238610000000 1.0
C      1  0.4727760000000  0.4899230000000  0.5253170000000 1.0
C      1  0.6100240000000  0.3733050000000  0.5501390000000 1.0
C      1  0.5466830000000  0.6019960000000  0.4993060000000 1.0
C      1  0.4401780000000  0.5418560000000  0.4961790000000 1.0
C      1  0.4421570000000  0.4074200000000  0.5527370000000 1.0
C      1  0.5259220000000  0.4154710000000  0.5142450000000 1.0
C      1  0.5074600000000  0.4603760000000  0.5127620000000 1.0
C      1  0.6755740000000  0.3479300000000  0.4843750000000 1.0
C      1  0.4613740000000  0.4741180000000  0.6010030000000 1.0
C      1  0.4486900000000  0.5744960000000  0.4326850000000 1.0
C      1  0.5847000000000  0.4772980000000  0.5283080000000 1.0
C      1  0.4467380000000  0.3938810000000  0.4792370000000 1.0
C      1  0.5872700000000  0.3774530000000  0.5633050000000 1.0
C      1  0.4354100000000  0.5204110000000  0.4784900000000 1.0
C      1  0.5731950000000  0.5647890000000  0.4343690000000 1.0
C      1  0.4741880000000  0.5129710000000  0.5421160000000 1.0
C      1  0.4475250000000  0.4876350000000  0.5799260000000 1.0
C      1  0.3797990000000  0.4927110000000  0.4754570000000 1.0
C      1  0.6614410000000  0.3661270000000  0.4974260000000 1.0
C      1  0.4835170000000  0.5373780000000  0.5284460000000 1.0
C      1  0.4250570000000  0.5300610000000  0.4260640000000 1.0
C      1  0.5480010000000  0.5778970000000  0.5143590000000 1.0
C      1  0.4931700000000  0.5260000000000  0.3942150000000 1.0
C      1  0.5566240000000  0.5549970000000  0.4979800000000 1.0
C      1  0.5427810000000  0.4904750000000  0.5182870000000 1.0
C      1  0.5955720000000  0.5769010000000  0.4474780000000 1.0
C      1  0.5884170000000  0.5378140000000  0.5301990000000 1.0
C      1  0.4994300000000  0.4435470000000  0.4486510000000 1.0
C      1  0.6214300000000  0.5705270000000  0.4417100000000 1.0
C      1  0.4490350000000  0.5184280000000  0.4142990000000 1.0
C      1  0.3970730000000  0.5678990000000  0.4310090000000 1.0
C      1  0.5685990000000  0.4902030000000  0.5071170000000 1.0
C      1  0.5507690000000  0.4161440000000  0.5277240000000 1.0
C      1  0.5507400000000  0.4129910000000  0.5562780000000 1.0
C      1  0.5686140000000  0.4480790000000  0.5848500000000 1.0
C      1  0.4473580000000  0.6068180000000  0.4737040000000 1.0
C      1  0.4986770000000  0.4296700000000  0.4704640000000 1.0
C      1  0.4368910000000  0.4545710000000  0.4422210000000 1.0
C      1  0.4214160000000  0.5574720000000  0.5107870000000 1.0
C      1  0.4164230000000  0.4844950000000  0.5045570000000 1.0
C      1  0.5024340000000  0.5884980000000  0.4827750000000 1.0
C      1  0.3902370000000  0.5354030000000  0.5564290000000 1.0
C      1  0.6092340000000  0.4521690000000  0.4949910000000 1.0
C      1  0.4470510000000  0.6116410000000  0.4999660000000 1.0
C      1  0.5199400000000  0.6101050000000  0.4919640000000 1.0
C      1  0.4871490000000  0.4845320000000  0.4157080000000 1.0
C      1  0.5319980000000  0.5482960000000  0.4827880000000 1.0
C      1  0.5810150000000  0.4865870000000  0.5560520000000 1.0
C      1  0.6883240000000  0.3296960000000  0.4708120000000 1.0
C      1  0.5320210000000  0.5657410000000  0.5356340000000 1.0
C      1  0.4657770000000  0.5429970000000  0.5068000000000 1.0
C      1  0.4249630000000  0.4730320000000  0.5707670000000 1.0
C      1  0.5020920000000  0.4315530000000  0.5114900000000 1.0
C      1  0.4406700000000  0.4706140000000  0.4198550000000 1.0
C      1  0.3971370000000  0.5211550000000  0.4337410000000 1.0
END
