TITL C-599893-4344-1071 -1383.15954549081 125000 -543.444352946678 0 0 89 (C1) n - 1
REM
REM in /home/nfs/bkarasulu/CARBON/AIRSS/Generating-Clusters/TERSOFF/Only-C1/FIRE-HFTN
REM
REM
REM
REM
REM
REM ./C.cell (11c1c37f851c82e70ff6c80c92926a4b)
REM AIRSS Version 0.9.1 bugfix July 2018 build 013d7b7c2542+ Fri, 06 Jul 2018 19:26:36 +0100
REM compiler GCC version 9.2.1 20190827 (Red Hat 9.2.1-1)
REM options -cpp -mtune=generic -march=x86-64 -g -O0 -fpre-include=/usr/include/finclude/math-vector-fortran.h
REM seed -28557072 600986964 1208501673 1525223694 -334435024 2083453037 -643402083 -1668601826 1457535815 -2013281030 910447886 1761861839 881000448 -1563590121 -1941963106 194877987 1997392159 -122087738 1496660870 1876802199 1362559628 217715106 365548783 1780880420 98752094 -252705238 -1808383126 -1270648738 2056199590 -349180929 1188411027 1910711248 2029540877
REM
CELL 1.54180   50.00000   50.00000   50.00000   90.00000   90.00000   90.00000
LATT -1
SFAC C  
C      1  0.5374410000000  0.5018350000000  0.5674070000000 1.0
C      1  0.5213830000000  0.5164140000000  0.4003130000000 1.0
C      1  0.4487350000000  0.5441800000000  0.5692370000000 1.0
C      1  0.5249650000000  0.5481900000000  0.4308250000000 1.0
C      1  0.4975690000000  0.4444980000000  0.4968580000000 1.0
C      1  0.4894900000000  0.5627380000000  0.4620790000000 1.0
C      1  0.5871360000000  0.4785240000000  0.5076870000000 1.0
C      1  0.4422230000000  0.4371240000000  0.5344830000000 1.0
C      1  0.5381340000000  0.4848230000000  0.4861810000000 1.0
C      1  0.4332020000000  0.4466500000000  0.4822650000000 1.0
C      1  0.4683240000000  0.4825960000000  0.4924440000000 1.0
C      1  0.5382950000000  0.6150400000000  0.4875970000000 1.0
C      1  0.5299040000000  0.4761970000000  0.5330350000000 1.0
C      1  0.4295570000000  0.5185590000000  0.4622460000000 1.0
C      1  0.5763570000000  0.5061980000000  0.5154160000000 1.0
C      1  0.4481400000000  0.4390880000000  0.4584580000000 1.0
C      1  0.4552590000000  0.4795420000000  0.5171260000000 1.0
C      1  0.4699820000000  0.5462490000000  0.4468280000000 1.0
C      1  0.5273720000000  0.5786680000000  0.5190370000000 1.0
C      1  0.4983040000000  0.4430740000000  0.4498380000000 1.0
C      1  0.4921050000000  0.4693990000000  0.4850620000000 1.0
C      1  0.4404810000000  0.4301410000000  0.5059280000000 1.0
C      1  0.4671660000000  0.5236000000000  0.5088230000000 1.0
C      1  0.5926490000000  0.4698040000000  0.4800510000000 1.0
C      1  0.4121430000000  0.4884120000000  0.5276910000000 1.0
C      1  0.5267760000000  0.4550820000000  0.4433730000000 1.0
C      1  0.4242600000000  0.5497440000000  0.5799420000000 1.0
C      1  0.5423620000000  0.5892700000000  0.4971940000000 1.0
C      1  0.4781930000000  0.4046880000000  0.4814030000000 1.0
C      1  0.4618370000000  0.5186210000000  0.5727740000000 1.0
C      1  0.5143250000000  0.5663010000000  0.4488960000000 1.0
C      1  0.5019430000000  0.4793440000000  0.5298020000000 1.0
C      1  0.4882430000000  0.4352010000000  0.5467750000000 1.0
C      1  0.5607050000000  0.4601650000000  0.5716380000000 1.0
C      1  0.4963010000000  0.4256990000000  0.4750890000000 1.0
C      1  0.5085650000000  0.4490870000000  0.5867780000000 1.0
C      1  0.4884770000000  0.5121220000000  0.5265830000000 1.0
C      1  0.4795630000000  0.5279400000000  0.4259860000000 1.0
C      1  0.4343900000000  0.4901150000000  0.4563380000000 1.0
C      1  0.4735520000000  0.5102580000000  0.4845250000000 1.0
C      1  0.4634450000000  0.5633980000000  0.5534780000000 1.0
C      1  0.4946130000000  0.4739500000000  0.5830710000000 1.0
C      1  0.5120600000000  0.4873810000000  0.4775300000000 1.0
C      1  0.4382410000000  0.4881390000000  0.5389030000000 1.0
C      1  0.5438810000000  0.4701040000000  0.5098880000000 1.0
C      1  0.5549380000000  0.5029000000000  0.4719190000000 1.0
C      1  0.5534050000000  0.4163220000000  0.5425480000000 1.0
C      1  0.5449880000000  0.5287210000000  0.4309700000000 1.0
C      1  0.4440840000000  0.5439370000000  0.4583840000000 1.0
C      1  0.5316360000000  0.4815040000000  0.4309470000000 1.0
C      1  0.4876510000000  0.5582780000000  0.5392230000000 1.0
C      1  0.5276340000000  0.6627960000000  0.4684020000000 1.0
C      1  0.4998000000000  0.5710580000000  0.5163820000000 1.0
C      1  0.5523200000000  0.4457700000000  0.4542350000000 1.0
C      1  0.4891740000000  0.5696550000000  0.4898460000000 1.0
C      1  0.5427690000000  0.5677320000000  0.5398840000000 1.0
C      1  0.4415790000000  0.5574950000000  0.4845800000000 1.0
C      1  0.5718720000000  0.5473400000000  0.4858760000000 1.0
C      1  0.5688240000000  0.4577080000000  0.5160090000000 1.0
C      1  0.5767070000000  0.4544180000000  0.4634350000000 1.0
C      1  0.4991430000000  0.5121070000000  0.4728070000000 1.0
C      1  0.5049180000000  0.5355510000000  0.4131800000000 1.0
C      1  0.5477200000000  0.5036590000000  0.4437070000000 1.0
C      1  0.4620040000000  0.4444430000000  0.5551090000000 1.0
C      1  0.4720780000000  0.4991830000000  0.4232290000000 1.0
C      1  0.5430730000000  0.4757250000000  0.5582010000000 1.0
C      1  0.4950890000000  0.4507470000000  0.5242760000000 1.0
C      1  0.4668880000000  0.4694870000000  0.5717400000000 1.0
C      1  0.4208320000000  0.5181520000000  0.4915580000000 1.0
C      1  0.4895820000000  0.4840840000000  0.4061480000000 1.0
C      1  0.5171730000000  0.4897950000000  0.4075150000000 1.0
C      1  0.5695460000000  0.5198790000000  0.4901270000000 1.0
C      1  0.5618270000000  0.5720180000000  0.4864850000000 1.0
C      1  0.4409390000000  0.5362910000000  0.5047510000000 1.0
C      1  0.4577710000000  0.4818400000000  0.4408660000000 1.0
C      1  0.5313740000000  0.4151650000000  0.5578560000000 1.0
C      1  0.5093100000000  0.5000670000000  0.5789830000000 1.0
C      1  0.5688440000000  0.4322550000000  0.5273750000000 1.0
C      1  0.4692780000000  0.4544500000000  0.4454350000000 1.0
C      1  0.5568880000000  0.5460630000000  0.5462890000000 1.0
C      1  0.4221590000000  0.4733290000000  0.4789800000000 1.0
C      1  0.4515870000000  0.4927680000000  0.5637980000000 1.0
C      1  0.5086070000000  0.4295270000000  0.5659190000000 1.0
C      1  0.5591010000000  0.5187190000000  0.5441670000000 1.0
C      1  0.4117040000000  0.4920220000000  0.4994690000000 1.0
C      1  0.5329600000000  0.6391150000000  0.4779140000000 1.0
C      1  0.4562640000000  0.4072570000000  0.4976110000000 1.0
C      1  0.4912900000000  0.5209470000000  0.5715270000000 1.0
C      1  0.4966230000000  0.5315680000000  0.5454550000000 1.0
END
