TITL C-599892-9790-1041 -0.00477474023674109 125000 -1125.34850001353 0 0 184 (C1) n - 1
REM
REM in /home/nfs/bkarasulu/CARBON/AIRSS/Generating-Clusters/TERSOFF/Only-C1/FIRE-HFTN
REM
REM
REM
REM
REM
REM ./C.cell (11c1c37f851c82e70ff6c80c92926a4b)
REM AIRSS Version 0.9.1 bugfix July 2018 build 013d7b7c2542+ Fri, 06 Jul 2018 19:26:36 +0100
REM compiler GCC version 9.2.1 20190827 (Red Hat 9.2.1-1)
REM options -cpp -mtune=generic -march=x86-64 -g -O0 -fpre-include=/usr/include/finclude/math-vector-fortran.h
REM seed 269198184 820051533 -71885712 -1172908646 1468886343 -32557722 -1925495393 260069691 -2097998346 1632936267 792505781 1918297901 -427010382 -353857169 802346975 -1991666133 -990368930 603852221 -1138156371 -1759193560 -559219819 1043755663 -1931170710 -310131550 -274843055 -1749178297 205248376 -2095042244 -762583732 -689176959 691925769 1374502304 -1848236217
REM
CELL 1.54180   50.00000   50.00000   50.00000   90.00000   90.00000   90.00000
LATT -1
SFAC C  
C      1  0.4855540000000  0.5943690000000  0.5662850000000 1.0
C      1  0.4009970000000  0.4964960000000  0.4983480000000 1.0
C      1  0.5659790000000  0.5060640000000  0.5743200000000 1.0
C      1  0.5033960000000  0.5156850000000  0.4987270000000 1.0
C      1  0.5235790000000  0.4512150000000  0.3887580000000 1.0
C      1  0.5081620000000  0.4374900000000  0.5171810000000 1.0
C      1  0.4807880000000  0.4333240000000  0.4709000000000 1.0
C      1  0.5832570000000  0.5228720000000  0.3855530000000 1.0
C      1  0.4407280000000  0.4738850000000  0.6074500000000 1.0
C      1  0.5524650000000  0.5402540000000  0.4801680000000 1.0
C      1  0.5812150000000  0.5471930000000  0.4014280000000 1.0
C      1  0.5184860000000  0.5294470000000  0.5574480000000 1.0
C      1  0.4846570000000  0.5749710000000  0.6283610000000 1.0
C      1  0.5687620000000  0.4818450000000  0.5887740000000 1.0
C      1  0.4851180000000  0.5035660000000  0.4792110000000 1.0
C      1  0.5026680000000  0.6178100000000  0.4497030000000 1.0
C      1  0.4320610000000  0.6569660000000  0.5482790000000 1.0
C      1  0.4412290000000  0.5510270000000  0.5976040000000 1.0
C      1  0.4975520000000  0.4232500000000  0.5854300000000 1.0
C      1  0.4587860000000  0.5287180000000  0.3727600000000 1.0
C      1  0.4683950000000  0.4761780000000  0.5520900000000 1.0
C      1  0.4181360000000  0.4602770000000  0.4409650000000 1.0
C      1  0.4503150000000  0.5494500000000  0.4832980000000 1.0
C      1  0.5862640000000  0.4984300000000  0.4015810000000 1.0
C      1  0.4110860000000  0.5060450000000  0.4260250000000 1.0
C      1  0.5448410000000  0.5415240000000  0.6086790000000 1.0
C      1  0.4131520000000  0.4345090000000  0.4293140000000 1.0
C      1  0.5994400000000  0.6080300000000  0.5332300000000 1.0
C      1  0.5169160000000  0.4379320000000  0.5713460000000 1.0
C      1  0.5128040000000  0.4259000000000  0.3979980000000 1.0
C      1  0.4167630000000  0.5753800000000  0.4510850000000 1.0
C      1  0.5111380000000  0.4599570000000  0.6289030000000 1.0
C      1  0.5389980000000  0.4461440000000  0.5874670000000 1.0
C      1  0.3480740000000  0.4760060000000  0.4459110000000 1.0
C      1  0.6430990000000  0.5070390000000  0.5210790000000 1.0
C      1  0.4421180000000  0.5232890000000  0.4795100000000 1.0
C      1  0.5731290000000  0.5226690000000  0.4915320000000 1.0
C      1  0.5149490000000  0.4965230000000  0.3748530000000 1.0
C      1  0.4572250000000  0.5118900000000  0.4371440000000 1.0
C      1  0.6477870000000  0.5153410000000  0.4963570000000 1.0
C      1  0.4882580000000  0.5357980000000  0.4119680000000 1.0
C      1  0.3777610000000  0.5553200000000  0.4951490000000 1.0
C      1  0.4254830000000  0.5511410000000  0.4384730000000 1.0
C      1  0.5181310000000  0.5972920000000  0.4895170000000 1.0
C      1  0.5357820000000  0.5081360000000  0.3898770000000 1.0
C      1  0.5076250000000  0.5025070000000  0.5578830000000 1.0
C      1  0.5501910000000  0.4375640000000  0.4884420000000 1.0
C      1  0.6009520000000  0.5652320000000  0.4727220000000 1.0
C      1  0.4678980000000  0.5949220000000  0.4815680000000 1.0
C      1  0.5906700000000  0.5627890000000  0.4459780000000 1.0
C      1  0.5729790000000  0.5024810000000  0.4490030000000 1.0
C      1  0.4497130000000  0.5254350000000  0.6067150000000 1.0
C      1  0.5482710000000  0.5963800000000  0.4488670000000 1.0
C      1  0.4999020000000  0.5130410000000  0.3574660000000 1.0
C      1  0.4169970000000  0.4993270000000  0.5730640000000 1.0
C      1  0.5305960000000  0.4516770000000  0.4398430000000 1.0
C      1  0.4797310000000  0.5002890000000  0.5604950000000 1.0
C      1  0.5501850000000  0.4338210000000  0.4353370000000 1.0
C      1  0.5161710000000  0.4733400000000  0.4914980000000 1.0
C      1  0.5896140000000  0.4504230000000  0.4121850000000 1.0
C      1  0.5823960000000  0.4722840000000  0.4879430000000 1.0
C      1  0.5017110000000  0.5417330000000  0.3656610000000 1.0
C      1  0.4197120000000  0.4433880000000  0.5433580000000 1.0
C      1  0.4553320000000  0.4420080000000  0.4049790000000 1.0
C      1  0.4640610000000  0.4664420000000  0.5004290000000 1.0
C      1  0.4620830000000  0.5100750000000  0.4646640000000 1.0
C      1  0.5816500000000  0.5394440000000  0.5139550000000 1.0
C      1  0.4716270000000  0.5662830000000  0.4778260000000 1.0
C      1  0.6173450000000  0.4739910000000  0.5447670000000 1.0
C      1  0.4279840000000  0.4134130000000  0.4903890000000 1.0
C      1  0.4640290000000  0.4651570000000  0.5282870000000 1.0
C      1  0.4721100000000  0.4571620000000  0.4221970000000 1.0
C      1  0.5376540000000  0.3928690000000  0.5275130000000 1.0
C      1  0.5955670000000  0.5401370000000  0.4276570000000 1.0
C      1  0.5855250000000  0.5668160000000  0.4992700000000 1.0
C      1  0.4006760000000  0.4818350000000  0.4354670000000 1.0
C      1  0.4942100000000  0.6086380000000  0.4756420000000 1.0
C      1  0.4675960000000  0.4505470000000  0.4498640000000 1.0
C      1  0.5626730000000  0.5350260000000  0.5350690000000 1.0
C      1  0.4024270000000  0.5660390000000  0.4995330000000 1.0
C      1  0.5343140000000  0.5491140000000  0.4140080000000 1.0
C      1  0.4976420000000  0.4091210000000  0.4135260000000 1.0
C      1  0.4500320000000  0.4047850000000  0.4377520000000 1.0
C      1  0.5440640000000  0.5913150000000  0.4769020000000 1.0
C      1  0.4878810000000  0.4266890000000  0.4976140000000 1.0
C      1  0.5260610000000  0.4973510000000  0.5044870000000 1.0
C      1  0.5411130000000  0.4921750000000  0.5296080000000 1.0
C      1  0.4939640000000  0.6063780000000  0.5905040000000 1.0
C      1  0.4369570000000  0.4177760000000  0.5391420000000 1.0
C      1  0.4795490000000  0.5089530000000  0.4199400000000 1.0
C      1  0.5660660000000  0.4544920000000  0.4719270000000 1.0
C      1  0.4371480000000  0.6314720000000  0.5464720000000 1.0
C      1  0.4774380000000  0.3997980000000  0.4297190000000 1.0
C      1  0.4761900000000  0.5251580000000  0.6191950000000 1.0
C      1  0.4220900000000  0.4410440000000  0.4958230000000 1.0
C      1  0.4058070000000  0.5236650000000  0.5610650000000 1.0
C      1  0.4406100000000  0.5954960000000  0.4935420000000 1.0
C      1  0.5266680000000  0.4484770000000  0.4979250000000 1.0
C      1  0.5136810000000  0.4504610000000  0.5450050000000 1.0
C      1  0.4868940000000  0.3995980000000  0.5473270000000 1.0
C      1  0.4643560000000  0.5236530000000  0.5582430000000 1.0
C      1  0.5115330000000  0.5721370000000  0.5023230000000 1.0
C      1  0.5352450000000  0.4580410000000  0.6144390000000 1.0
C      1  0.5938120000000  0.5886050000000  0.5168140000000 1.0
C      1  0.4405590000000  0.4595280000000  0.4857490000000 1.0
C      1  0.4912710000000  0.5315820000000  0.5171170000000 1.0
C      1  0.5037070000000  0.5507050000000  0.5698340000000 1.0
C      1  0.4332350000000  0.4001510000000  0.5151250000000 1.0
C      1  0.5605830000000  0.5289040000000  0.5908120000000 1.0
C      1  0.4931670000000  0.5483560000000  0.6250350000000 1.0
C      1  0.4913950000000  0.4795540000000  0.4155570000000 1.0
C      1  0.4430500000000  0.6043180000000  0.5444220000000 1.0
C      1  0.4443960000000  0.5291280000000  0.5398000000000 1.0
C      1  0.5640290000000  0.4561710000000  0.5764710000000 1.0
C      1  0.4793470000000  0.4193060000000  0.6045590000000 1.0
C      1  0.5566730000000  0.4779660000000  0.6152370000000 1.0
C      1  0.5358330000000  0.5453190000000  0.5382070000000 1.0
C      1  0.4892470000000  0.3530810000000  0.4984480000000 1.0
C      1  0.4318300000000  0.5243030000000  0.4307800000000 1.0
C      1  0.5765750000000  0.4710810000000  0.3973960000000 1.0
C      1  0.5682660000000  0.4296220000000  0.5093150000000 1.0
C      1  0.4261800000000  0.4550050000000  0.5911370000000 1.0
C      1  0.4349620000000  0.5892050000000  0.5222050000000 1.0
C      1  0.5113400000000  0.5462820000000  0.4560570000000 1.0
C      1  0.3929560000000  0.4745630000000  0.5121350000000 1.0
C      1  0.5143590000000  0.4724780000000  0.4350740000000 1.0
C      1  0.4073090000000  0.4509690000000  0.5180940000000 1.0
C      1  0.5958000000000  0.4575000000000  0.5388980000000 1.0
C      1  0.5586360000000  0.5637910000000  0.4113790000000 1.0
C      1  0.5757010000000  0.4323210000000  0.4267580000000 1.0
C      1  0.5513660000000  0.4605220000000  0.3865870000000 1.0
C      1  0.4571810000000  0.5908490000000  0.5647220000000 1.0
C      1  0.4373880000000  0.4235220000000  0.4173570000000 1.0
C      1  0.5268130000000  0.6119070000000  0.4379410000000 1.0
C      1  0.5216650000000  0.5458540000000  0.6217210000000 1.0
C      1  0.6355290000000  0.4952070000000  0.5452630000000 1.0
C      1  0.5607830000000  0.4102360000000  0.5291060000000 1.0
C      1  0.4441990000000  0.3742710000000  0.5137900000000 1.0
C      1  0.4868650000000  0.4752020000000  0.6269870000000 1.0
C      1  0.5049950000000  0.4737110000000  0.3885560000000 1.0
C      1  0.5154810000000  0.3580780000000  0.4977940000000 1.0
C      1  0.5355990000000  0.3728290000000  0.5076720000000 1.0
C      1  0.5918520000000  0.5103100000000  0.4289660000000 1.0
C      1  0.6455550000000  0.5043630000000  0.5689900000000 1.0
C      1  0.5609490000000  0.5077870000000  0.5453510000000 1.0
C      1  0.5146040000000  0.5033470000000  0.6031410000000 1.0
C      1  0.5183160000000  0.5680000000000  0.5298140000000 1.0
C      1  0.5347030000000  0.5304120000000  0.4612360000000 1.0
C      1  0.4198610000000  0.5435410000000  0.5440550000000 1.0
C      1  0.4181630000000  0.5807030000000  0.4794090000000 1.0
C      1  0.4985890000000  0.5580600000000  0.4792690000000 1.0
C      1  0.4416430000000  0.4606080000000  0.4579270000000 1.0
C      1  0.5744530000000  0.4157650000000  0.5532400000000 1.0
C      1  0.4295710000000  0.4047180000000  0.4621230000000 1.0
C      1  0.4181410000000  0.4635910000000  0.5654750000000 1.0
C      1  0.4625750000000  0.4113530000000  0.5505520000000 1.0
C      1  0.4163060000000  0.5660060000000  0.5254650000000 1.0
C      1  0.4641700000000  0.3584670000000  0.5057850000000 1.0
C      1  0.6517670000000  0.5216840000000  0.4713870000000 1.0
C      1  0.4446380000000  0.5733000000000  0.5830480000000 1.0
C      1  0.5572780000000  0.5684000000000  0.4870700000000 1.0
C      1  0.5018910000000  0.5749140000000  0.5538650000000 1.0
C      1  0.5797320000000  0.4991470000000  0.4773960000000 1.0
C      1  0.4354250000000  0.5011890000000  0.5977530000000 1.0
C      1  0.5133240000000  0.3955480000000  0.5426310000000 1.0
C      1  0.4258900000000  0.5094750000000  0.4975110000000 1.0
C      1  0.4051170000000  0.4140670000000  0.4479380000000 1.0
C      1  0.5210520000000  0.4794280000000  0.5462990000000 1.0
C      1  0.5859460000000  0.4543090000000  0.5123370000000 1.0
C      1  0.4874270000000  0.4761240000000  0.4868530000000 1.0
C      1  0.5081770000000  0.5499450000000  0.4272670000000 1.0
C      1  0.5401060000000  0.5203000000000  0.4146520000000 1.0
C      1  0.4398710000000  0.5085590000000  0.5216320000000 1.0
C      1  0.4062780000000  0.5950590000000  0.4349760000000 1.0
C      1  0.4640780000000  0.4339920000000  0.6210630000000 1.0
C      1  0.4707770000000  0.5098170000000  0.3559400000000 1.0
C      1  0.4913360000000  0.5012230000000  0.6173690000000 1.0
C      1  0.5670380000000  0.5788580000000  0.4353830000000 1.0
C      1  0.4800680000000  0.5442480000000  0.3859400000000 1.0
C      1  0.5464020000000  0.5125520000000  0.4418400000000 1.0
C      1  0.4896960000000  0.5982230000000  0.6158290000000 1.0
C      1  0.4620980000000  0.4622900000000  0.6222820000000 1.0
C      1  0.3732520000000  0.4791740000000  0.4399820000000 1.0
C      1  0.5811570000000  0.4428570000000  0.5589820000000 1.0
END
