TITL C-599893-4344-799 15970.2890937855 125000 -898.735338420179 0 0 148 (C1) n - 1
REM
REM in /home/nfs/bkarasulu/CARBON/AIRSS/Generating-Clusters/TERSOFF/Only-C1/FIRE-HFTN
REM
REM
REM
REM
REM
REM ./C.cell (11c1c37f851c82e70ff6c80c92926a4b)
REM AIRSS Version 0.9.1 bugfix July 2018 build 013d7b7c2542+ Fri, 06 Jul 2018 19:26:36 +0100
REM compiler GCC version 9.2.1 20190827 (Red Hat 9.2.1-1)
REM options -cpp -mtune=generic -march=x86-64 -g -O0 -fpre-include=/usr/include/finclude/math-vector-fortran.h
REM seed 1277895536 1349024432 -1889832880 1436268211 -1097991385 -2054608629 -1032492047 -1772513104 1769601328 -1929467528 1939424868 -1986689059 -1487212295 1981620180 -2126029430 -1050578330 -340573559 -982863195 -707048466 -1037226897 -1043353416 1016534196 482700676 -1417554157 709518836 -2143647629 -645278400 1540551005 -941000795 1706900410 -1552309137 1821530325 -652910974
REM
CELL 1.54180   50.00000   50.00000   50.00000   90.00000   90.00000   90.00000
LATT -1
SFAC C  
C      1  0.4781710000000  0.5194720000000  0.5325110000000 1.0
C      1  0.5733300000000  0.4845260000000  0.4617110000000 1.0
C      1  0.5335610000000  0.5162110000000  0.5380480000000 1.0
C      1  0.5129300000000  0.4055260000000  0.5028550000000 1.0
C      1  0.4702530000000  0.5927030000000  0.5026010000000 1.0
C      1  0.5943200000000  0.4963150000000  0.5678390000000 1.0
C      1  0.5147610000000  0.5635380000000  0.4189190000000 1.0
C      1  0.4988720000000  0.5839620000000  0.4610710000000 1.0
C      1  0.5219730000000  0.5593160000000  0.6235720000000 1.0
C      1  0.3844410000000  0.5312230000000  0.5267590000000 1.0
C      1  0.4222910000000  0.5557010000000  0.4830460000000 1.0
C      1  0.4136260000000  0.4435340000000  0.5260070000000 1.0
C      1  0.5977540000000  0.5392270000000  0.5410980000000 1.0
C      1  0.4947920000000  0.4098800000000  0.5780280000000 1.0
C      1  0.4629360000000  0.5192690000000  0.4749440000000 1.0
C      1  0.5466340000000  0.5854820000000  0.4550310000000 1.0
C      1  0.5692090000000  0.5343660000000  0.4600150000000 1.0
C      1  0.4171670000000  0.5736940000000  0.4648750000000 1.0
C      1  0.6224870000000  0.5489210000000  0.5010420000000 1.0
C      1  0.4416020000000  0.4706780000000  0.4921800000000 1.0
C      1  0.5185710000000  0.4223340000000  0.5865590000000 1.0
C      1  0.5655630000000  0.5097710000000  0.4738750000000 1.0
C      1  0.3893770000000  0.4891940000000  0.4235600000000 1.0
C      1  0.4253710000000  0.4683610000000  0.5199470000000 1.0
C      1  0.4936260000000  0.5773130000000  0.4334290000000 1.0
C      1  0.4293990000000  0.5135490000000  0.5110470000000 1.0
C      1  0.5155490000000  0.5199180000000  0.4438270000000 1.0
C      1  0.6116710000000  0.4806050000000  0.5523680000000 1.0
C      1  0.5119250000000  0.4112120000000  0.4488760000000 1.0
C      1  0.4943950000000  0.5159430000000  0.3942660000000 1.0
C      1  0.5633220000000  0.5305220000000  0.5735090000000 1.0
C      1  0.4940280000000  0.5038580000000  0.4374740000000 1.0
C      1  0.5476270000000  0.4187200000000  0.5393260000000 1.0
C      1  0.4246070000000  0.4941530000000  0.5326030000000 1.0
C      1  0.4411830000000  0.5487590000000  0.6342960000000 1.0
C      1  0.5256590000000  0.5445410000000  0.6007770000000 1.0
C      1  0.5065480000000  0.4707370000000  0.5385420000000 1.0
C      1  0.5108770000000  0.5331730000000  0.4686660000000 1.0
C      1  0.4962330000000  0.4568120000000  0.4927910000000 1.0
C      1  0.4685340000000  0.4262130000000  0.5437550000000 1.0
C      1  0.4658380000000  0.4552930000000  0.4215240000000 1.0
C      1  0.4709590000000  0.4025400000000  0.4721050000000 1.0
C      1  0.5461890000000  0.5746410000000  0.5652410000000 1.0
C      1  0.4771000000000  0.4991330000000  0.5131500000000 1.0
C      1  0.4506400000000  0.5205980000000  0.4226890000000 1.0
C      1  0.6138030000000  0.4955200000000  0.4830960000000 1.0
C      1  0.5313860000000  0.4540950000000  0.4557970000000 1.0
C      1  0.5914080000000  0.5258000000000  0.5658150000000 1.0
C      1  0.4152020000000  0.4188340000000  0.5151840000000 1.0
C      1  0.5321610000000  0.4510440000000  0.3971880000000 1.0
C      1  0.4237350000000  0.4923330000000  0.5606560000000 1.0
C      1  0.3868240000000  0.4778250000000  0.4474640000000 1.0
C      1  0.5720700000000  0.4706050000000  0.5111930000000 1.0
C      1  0.5157290000000  0.4615160000000  0.5132860000000 1.0
C      1  0.4690190000000  0.5857100000000  0.5519580000000 1.0
C      1  0.5296150000000  0.4797470000000  0.3942330000000 1.0
C      1  0.4812410000000  0.4655860000000  0.5797160000000 1.0
C      1  0.5581160000000  0.5012320000000  0.5003250000000 1.0
C      1  0.5013570000000  0.4870350000000  0.3901420000000 1.0
C      1  0.4263820000000  0.4740580000000  0.5803450000000 1.0
C      1  0.4698790000000  0.5847600000000  0.4209440000000 1.0
C      1  0.6155850000000  0.5018400000000  0.5108690000000 1.0
C      1  0.5931820000000  0.4756350000000  0.4792880000000 1.0
C      1  0.4495470000000  0.4295620000000  0.5971990000000 1.0
C      1  0.5390960000000  0.5185300000000  0.4279200000000 1.0
C      1  0.5105520000000  0.6098850000000  0.5723260000000 1.0
C      1  0.4862680000000  0.5710100000000  0.4865650000000 1.0
C      1  0.4630150000000  0.5460640000000  0.5848530000000 1.0
C      1  0.5642130000000  0.4640350000000  0.5461380000000 1.0
C      1  0.5533920000000  0.4697590000000  0.4500490000000 1.0
C      1  0.4945790000000  0.5430420000000  0.5284550000000 1.0
C      1  0.4683770000000  0.4276880000000  0.4305250000000 1.0
C      1  0.5319160000000  0.5723490000000  0.5175670000000 1.0
C      1  0.5781840000000  0.4233450000000  0.3911960000000 1.0
C      1  0.5298770000000  0.4700620000000  0.5936390000000 1.0
C      1  0.4551730000000  0.4193870000000  0.4541950000000 1.0
C      1  0.5061480000000  0.4621640000000  0.4662700000000 1.0
C      1  0.5552620000000  0.4365840000000  0.3922630000000 1.0
C      1  0.5136110000000  0.6174590000000  0.4871020000000 1.0
C      1  0.6152350000000  0.5293680000000  0.5206180000000 1.0
C      1  0.6009340000000  0.4106190000000  0.3914280000000 1.0
C      1  0.4678800000000  0.4558690000000  0.4995720000000 1.0
C      1  0.5336870000000  0.5097410000000  0.5100400000000 1.0
C      1  0.5674420000000  0.4865470000000  0.5615240000000 1.0
C      1  0.4767050000000  0.5133900000000  0.4167720000000 1.0
C      1  0.4871860000000  0.4833750000000  0.4576410000000 1.0
C      1  0.3801040000000  0.5089510000000  0.5100320000000 1.0
C      1  0.3606690000000  0.4652870000000  0.5054400000000 1.0
C      1  0.5530790000000  0.5709250000000  0.5372170000000 1.0
C      1  0.5372750000000  0.4212400000000  0.5123080000000 1.0
C      1  0.5346860000000  0.5986610000000  0.5735580000000 1.0
C      1  0.4949910000000  0.3944530000000  0.5246870000000 1.0
C      1  0.4484600000000  0.5908890000000  0.4074260000000 1.0
C      1  0.6125960000000  0.5452170000000  0.4747610000000 1.0
C      1  0.4223740000000  0.5401040000000  0.5060290000000 1.0
C      1  0.5348910000000  0.4446890000000  0.5805470000000 1.0
C      1  0.5087520000000  0.5215910000000  0.5956500000000 1.0
C      1  0.4862810000000  0.6037920000000  0.5634150000000 1.0
C      1  0.4886560000000  0.6159750000000  0.4996590000000 1.0
C      1  0.4047480000000  0.5038200000000  0.4074340000000 1.0
C      1  0.5511870000000  0.4414470000000  0.5566680000000 1.0
C      1  0.4412650000000  0.5012770000000  0.4885390000000 1.0
C      1  0.4075110000000  0.5497160000000  0.5285470000000 1.0
C      1  0.4513310000000  0.5477700000000  0.6103140000000 1.0
C      1  0.4341280000000  0.4510010000000  0.5918760000000 1.0
C      1  0.4713370000000  0.4139120000000  0.5940660000000 1.0
C      1  0.4865370000000  0.4623410000000  0.4014350000000 1.0
C      1  0.5132960000000  0.5131780000000  0.4896280000000 1.0
C      1  0.4822440000000  0.5437680000000  0.4747580000000 1.0
C      1  0.5054640000000  0.5630210000000  0.5101350000000 1.0
C      1  0.4858820000000  0.4997560000000  0.4846360000000 1.0
C      1  0.4964440000000  0.4201200000000  0.4256020000000 1.0
C      1  0.5466740000000  0.5514230000000  0.5822440000000 1.0
C      1  0.4548020000000  0.3938050000000  0.4942370000000 1.0
C      1  0.4302140000000  0.4097320000000  0.4930630000000 1.0
C      1  0.4634440000000  0.4417260000000  0.5233390000000 1.0
C      1  0.5418690000000  0.4504110000000  0.5069770000000 1.0
C      1  0.4267180000000  0.5656950000000  0.5417550000000 1.0
C      1  0.4217030000000  0.4560030000000  0.4743160000000 1.0
C      1  0.4550360000000  0.5860810000000  0.5267610000000 1.0
C      1  0.5865920000000  0.5553780000000  0.4682420000000 1.0
C      1  0.5546620000000  0.5402670000000  0.4362920000000 1.0
C      1  0.4536790000000  0.5643640000000  0.5649160000000 1.0
C      1  0.5408160000000  0.5656290000000  0.4332010000000 1.0
C      1  0.5078370000000  0.5426320000000  0.3981450000000 1.0
C      1  0.5443220000000  0.4993900000000  0.4080890000000 1.0
C      1  0.4707700000000  0.3821260000000  0.5143960000000 1.0
C      1  0.4834200000000  0.5254950000000  0.5812180000000 1.0
C      1  0.6185570000000  0.5180820000000  0.4658980000000 1.0
C      1  0.3802430000000  0.4828320000000  0.4960910000000 1.0
C      1  0.3962550000000  0.4716320000000  0.4733790000000 1.0
C      1  0.5198060000000  0.4948890000000  0.5991830000000 1.0
C      1  0.4309710000000  0.4284940000000  0.4692530000000 1.0
C      1  0.5068390000000  0.4395900000000  0.4055530000000 1.0
C      1  0.4804530000000  0.5082690000000  0.5586390000000 1.0
C      1  0.5787800000000  0.5594510000000  0.5330780000000 1.0
C      1  0.5502350000000  0.5086180000000  0.5591300000000 1.0
C      1  0.4893630000000  0.4081000000000  0.5499220000000 1.0
C      1  0.6049020000000  0.4806790000000  0.5253480000000 1.0
C      1  0.4630110000000  0.4719420000000  0.4442140000000 1.0
C      1  0.5233630000000  0.5985870000000  0.4670900000000 1.0
C      1  0.5351790000000  0.4264600000000  0.4519460000000 1.0
C      1  0.5727300000000  0.5806750000000  0.4670190000000 1.0
C      1  0.4474740000000  0.5256890000000  0.4499870000000 1.0
C      1  0.4998200000000  0.4040830000000  0.4744450000000 1.0
C      1  0.4893970000000  0.4810410000000  0.5588460000000 1.0
C      1  0.4283390000000  0.5162630000000  0.4065800000000 1.0
C      1  0.5166600000000  0.5371180000000  0.5451330000000 1.0
END
