TITL C-599892-9790-578 0.000829265142080287 125000 -686.088063885648 0 0 113 (C1) n - 1
REM
REM in /home/nfs/bkarasulu/CARBON/AIRSS/Generating-Clusters/TERSOFF/Only-C1/FIRE-HFTN
REM
REM
REM
REM
REM
REM ./C.cell (11c1c37f851c82e70ff6c80c92926a4b)
REM AIRSS Version 0.9.1 bugfix July 2018 build 013d7b7c2542+ Fri, 06 Jul 2018 19:26:36 +0100
REM compiler GCC version 9.2.1 20190827 (Red Hat 9.2.1-1)
REM options -cpp -mtune=generic -march=x86-64 -g -O0 -fpre-include=/usr/include/finclude/math-vector-fortran.h
REM seed -784653129 -1893197565 20134797 -758121632 1030737544 -395196587 1010429245 -234402669 -102236099 -1770516677 2128775469 -1588072571 -362698670 -1502602975 -150256088 1912074614 609365100 -647594152 -2070548186 -1933091806 -760487648 -1969303338 -1850179390 -607230095 -158168264 -292687007 1021328216 1687156065 2130243202 -1274920299 -765556133 -1922011770 -1553821928
REM
CELL 1.54180   50.00000   50.00000   50.00000   90.00000   90.00000   90.00000
LATT -1
SFAC C  
C      1  0.5218290000000  0.6159610000000  0.4815410000000 1.0
C      1  0.4677860000000  0.4495800000000  0.4414500000000 1.0
C      1  0.4660590000000  0.4446140000000  0.3938750000000 1.0
C      1  0.4975670000000  0.5256200000000  0.5566690000000 1.0
C      1  0.5250450000000  0.6141890000000  0.5103930000000 1.0
C      1  0.5134010000000  0.4999450000000  0.4064500000000 1.0
C      1  0.5426970000000  0.6092060000000  0.4628490000000 1.0
C      1  0.4529370000000  0.6025130000000  0.5051290000000 1.0
C      1  0.5156810000000  0.4447660000000  0.6013050000000 1.0
C      1  0.5028500000000  0.5986280000000  0.5221110000000 1.0
C      1  0.5296150000000  0.4163000000000  0.4458440000000 1.0
C      1  0.4384950000000  0.4940350000000  0.5699760000000 1.0
C      1  0.4799770000000  0.4273260000000  0.4564360000000 1.0
C      1  0.5573670000000  0.5669010000000  0.4336470000000 1.0
C      1  0.5100520000000  0.5288190000000  0.6081220000000 1.0
C      1  0.5518440000000  0.4648580000000  0.4964900000000 1.0
C      1  0.4918660000000  0.5921380000000  0.4488130000000 1.0
C      1  0.4706650000000  0.5190130000000  0.5153880000000 1.0
C      1  0.4098670000000  0.5732370000000  0.5120200000000 1.0
C      1  0.5714190000000  0.4218060000000  0.5116380000000 1.0
C      1  0.5312620000000  0.5364650000000  0.4724420000000 1.0
C      1  0.4748840000000  0.4492680000000  0.5743350000000 1.0
C      1  0.5349640000000  0.3837180000000  0.5028320000000 1.0
C      1  0.4305790000000  0.5069360000000  0.4534830000000 1.0
C      1  0.5456510000000  0.6255760000000  0.5250210000000 1.0
C      1  0.5357110000000  0.4324020000000  0.5882150000000 1.0
C      1  0.5234920000000  0.5164320000000  0.4910160000000 1.0
C      1  0.4753890000000  0.4587120000000  0.4155620000000 1.0
C      1  0.4932870000000  0.6082690000000  0.4739860000000 1.0
C      1  0.4844430000000  0.5061240000000  0.5738940000000 1.0
C      1  0.5348730000000  0.4249670000000  0.5610300000000 1.0
C      1  0.5582970000000  0.3961840000000  0.5068810000000 1.0
C      1  0.5896060000000  0.4258040000000  0.5364080000000 1.0
C      1  0.4651420000000  0.5488930000000  0.5087720000000 1.0
C      1  0.5189510000000  0.4670200000000  0.5430690000000 1.0
C      1  0.5092310000000  0.5729680000000  0.5357450000000 1.0
C      1  0.4620280000000  0.5035830000000  0.4924850000000 1.0
C      1  0.5546650000000  0.5397410000000  0.4316710000000 1.0
C      1  0.4923990000000  0.4688960000000  0.5030220000000 1.0
C      1  0.5027500000000  0.4101580000000  0.4532850000000 1.0
C      1  0.4952370000000  0.5690760000000  0.5832280000000 1.0
C      1  0.5009480000000  0.4885150000000  0.5883220000000 1.0
C      1  0.4281810000000  0.5925220000000  0.5080700000000 1.0
C      1  0.4593170000000  0.5399770000000  0.5871140000000 1.0
C      1  0.4258320000000  0.4738250000000  0.5253850000000 1.0
C      1  0.4372570000000  0.4524220000000  0.5095860000000 1.0
C      1  0.4917800000000  0.4812550000000  0.4104690000000 1.0
C      1  0.5004670000000  0.4812870000000  0.5279160000000 1.0
C      1  0.5559100000000  0.4200720000000  0.4514460000000 1.0
C      1  0.5494720000000  0.4972490000000  0.5861140000000 1.0
C      1  0.4360340000000  0.5350030000000  0.4103000000000 1.0
C      1  0.4953680000000  0.4609040000000  0.5903250000000 1.0
C      1  0.4966170000000  0.5114760000000  0.5299280000000 1.0
C      1  0.5865690000000  0.4729640000000  0.5531960000000 1.0
C      1  0.5318740000000  0.4592880000000  0.4767350000000 1.0
C      1  0.4564290000000  0.4497840000000  0.5530560000000 1.0
C      1  0.5887660000000  0.4354140000000  0.4882110000000 1.0
C      1  0.4011910000000  0.5480580000000  0.5155650000000 1.0
C      1  0.4855270000000  0.5502280000000  0.4108270000000 1.0
C      1  0.4378630000000  0.4725450000000  0.5518400000000 1.0
C      1  0.5052350000000  0.5286960000000  0.4079070000000 1.0
C      1  0.4808370000000  0.6031400000000  0.5010190000000 1.0
C      1  0.4546230000000  0.5584060000000  0.5369140000000 1.0
C      1  0.5331080000000  0.4723290000000  0.4511730000000 1.0
C      1  0.5405660000000  0.4868320000000  0.4085820000000 1.0
C      1  0.5055260000000  0.5011490000000  0.4738350000000 1.0
C      1  0.4896220000000  0.3973640000000  0.5159820000000 1.0
C      1  0.4538900000000  0.5615180000000  0.5658700000000 1.0
C      1  0.5532950000000  0.4705810000000  0.4303590000000 1.0
C      1  0.5651850000000  0.6357860000000  0.5389230000000 1.0
C      1  0.5199380000000  0.4018820000000  0.5556390000000 1.0
C      1  0.4653830000000  0.5994500000000  0.4083930000000 1.0
C      1  0.5774440000000  0.4636880000000  0.4463590000000 1.0
C      1  0.5407290000000  0.5854490000000  0.4470410000000 1.0
C      1  0.4009130000000  0.4707330000000  0.4415220000000 1.0
C      1  0.4872360000000  0.5461770000000  0.6005490000000 1.0
C      1  0.4931920000000  0.5569220000000  0.4943110000000 1.0
C      1  0.5773630000000  0.4371920000000  0.4602520000000 1.0
C      1  0.5128610000000  0.5536170000000  0.5157440000000 1.0
C      1  0.4597930000000  0.5433870000000  0.4018220000000 1.0
C      1  0.5842950000000  0.4844540000000  0.4651720000000 1.0
C      1  0.5711370000000  0.4845380000000  0.4892550000000 1.0
C      1  0.4437970000000  0.5179020000000  0.4757550000000 1.0
C      1  0.6051840000000  0.4547840000000  0.5053620000000 1.0
C      1  0.5986800000000  0.4539320000000  0.5347420000000 1.0
C      1  0.5184590000000  0.5259070000000  0.5162310000000 1.0
C      1  0.4249760000000  0.5231270000000  0.4313440000000 1.0
C      1  0.5074970000000  0.3859820000000  0.4965290000000 1.0
C      1  0.4803240000000  0.5831770000000  0.4240900000000 1.0
C      1  0.4833380000000  0.4880280000000  0.4842570000000 1.0
C      1  0.5221530000000  0.4982810000000  0.4510240000000 1.0
C      1  0.4556540000000  0.4356660000000  0.5273590000000 1.0
C      1  0.5236640000000  0.5041740000000  0.5977680000000 1.0
C      1  0.5690290000000  0.4860100000000  0.5701280000000 1.0
C      1  0.5105510000000  0.5557820000000  0.4710800000000 1.0
C      1  0.5385600000000  0.5230750000000  0.4478360000000 1.0
C      1  0.5365580000000  0.4453120000000  0.5409390000000 1.0
C      1  0.4016750000000  0.5212900000000  0.5173310000000 1.0
C      1  0.5085610000000  0.4501040000000  0.4896970000000 1.0
C      1  0.4710130000000  0.5834480000000  0.5760840000000 1.0
C      1  0.5054840000000  0.5559030000000  0.5594460000000 1.0
C      1  0.4254660000000  0.4790280000000  0.4504970000000 1.0
C      1  0.4455680000000  0.5452540000000  0.4852430000000 1.0
C      1  0.4438530000000  0.4462670000000  0.4823610000000 1.0
C      1  0.5145000000000  0.5751840000000  0.4520790000000 1.0
C      1  0.4097720000000  0.4957470000000  0.5184770000000 1.0
C      1  0.4572330000000  0.5123400000000  0.5794990000000 1.0
C      1  0.5008330000000  0.3867370000000  0.4692700000000 1.0
C      1  0.5518750000000  0.4446970000000  0.5170280000000 1.0
C      1  0.4981500000000  0.3939120000000  0.5424640000000 1.0
C      1  0.4449790000000  0.4597980000000  0.4570260000000 1.0
C      1  0.4703100000000  0.4172480000000  0.5095260000000 1.0
C      1  0.4648710000000  0.4251860000000  0.4819670000000 1.0
END
