TITL C-599892-9790-396 9391.63884229009 125000 -1136.25360102077 0 0 185 (C1) n - 1
REM
REM in /home/nfs/bkarasulu/CARBON/AIRSS/Generating-Clusters/TERSOFF/Only-C1/FIRE-HFTN
REM
REM
REM
REM
REM
REM ./C.cell (11c1c37f851c82e70ff6c80c92926a4b)
REM AIRSS Version 0.9.1 bugfix July 2018 build 013d7b7c2542+ Fri, 06 Jul 2018 19:26:36 +0100
REM compiler GCC version 9.2.1 20190827 (Red Hat 9.2.1-1)
REM options -cpp -mtune=generic -march=x86-64 -g -O0 -fpre-include=/usr/include/finclude/math-vector-fortran.h
REM seed -293704829 -788438412 -1102676226 -986548514 -403298820 837614408 1871662056 1618929103 447219128 -871639084 1151708576 -1527523037 -908872672 -1850891845 -269588522 -1237318573 199271364 623963209 750096084 -276917757 -1963431021 1517213322 1702611182 401988748 -2101315940 -1744470971 827348644 1654905513 1463607056 757652879 -352175433 -1846671348 -268594385
REM
CELL 1.54180   50.00000   50.00000   50.00000   90.00000   90.00000   90.00000
LATT -1
SFAC C  
C      1  0.4949500000000  0.4297630000000  0.4255710000000 1.0
C      1  0.4764620000000  0.5504710000000  0.5285860000000 1.0
C      1  0.3788140000000  0.4331010000000  0.5700750000000 1.0
C      1  0.4484970000000  0.4981780000000  0.5498390000000 1.0
C      1  0.4276840000000  0.5304150000000  0.4043650000000 1.0
C      1  0.4322610000000  0.4408900000000  0.5740600000000 1.0
C      1  0.4143980000000  0.5316400000000  0.5295080000000 1.0
C      1  0.5677040000000  0.4733510000000  0.4607330000000 1.0
C      1  0.4677850000000  0.3815460000000  0.5341190000000 1.0
C      1  0.4085380000000  0.4852300000000  0.4141020000000 1.0
C      1  0.5657820000000  0.5838620000000  0.4614790000000 1.0
C      1  0.4413230000000  0.4449780000000  0.5446540000000 1.0
C      1  0.5083450000000  0.5147720000000  0.5133120000000 1.0
C      1  0.4793730000000  0.3878280000000  0.5577380000000 1.0
C      1  0.4440130000000  0.4148210000000  0.5842900000000 1.0
C      1  0.4968540000000  0.6210360000000  0.5197410000000 1.0
C      1  0.5901720000000  0.4840870000000  0.5648480000000 1.0
C      1  0.6006620000000  0.5372760000000  0.5348180000000 1.0
C      1  0.4390280000000  0.4856310000000  0.6016140000000 1.0
C      1  0.4855500000000  0.5821780000000  0.5856260000000 1.0
C      1  0.4864440000000  0.4625580000000  0.6198770000000 1.0
C      1  0.5279680000000  0.5622500000000  0.5804500000000 1.0
C      1  0.5289870000000  0.5608930000000  0.4297000000000 1.0
C      1  0.3909590000000  0.4384410000000  0.4675710000000 1.0
C      1  0.5723100000000  0.5716940000000  0.4150360000000 1.0
C      1  0.4176090000000  0.4955330000000  0.4399100000000 1.0
C      1  0.5381030000000  0.5753680000000  0.5546690000000 1.0
C      1  0.3459980000000  0.5107930000000  0.5164370000000 1.0
C      1  0.4029320000000  0.4417410000000  0.5775110000000 1.0
C      1  0.5489520000000  0.4713320000000  0.4102600000000 1.0
C      1  0.5567660000000  0.5294060000000  0.5348550000000 1.0
C      1  0.5529540000000  0.3853040000000  0.4661390000000 1.0
C      1  0.5676940000000  0.4282630000000  0.5555880000000 1.0
C      1  0.5306620000000  0.5437700000000  0.4499980000000 1.0
C      1  0.5650520000000  0.4745150000000  0.5800130000000 1.0
C      1  0.6025440000000  0.5111300000000  0.5577490000000 1.0
C      1  0.4844570000000  0.5985070000000  0.4211050000000 1.0
C      1  0.5341800000000  0.5176360000000  0.4042570000000 1.0
C      1  0.4923570000000  0.4519380000000  0.3617420000000 1.0
C      1  0.6461960000000  0.4875440000000  0.4830020000000 1.0
C      1  0.6080590000000  0.4565430000000  0.4974110000000 1.0
C      1  0.5255510000000  0.6155970000000  0.5305890000000 1.0
C      1  0.5531900000000  0.4032750000000  0.4457990000000 1.0
C      1  0.5473770000000  0.5323030000000  0.6096720000000 1.0
C      1  0.4267120000000  0.5472300000000  0.5084810000000 1.0
C      1  0.4794570000000  0.5583570000000  0.4782710000000 1.0
C      1  0.4654870000000  0.5518050000000  0.4272780000000 1.0
C      1  0.5327780000000  0.5084910000000  0.6112620000000 1.0
C      1  0.4916540000000  0.5088530000000  0.3852650000000 1.0
C      1  0.4914160000000  0.4886700000000  0.6230310000000 1.0
C      1  0.5139860000000  0.4201070000000  0.5681810000000 1.0
C      1  0.5598310000000  0.5710660000000  0.4872640000000 1.0
C      1  0.5653570000000  0.4829310000000  0.5152690000000 1.0
C      1  0.5854400000000  0.5589470000000  0.4955630000000 1.0
C      1  0.4284240000000  0.5014120000000  0.3972390000000 1.0
C      1  0.5213760000000  0.6015720000000  0.5564250000000 1.0
C      1  0.4956630000000  0.5889910000000  0.5597900000000 1.0
C      1  0.5550610000000  0.6063890000000  0.5252420000000 1.0
C      1  0.4600570000000  0.5328750000000  0.5914700000000 1.0
C      1  0.5836490000000  0.5681620000000  0.4422370000000 1.0
C      1  0.5162670000000  0.5028190000000  0.4681750000000 1.0
C      1  0.5609980000000  0.4013270000000  0.5127010000000 1.0
C      1  0.5039060000000  0.5116400000000  0.6124850000000 1.0
C      1  0.3614490000000  0.5268060000000  0.5311430000000 1.0
C      1  0.4456350000000  0.4564000000000  0.4712160000000 1.0
C      1  0.4647750000000  0.5059890000000  0.4766230000000 1.0
C      1  0.5020630000000  0.5596660000000  0.5935340000000 1.0
C      1  0.3679420000000  0.4202830000000  0.5492300000000 1.0
C      1  0.5643260000000  0.5805140000000  0.5406010000000 1.0
C      1  0.5389640000000  0.4446340000000  0.4131350000000 1.0
C      1  0.5593720000000  0.5110520000000  0.5113820000000 1.0
C      1  0.6102660000000  0.5259100000000  0.5811570000000 1.0
C      1  0.4817630000000  0.6131850000000  0.4955570000000 1.0
C      1  0.4377580000000  0.4748540000000  0.5374370000000 1.0
C      1  0.5469640000000  0.4510180000000  0.4613540000000 1.0
C      1  0.5451270000000  0.4627330000000  0.5128790000000 1.0
C      1  0.6071020000000  0.5439310000000  0.5076670000000 1.0
C      1  0.4202540000000  0.4679280000000  0.4883240000000 1.0
C      1  0.5228900000000  0.4113320000000  0.5421330000000 1.0
C      1  0.4793720000000  0.4849190000000  0.3947950000000 1.0
C      1  0.5586940000000  0.5164630000000  0.4824220000000 1.0
C      1  0.5227990000000  0.5644850000000  0.5289490000000 1.0
C      1  0.4340520000000  0.5237540000000  0.5500370000000 1.0
C      1  0.5103050000000  0.4429870000000  0.4056800000000 1.0
C      1  0.4857910000000  0.5299990000000  0.5127000000000 1.0
C      1  0.5875130000000  0.5154460000000  0.4423510000000 1.0
C      1  0.5620810000000  0.5253690000000  0.4016880000000 1.0
C      1  0.4952440000000  0.5680010000000  0.5387450000000 1.0
C      1  0.4798860000000  0.5304230000000  0.4371370000000 1.0
C      1  0.5754670000000  0.5522600000000  0.5378150000000 1.0
C      1  0.4997260000000  0.4718060000000  0.5087850000000 1.0
C      1  0.6049910000000  0.4603570000000  0.5569340000000 1.0
C      1  0.4585320000000  0.6329330000000  0.3882080000000 1.0
C      1  0.4707570000000  0.4175730000000  0.4198950000000 1.0
C      1  0.4371170000000  0.5470710000000  0.4273360000000 1.0
C      1  0.3506480000000  0.4914900000000  0.4986730000000 1.0
C      1  0.4046090000000  0.4425320000000  0.4426190000000 1.0
C      1  0.5102450000000  0.5289260000000  0.3926690000000 1.0
C      1  0.4104800000000  0.5183650000000  0.4548280000000 1.0
C      1  0.5206160000000  0.4650610000000  0.5267790000000 1.0
C      1  0.3928050000000  0.4628850000000  0.4817490000000 1.0
C      1  0.4749230000000  0.5304650000000  0.4861460000000 1.0
C      1  0.4305260000000  0.5565730000000  0.4802440000000 1.0
C      1  0.5950830000000  0.5425580000000  0.4466350000000 1.0
C      1  0.4030590000000  0.4167980000000  0.4831440000000 1.0
C      1  0.4464870000000  0.3930640000000  0.4864320000000 1.0
C      1  0.5517070000000  0.4095660000000  0.5387340000000 1.0
C      1  0.4843680000000  0.6179780000000  0.4680990000000 1.0
C      1  0.4577940000000  0.3838350000000  0.5091490000000 1.0
C      1  0.4702290000000  0.4464690000000  0.6039550000000 1.0
C      1  0.5307300000000  0.4927020000000  0.4194560000000 1.0
C      1  0.5950360000000  0.4322350000000  0.4924390000000 1.0
C      1  0.5001630000000  0.5559300000000  0.3954120000000 1.0
C      1  0.4456190000000  0.5449480000000  0.5674840000000 1.0
C      1  0.4902190000000  0.4071310000000  0.5764730000000 1.0
C      1  0.6327010000000  0.4649250000000  0.4874270000000 1.0
C      1  0.4070180000000  0.4560720000000  0.4158770000000 1.0
C      1  0.4577950000000  0.5861130000000  0.5857650000000 1.0
C      1  0.5547800000000  0.3812740000000  0.4931640000000 1.0
C      1  0.5614750000000  0.5353390000000  0.5852750000000 1.0
C      1  0.5250710000000  0.4465530000000  0.5710820000000 1.0
C      1  0.4887570000000  0.5347120000000  0.6002080000000 1.0
C      1  0.4550750000000  0.5739600000000  0.4828050000000 1.0
C      1  0.4974310000000  0.6107840000000  0.4442900000000 1.0
C      1  0.5477080000000  0.5994640000000  0.4444380000000 1.0
C      1  0.5447140000000  0.4408460000000  0.4903880000000 1.0
C      1  0.5067160000000  0.5677360000000  0.4827810000000 1.0
C      1  0.4291790000000  0.4097580000000  0.4715610000000 1.0
C      1  0.4753250000000  0.4963750000000  0.5587410000000 1.0
C      1  0.4763210000000  0.4563170000000  0.5103880000000 1.0
C      1  0.6297230000000  0.5343330000000  0.4947420000000 1.0
C      1  0.5537540000000  0.4481930000000  0.5718530000000 1.0
C      1  0.4281590000000  0.4399260000000  0.4039620000000 1.0
C      1  0.5194300000000  0.4601860000000  0.4532140000000 1.0
C      1  0.5142050000000  0.4668630000000  0.5543550000000 1.0
C      1  0.4824530000000  0.5704040000000  0.4135100000000 1.0
C      1  0.3699100000000  0.4774340000000  0.4870530000000 1.0
C      1  0.4464800000000  0.4599390000000  0.5934560000000 1.0
C      1  0.5471080000000  0.5243000000000  0.5614670000000 1.0
C      1  0.4941660000000  0.4601870000000  0.3881350000000 1.0
C      1  0.4468150000000  0.4895770000000  0.4367050000000 1.0
C      1  0.5505370000000  0.4303760000000  0.4375440000000 1.0
C      1  0.5488890000000  0.4868440000000  0.6007400000000 1.0
C      1  0.5216750000000  0.5124410000000  0.5634900000000 1.0
C      1  0.5008340000000  0.4390530000000  0.4512310000000 1.0
C      1  0.5347350000000  0.5240990000000  0.4689790000000 1.0
C      1  0.4457830000000  0.5756320000000  0.5615080000000 1.0
C      1  0.5723180000000  0.5509660000000  0.3961690000000 1.0
C      1  0.4747640000000  0.4379190000000  0.5310460000000 1.0
C      1  0.3871530000000  0.5322850000000  0.5349080000000 1.0
C      1  0.4586880000000  0.5952950000000  0.5028970000000 1.0
C      1  0.5886150000000  0.5419130000000  0.5889380000000 1.0
C      1  0.4740860000000  0.6194800000000  0.5398060000000 1.0
C      1  0.4501150000000  0.5561740000000  0.5226200000000 1.0
C      1  0.5686690000000  0.4241060000000  0.4973190000000 1.0
C      1  0.5042020000000  0.4190460000000  0.5221060000000 1.0
C      1  0.5178510000000  0.4869440000000  0.4449350000000 1.0
C      1  0.4241910000000  0.5436430000000  0.4542950000000 1.0
C      1  0.5309060000000  0.5677560000000  0.4998680000000 1.0
C      1  0.4712750000000  0.4193160000000  0.5934880000000 1.0
C      1  0.5920580000000  0.4752110000000  0.5111250000000 1.0
C      1  0.4017730000000  0.4172370000000  0.5116880000000 1.0
C      1  0.4539980000000  0.5978890000000  0.5339340000000 1.0
C      1  0.5252770000000  0.6155710000000  0.4458830000000 1.0
C      1  0.6444590000000  0.5140000000000  0.4859000000000 1.0
C      1  0.3777380000000  0.4127340000000  0.5254530000000 1.0
C      1  0.6344530000000  0.5244170000000  0.5933320000000 1.0
C      1  0.5757310000000  0.4803070000000  0.4085030000000 1.0
C      1  0.5128810000000  0.4248560000000  0.4954570000000 1.0
C      1  0.5028670000000  0.4917290000000  0.5615090000000 1.0
C      1  0.4575450000000  0.4832780000000  0.4612880000000 1.0
C      1  0.4543200000000  0.4896140000000  0.4083250000000 1.0
C      1  0.4691790000000  0.4445720000000  0.4858180000000 1.0
C      1  0.5752460000000  0.5008070000000  0.4639450000000 1.0
C      1  0.4344590000000  0.4333660000000  0.4514440000000 1.0
C      1  0.4717180000000  0.6165500000000  0.4035980000000 1.0
C      1  0.4920730000000  0.4302160000000  0.4759920000000 1.0
C      1  0.5951010000000  0.4352490000000  0.5526710000000 1.0
C      1  0.5462160000000  0.5817360000000  0.4213900000000 1.0
C      1  0.4452910000000  0.4276380000000  0.4236420000000 1.0
C      1  0.5803050000000  0.5074380000000  0.4155290000000 1.0
C      1  0.5078390000000  0.4941160000000  0.4937940000000 1.0
C      1  0.4255090000000  0.4792550000000  0.5128240000000 1.0
C      1  0.4239440000000  0.4271030000000  0.5268760000000 1.0
C      1  0.4451260000000  0.5116330000000  0.6035320000000 1.0
END
