TITL C-599892-9790-439 6.74195199615474e-06 125000 -883.392813158419 0 0 143 (C1) n - 1
REM
REM in /home/nfs/bkarasulu/CARBON/AIRSS/Generating-Clusters/TERSOFF/Only-C1/FIRE-HFTN
REM
REM
REM
REM
REM
REM ./C.cell (11c1c37f851c82e70ff6c80c92926a4b)
REM AIRSS Version 0.9.1 bugfix July 2018 build 013d7b7c2542+ Fri, 06 Jul 2018 19:26:36 +0100
REM compiler GCC version 9.2.1 20190827 (Red Hat 9.2.1-1)
REM options -cpp -mtune=generic -march=x86-64 -g -O0 -fpre-include=/usr/include/finclude/math-vector-fortran.h
REM seed 1299142839 -1079392939 1602937207 -1197414487 -1608917121 -1290644896 -18468627 -2056324875 -852661707 -1841779668 1168905582 2118902127 -841212517 1601492299 -630177579 1920414439 -2132937930 -1090171879 -328303306 -6192481 -1363132660 -752130817 -547388892 785512130 -1109639315 1030825197 -340369471 533941520 203122162 1496109455 -298241061 -1409518128 395852828
REM
CELL 1.54180   50.00000   50.00000   50.00000   90.00000   90.00000   90.00000
LATT -1
SFAC C  
C      1  0.6234990000000  0.4836320000000  0.4658630000000 1.0
C      1  0.4446790000000  0.5120340000000  0.5221900000000 1.0
C      1  0.4248920000000  0.5618460000000  0.4991480000000 1.0
C      1  0.4334120000000  0.4706530000000  0.6361260000000 1.0
C      1  0.5183040000000  0.5435460000000  0.5407670000000 1.0
C      1  0.5004740000000  0.6088470000000  0.4915530000000 1.0
C      1  0.4905050000000  0.5596710000000  0.4753710000000 1.0
C      1  0.4236090000000  0.4982860000000  0.6009580000000 1.0
C      1  0.5047080000000  0.4034550000000  0.5285650000000 1.0
C      1  0.3900070000000  0.5761950000000  0.5704000000000 1.0
C      1  0.4277660000000  0.5206440000000  0.4732850000000 1.0
C      1  0.5128840000000  0.5697490000000  0.4254430000000 1.0
C      1  0.4820750000000  0.5345910000000  0.5144300000000 1.0
C      1  0.4166960000000  0.4724380000000  0.6126260000000 1.0
C      1  0.5676320000000  0.4663250000000  0.4239800000000 1.0
C      1  0.5319030000000  0.4850390000000  0.5623580000000 1.0
C      1  0.5057520000000  0.4727200000000  0.5519760000000 1.0
C      1  0.4624410000000  0.4284790000000  0.4542210000000 1.0
C      1  0.4317070000000  0.5030840000000  0.4973720000000 1.0
C      1  0.5456680000000  0.4470790000000  0.5120100000000 1.0
C      1  0.4779880000000  0.4056820000000  0.4458580000000 1.0
C      1  0.5446360000000  0.5250330000000  0.4426770000000 1.0
C      1  0.5815530000000  0.4211840000000  0.4772550000000 1.0
C      1  0.5530620000000  0.5787120000000  0.4640230000000 1.0
C      1  0.5252240000000  0.4513580000000  0.4937440000000 1.0
C      1  0.3989820000000  0.4828720000000  0.4363700000000 1.0
C      1  0.5754780000000  0.5283730000000  0.5678040000000 1.0
C      1  0.5119110000000  0.4738150000000  0.4474850000000 1.0
C      1  0.5334910000000  0.6324640000000  0.5252200000000 1.0
C      1  0.4506240000000  0.4923290000000  0.6375370000000 1.0
C      1  0.4776920000000  0.6006710000000  0.4511770000000 1.0
C      1  0.4997010000000  0.5359030000000  0.4615840000000 1.0
C      1  0.5257610000000  0.5817870000000  0.4506330000000 1.0
C      1  0.6184020000000  0.5081670000000  0.4536540000000 1.0
C      1  0.4677420000000  0.6367390000000  0.5162410000000 1.0
C      1  0.4712830000000  0.5484090000000  0.5850540000000 1.0
C      1  0.4592420000000  0.5262970000000  0.4384600000000 1.0
C      1  0.5910690000000  0.5096770000000  0.4434330000000 1.0
C      1  0.5723320000000  0.5589620000000  0.4545190000000 1.0
C      1  0.4463470000000  0.5102120000000  0.6152740000000 1.0
C      1  0.5778280000000  0.5052990000000  0.5476910000000 1.0
C      1  0.5348460000000  0.5916320000000  0.5818930000000 1.0
C      1  0.4128110000000  0.5105460000000  0.5785980000000 1.0
C      1  0.5590320000000  0.5178650000000  0.5888670000000 1.0
C      1  0.4734310000000  0.5548410000000  0.4972840000000 1.0
C      1  0.5526870000000  0.4161940000000  0.4316080000000 1.0
C      1  0.4683450000000  0.4088530000000  0.4966420000000 1.0
C      1  0.5958190000000  0.4208900000000  0.5262720000000 1.0
C      1  0.5291400000000  0.3913320000000  0.5353680000000 1.0
C      1  0.5710570000000  0.5542030000000  0.5513650000000 1.0
C      1  0.4011370000000  0.4414410000000  0.5741020000000 1.0
C      1  0.5415130000000  0.3930570000000  0.4845150000000 1.0
C      1  0.4775970000000  0.4624380000000  0.5114130000000 1.0
C      1  0.5210240000000  0.6234200000000  0.5034660000000 1.0
C      1  0.5432060000000  0.4771650000000  0.4124760000000 1.0
C      1  0.5657730000000  0.5820560000000  0.5444230000000 1.0
C      1  0.4606650000000  0.5314880000000  0.6047600000000 1.0
C      1  0.5446320000000  0.6249020000000  0.5483110000000 1.0
C      1  0.4996890000000  0.4477770000000  0.5032030000000 1.0
C      1  0.5061250000000  0.4042360000000  0.4523680000000 1.0
C      1  0.4831690000000  0.4937950000000  0.3862110000000 1.0
C      1  0.5683980000000  0.4375240000000  0.4251360000000 1.0
C      1  0.5333580000000  0.5018740000000  0.4008450000000 1.0
C      1  0.4569550000000  0.4307430000000  0.4821690000000 1.0
C      1  0.4264940000000  0.5500500000000  0.4731320000000 1.0
C      1  0.4423420000000  0.5299260000000  0.5460030000000 1.0
C      1  0.5349230000000  0.5288410000000  0.4913250000000 1.0
C      1  0.5049580000000  0.4439830000000  0.5595420000000 1.0
C      1  0.4182310000000  0.5315890000000  0.5609950000000 1.0
C      1  0.5011670000000  0.5891450000000  0.4681060000000 1.0
C      1  0.4345980000000  0.4932740000000  0.4029450000000 1.0
C      1  0.3835540000000  0.4618450000000  0.4831660000000 1.0
C      1  0.4619280000000  0.4857910000000  0.4029720000000 1.0
C      1  0.4207180000000  0.4978770000000  0.4274500000000 1.0
C      1  0.4377480000000  0.4222550000000  0.5498940000000 1.0
C      1  0.5136460000000  0.4363550000000  0.4171400000000 1.0
C      1  0.5913820000000  0.4474790000000  0.5155030000000 1.0
C      1  0.4412850000000  0.5677820000000  0.4531320000000 1.0
C      1  0.5235550000000  0.4360440000000  0.5795390000000 1.0
C      1  0.5671920000000  0.4587050000000  0.5276630000000 1.0
C      1  0.4735890000000  0.6153830000000  0.5003060000000 1.0
C      1  0.4673000000000  0.5428670000000  0.5572470000000 1.0
C      1  0.4913840000000  0.4220720000000  0.5464950000000 1.0
C      1  0.5458170000000  0.4215070000000  0.5829920000000 1.0
C      1  0.4036300000000  0.4465440000000  0.5254760000000 1.0
C      1  0.5715150000000  0.4981250000000  0.4852990000000 1.0
C      1  0.4539410000000  0.4564550000000  0.4961650000000 1.0
C      1  0.5209830000000  0.4627040000000  0.4229810000000 1.0
C      1  0.4737070000000  0.5078570000000  0.5204130000000 1.0
C      1  0.4131700000000  0.4357030000000  0.5494710000000 1.0
C      1  0.4352030000000  0.5130750000000  0.4465870000000 1.0
C      1  0.4536650000000  0.5977500000000  0.4906600000000 1.0
C      1  0.4882030000000  0.4884780000000  0.4445380000000 1.0
C      1  0.5920270000000  0.5080200000000  0.4997340000000 1.0
C      1  0.5387570000000  0.4924690000000  0.5183660000000 1.0
C      1  0.3875640000000  0.4700430000000  0.4566650000000 1.0
C      1  0.4510500000000  0.5723970000000  0.5032960000000 1.0
C      1  0.5259770000000  0.4653000000000  0.4698010000000 1.0
C      1  0.4836040000000  0.5161450000000  0.4488590000000 1.0
C      1  0.5606120000000  0.4047260000000  0.5680340000000 1.0
C      1  0.5847430000000  0.5201220000000  0.5234060000000 1.0
C      1  0.4305040000000  0.4736670000000  0.4957790000000 1.0
C      1  0.5628820000000  0.5946350000000  0.4869000000000 1.0
C      1  0.4032580000000  0.5550210000000  0.5629200000000 1.0
C      1  0.5834750000000  0.4801510000000  0.4432920000000 1.0
C      1  0.5507180000000  0.6002050000000  0.5604610000000 1.0
C      1  0.4639810000000  0.4186490000000  0.5514320000000 1.0
C      1  0.5229920000000  0.5316220000000  0.5658750000000 1.0
C      1  0.5242660000000  0.4150400000000  0.4327870000000 1.0
C      1  0.5269510000000  0.5312460000000  0.4644760000000 1.0
C      1  0.4890600000000  0.5689110000000  0.5924240000000 1.0
C      1  0.4547320000000  0.3655450000000  0.4182700000000 1.0
C      1  0.5337030000000  0.5089490000000  0.5786790000000 1.0
C      1  0.5731440000000  0.6194700000000  0.4799270000000 1.0
C      1  0.5119670000000  0.5825030000000  0.5920490000000 1.0
C      1  0.5455620000000  0.5029260000000  0.4941680000000 1.0
C      1  0.4017190000000  0.5671800000000  0.5120060000000 1.0
C      1  0.5926350000000  0.4468270000000  0.4852700000000 1.0
C      1  0.5275160000000  0.5520030000000  0.4085730000000 1.0
C      1  0.4658970000000  0.3849460000000  0.4316110000000 1.0
C      1  0.4853300000000  0.4830680000000  0.5304060000000 1.0
C      1  0.6000880000000  0.4659760000000  0.4649570000000 1.0
C      1  0.5669480000000  0.4019360000000  0.4928530000000 1.0
C      1  0.4516450000000  0.5939000000000  0.4617760000000 1.0
C      1  0.5751020000000  0.4014600000000  0.5208380000000 1.0
C      1  0.5554600000000  0.4835700000000  0.5417690000000 1.0
C      1  0.5563350000000  0.3956580000000  0.5415890000000 1.0
C      1  0.5724810000000  0.5313320000000  0.4464740000000 1.0
C      1  0.4692830000000  0.4743310000000  0.4281450000000 1.0
C      1  0.4589770000000  0.4500720000000  0.4370930000000 1.0
C      1  0.5658390000000  0.5875980000000  0.5150170000000 1.0
C      1  0.4032960000000  0.4531880000000  0.5979050000000 1.0
C      1  0.5095310000000  0.4994550000000  0.3851790000000 1.0
C      1  0.4900120000000  0.5455750000000  0.5389220000000 1.0
C      1  0.5657940000000  0.5418750000000  0.5250100000000 1.0
C      1  0.4951050000000  0.4003060000000  0.5015120000000 1.0
C      1  0.4590280000000  0.5544440000000  0.4340550000000 1.0
C      1  0.4836290000000  0.5661140000000  0.4235540000000 1.0
C      1  0.5375780000000  0.5420900000000  0.5173680000000 1.0
C      1  0.5139460000000  0.3973620000000  0.4793130000000 1.0
C      1  0.4054730000000  0.4608180000000  0.5012960000000 1.0
C      1  0.5362570000000  0.5260520000000  0.4155540000000 1.0
C      1  0.3583730000000  0.4551120000000  0.4915890000000 1.0
END
