TITL C-599896-8500-23 0.66762674930766 125000 -519.588995497504 0 0 86 (C1) n - 1
REM
REM in /home/nfs/bkarasulu/CARBON/AIRSS/Generating-Clusters/TERSOFF/Only-C1/FIRE-HFTN
REM
REM
REM
REM
REM
REM ./C.cell (11c1c37f851c82e70ff6c80c92926a4b)
REM AIRSS Version 0.9.1 bugfix July 2018 build 013d7b7c2542+ Fri, 06 Jul 2018 19:26:36 +0100
REM compiler GCC version 9.2.1 20190827 (Red Hat 9.2.1-1)
REM options -cpp -mtune=generic -march=x86-64 -g -O0 -fpre-include=/usr/include/finclude/math-vector-fortran.h
REM seed 1324839813 2082653810 -1154509572 1800035703 263195769 -1846097947 -436867303 -1431626957 1330345130 -1603013069 1077340206 1401857598 -1813214573 -1610901454 784220359 -365558381 -1806930319 30227432 960323068 -1642420494 -570197320 -1757982955 819324945 1604894564 137034552 -1111991757 687875920 655330234 -2078957838 246092907 1863212834 1797662184 2035475179
REM
CELL 1.54180   50.00000   50.00000   50.00000   90.00000   90.00000   90.00000
LATT -1
SFAC C  
C      1  0.5221950000000  0.4398310000000  0.4424490000000 1.0
C      1  0.5621390000000  0.5225300000000  0.5575260000000 1.0
C      1  0.4563460000000  0.4055660000000  0.5586820000000 1.0
C      1  0.5149820000000  0.5652210000000  0.4433070000000 1.0
C      1  0.4898910000000  0.5708540000000  0.4864900000000 1.0
C      1  0.4662740000000  0.5527430000000  0.4479540000000 1.0
C      1  0.5455150000000  0.5295210000000  0.4853320000000 1.0
C      1  0.5514990000000  0.5362590000000  0.4335300000000 1.0
C      1  0.6245330000000  0.4492530000000  0.4940470000000 1.0
C      1  0.5433590000000  0.5788250000000  0.5918450000000 1.0
C      1  0.4149630000000  0.4928400000000  0.5374510000000 1.0
C      1  0.4234900000000  0.4798130000000  0.4455700000000 1.0
C      1  0.5138870000000  0.4760910000000  0.5309560000000 1.0
C      1  0.5545660000000  0.5480190000000  0.4606740000000 1.0
C      1  0.5493160000000  0.4170020000000  0.4748460000000 1.0
C      1  0.4353320000000  0.4542640000000  0.4458770000000 1.0
C      1  0.4895250000000  0.4320760000000  0.5254610000000 1.0
C      1  0.4335080000000  0.4696660000000  0.5412300000000 1.0
C      1  0.5413120000000  0.5083510000000  0.5736140000000 1.0
C      1  0.5609240000000  0.4631850000000  0.4587770000000 1.0
C      1  0.4304480000000  0.4357950000000  0.4263910000000 1.0
C      1  0.5294080000000  0.5988920000000  0.4937420000000 1.0
C      1  0.4763860000000  0.4617930000000  0.5950920000000 1.0
C      1  0.5101240000000  0.4723660000000  0.5612680000000 1.0
C      1  0.5148670000000  0.4428010000000  0.4159010000000 1.0
C      1  0.5104500000000  0.5431400000000  0.5938390000000 1.0
C      1  0.4899230000000  0.5651570000000  0.4577250000000 1.0
C      1  0.4468730000000  0.5629790000000  0.5179050000000 1.0
C      1  0.4578580000000  0.5075930000000  0.5415660000000 1.0
C      1  0.5070740000000  0.4591730000000  0.3964380000000 1.0
C      1  0.5726470000000  0.5131630000000  0.5327100000000 1.0
C      1  0.5614830000000  0.4455450000000  0.6063380000000 1.0
C      1  0.4797090000000  0.4585520000000  0.4652490000000 1.0
C      1  0.5456950000000  0.4870690000000  0.4530230000000 1.0
C      1  0.5032560000000  0.5102200000000  0.3911590000000 1.0
C      1  0.5217900000000  0.4494680000000  0.4895000000000 1.0
C      1  0.4347600000000  0.4514430000000  0.5191470000000 1.0
C      1  0.4414670000000  0.4446590000000  0.4937670000000 1.0
C      1  0.5707720000000  0.5240890000000  0.4187820000000 1.0
C      1  0.5491480000000  0.4369960000000  0.4531360000000 1.0
C      1  0.5747560000000  0.4665850000000  0.4835650000000 1.0
C      1  0.5023320000000  0.4838650000000  0.3877650000000 1.0
C      1  0.5329900000000  0.4685840000000  0.5084130000000 1.0
C      1  0.6004850000000  0.4578190000000  0.4888140000000 1.0
C      1  0.5547870000000  0.5508350000000  0.5521170000000 1.0
C      1  0.3801650000000  0.4900970000000  0.4997530000000 1.0
C      1  0.5297660000000  0.5062610000000  0.4676300000000 1.0
C      1  0.4709110000000  0.4198200000000  0.5424250000000 1.0
C      1  0.5109750000000  0.4151160000000  0.5156520000000 1.0
C      1  0.4109490000000  0.5005500000000  0.4596060000000 1.0
C      1  0.4238670000000  0.5251200000000  0.4665900000000 1.0
C      1  0.5247270000000  0.5446390000000  0.4248550000000 1.0
C      1  0.4179840000000  0.5348440000000  0.4925820000000 1.0
C      1  0.5020510000000  0.5023180000000  0.4684400000000 1.0
C      1  0.5322260000000  0.5482810000000  0.5340860000000 1.0
C      1  0.5057420000000  0.4476100000000  0.4646060000000 1.0
C      1  0.5622550000000  0.5082430000000  0.5069810000000 1.0
C      1  0.5302310000000  0.4218940000000  0.4959540000000 1.0
C      1  0.5172610000000  0.5255150000000  0.5732770000000 1.0
C      1  0.5135580000000  0.5294290000000  0.5448750000000 1.0
C      1  0.4764170000000  0.4823970000000  0.5047500000000 1.0
C      1  0.5435780000000  0.5978950000000  0.4706540000000 1.0
C      1  0.4420000000000  0.5864800000000  0.5307870000000 1.0
C      1  0.3902900000000  0.4901940000000  0.5245230000000 1.0
C      1  0.5114740000000  0.5059090000000  0.5300800000000 1.0
C      1  0.4825140000000  0.4841120000000  0.4772690000000 1.0
C      1  0.5153070000000  0.5748770000000  0.4988930000000 1.0
C      1  0.5107570000000  0.5319190000000  0.4045360000000 1.0
C      1  0.5579330000000  0.5719530000000  0.5701950000000 1.0
C      1  0.4705060000000  0.5575570000000  0.5025670000000 1.0
C      1  0.5309160000000  0.5521490000000  0.5064990000000 1.0
C      1  0.4889290000000  0.4610350000000  0.5204330000000 1.0
C      1  0.3877200000000  0.4940690000000  0.4743800000000 1.0
C      1  0.4284730000000  0.5402750000000  0.5183670000000 1.0
C      1  0.4528830000000  0.4486650000000  0.4677010000000 1.0
C      1  0.5581410000000  0.4806630000000  0.5021720000000 1.0
C      1  0.5404140000000  0.5738080000000  0.4566690000000 1.0
C      1  0.5219220000000  0.5660760000000  0.6022100000000 1.0
C      1  0.4439490000000  0.5381680000000  0.4515350000000 1.0
C      1  0.4814960000000  0.4718470000000  0.5698280000000 1.0
C      1  0.4761150000000  0.5303030000000  0.5031880000000 1.0
C      1  0.5338070000000  0.4806210000000  0.5762530000000 1.0
C      1  0.4581970000000  0.4811880000000  0.5543870000000 1.0
C      1  0.5482220000000  0.4626930000000  0.5918750000000 1.0
C      1  0.4717100000000  0.5070490000000  0.5170420000000 1.0
C      1  0.4306190000000  0.5178680000000  0.5369250000000 1.0
END
