TITL C-599891-72-576 0.0181323555561521 125000 -805.062061419121 0 0 132 (C1) n - 1
REM
REM in /home/nfs/bkarasulu/CARBON/AIRSS/Generating-Clusters/TERSOFF/Only-C1/FIRE-HFTN
REM
REM
REM
REM
REM
REM ./C.cell (11c1c37f851c82e70ff6c80c92926a4b)
REM AIRSS Version 0.9.1 bugfix July 2018 build 013d7b7c2542+ Fri, 06 Jul 2018 19:26:36 +0100
REM compiler GCC version 9.2.1 20190827 (Red Hat 9.2.1-1)
REM options -cpp -mtune=generic -march=x86-64 -g -O0 -fpre-include=/usr/include/finclude/math-vector-fortran.h
REM seed 1615197862 567243402 -150961408 885822535 -1813739115 -889300176 -1075372808 -1538736737 920638850 1080673680 -2029937764 136303449 -1447833584 1856853907 -366334290 -219345771 1148844139 -523330615 -1798492152 430996003 -1401491059 -2042077190 -1534246966 297215616 866687195 -20189772 365076105 -1597251095 1691318218 -128315289 403486044 -1653258601 742702070
REM
CELL 1.54180   50.00000   50.00000   50.00000   90.00000   90.00000   90.00000
LATT -1
SFAC C  
C      1  0.3978650000000  0.4639290000000  0.4537390000000 1.0
C      1  0.4734920000000  0.4555920000000  0.5140930000000 1.0
C      1  0.4068660000000  0.5322280000000  0.5182810000000 1.0
C      1  0.4618190000000  0.4675250000000  0.6015910000000 1.0
C      1  0.4959090000000  0.5412000000000  0.4685150000000 1.0
C      1  0.4479030000000  0.4547620000000  0.5817510000000 1.0
C      1  0.4711340000000  0.5817340000000  0.4327970000000 1.0
C      1  0.5060390000000  0.5397120000000  0.5847230000000 1.0
C      1  0.5463970000000  0.4141100000000  0.4208340000000 1.0
C      1  0.4507550000000  0.4677210000000  0.4334270000000 1.0
C      1  0.5507340000000  0.5199670000000  0.5836870000000 1.0
C      1  0.4394570000000  0.5356870000000  0.5765830000000 1.0
C      1  0.4459110000000  0.4340270000000  0.5617150000000 1.0
C      1  0.4844250000000  0.6206370000000  0.4964370000000 1.0
C      1  0.4328320000000  0.4337750000000  0.5350660000000 1.0
C      1  0.4462190000000  0.5881730000000  0.4766190000000 1.0
C      1  0.5438360000000  0.5648560000000  0.4282310000000 1.0
C      1  0.4993030000000  0.3691420000000  0.6151060000000 1.0
C      1  0.3955630000000  0.4890490000000  0.4914620000000 1.0
C      1  0.4606660000000  0.6105550000000  0.4868740000000 1.0
C      1  0.6065410000000  0.5120780000000  0.5179770000000 1.0
C      1  0.4439590000000  0.4172120000000  0.5139480000000 1.0
C      1  0.5670310000000  0.4987900000000  0.4128910000000 1.0
C      1  0.5930540000000  0.4956070000000  0.4983170000000 1.0
C      1  0.5144260000000  0.5172980000000  0.5082650000000 1.0
C      1  0.4852530000000  0.5383430000000  0.5660040000000 1.0
C      1  0.4098530000000  0.4467580000000  0.4743590000000 1.0
C      1  0.5185860000000  0.4639890000000  0.4546740000000 1.0
C      1  0.5073830000000  0.6049150000000  0.5045530000000 1.0
C      1  0.4519990000000  0.4185930000000  0.4864270000000 1.0
C      1  0.5138040000000  0.5850670000000  0.4649220000000 1.0
C      1  0.5587750000000  0.5555280000000  0.4793750000000 1.0
C      1  0.4464530000000  0.5814310000000  0.4480750000000 1.0
C      1  0.4346150000000  0.4333280000000  0.4685010000000 1.0
C      1  0.4379660000000  0.5639410000000  0.4907440000000 1.0
C      1  0.5933040000000  0.5002700000000  0.4200580000000 1.0
C      1  0.5233190000000  0.4406040000000  0.5700370000000 1.0
C      1  0.5800030000000  0.4187350000000  0.4858970000000 1.0
C      1  0.5689090000000  0.4975930000000  0.5804060000000 1.0
C      1  0.5230160000000  0.4838900000000  0.4307730000000 1.0
C      1  0.5223600000000  0.4264000000000  0.4228310000000 1.0
C      1  0.5088770000000  0.5915930000000  0.5612620000000 1.0
C      1  0.4956470000000  0.4848610000000  0.5682020000000 1.0
C      1  0.6171350000000  0.4934990000000  0.5738350000000 1.0
C      1  0.5619110000000  0.5439140000000  0.5703960000000 1.0
C      1  0.4612870000000  0.4879050000000  0.4503780000000 1.0
C      1  0.4630210000000  0.4119670000000  0.5680870000000 1.0
C      1  0.4992350000000  0.5654330000000  0.4815250000000 1.0
C      1  0.5333100000000  0.5527260000000  0.5369090000000 1.0
C      1  0.5036500000000  0.4942380000000  0.4115170000000 1.0
C      1  0.4626920000000  0.5205170000000  0.5701350000000 1.0
C      1  0.5616690000000  0.4708420000000  0.5869100000000 1.0
C      1  0.4465910000000  0.4422610000000  0.4444480000000 1.0
C      1  0.5009060000000  0.4802800000000  0.4736110000000 1.0
C      1  0.4893380000000  0.4042990000000  0.5755560000000 1.0
C      1  0.4912220000000  0.4362280000000  0.5189040000000 1.0
C      1  0.5547410000000  0.5798020000000  0.4966310000000 1.0
C      1  0.5524210000000  0.4764260000000  0.5347430000000 1.0
C      1  0.5793480000000  0.4115910000000  0.5135360000000 1.0
C      1  0.5995130000000  0.4690540000000  0.4895770000000 1.0
C      1  0.5468700000000  0.4483110000000  0.5837800000000 1.0
C      1  0.5393920000000  0.5281360000000  0.5205130000000 1.0
C      1  0.5305270000000  0.5973950000000  0.4870030000000 1.0
C      1  0.4119820000000  0.5077250000000  0.5050450000000 1.0
C      1  0.4701160000000  0.5328370000000  0.4616500000000 1.0
C      1  0.4372530000000  0.4954830000000  0.5053080000000 1.0
C      1  0.4502800000000  0.5410730000000  0.4791610000000 1.0
C      1  0.4715620000000  0.5627500000000  0.4104060000000 1.0
C      1  0.4814620000000  0.5878550000000  0.5539130000000 1.0
C      1  0.4949120000000  0.5451890000000  0.4115720000000 1.0
C      1  0.4754990000000  0.4993370000000  0.5278630000000 1.0
C      1  0.5707510000000  0.5709290000000  0.5234090000000 1.0
C      1  0.5683550000000  0.4284320000000  0.5318450000000 1.0
C      1  0.5103290000000  0.4364650000000  0.4465600000000 1.0
C      1  0.4173710000000  0.4892590000000  0.4018770000000 1.0
C      1  0.5056880000000  0.4169350000000  0.4676230000000 1.0
C      1  0.5424560000000  0.4479830000000  0.4974390000000 1.0
C      1  0.5687760000000  0.5065110000000  0.4884160000000 1.0
C      1  0.4443020000000  0.5637210000000  0.5805270000000 1.0
C      1  0.5173510000000  0.5239200000000  0.4633980000000 1.0
C      1  0.5589510000000  0.4936570000000  0.3862700000000 1.0
C      1  0.4731470000000  0.4823650000000  0.4760580000000 1.0
C      1  0.4904720000000  0.5219650000000  0.5212310000000 1.0
C      1  0.4120040000000  0.4507570000000  0.5246510000000 1.0
C      1  0.4024970000000  0.4605960000000  0.4994390000000 1.0
C      1  0.5309000000000  0.4052740000000  0.4763910000000 1.0
C      1  0.4137840000000  0.5282400000000  0.5684390000000 1.0
C      1  0.5104040000000  0.4168020000000  0.5607870000000 1.0
C      1  0.6328260000000  0.5188690000000  0.5136240000000 1.0
C      1  0.4248520000000  0.5626420000000  0.4411330000000 1.0
C      1  0.5460250000000  0.5018960000000  0.4318100000000 1.0
C      1  0.4832800000000  0.4823530000000  0.6108490000000 1.0
C      1  0.5051670000000  0.4180100000000  0.5328640000000 1.0
C      1  0.5933970000000  0.5222530000000  0.5418350000000 1.0
C      1  0.5103760000000  0.4892340000000  0.3845160000000 1.0
C      1  0.5471900000000  0.4904870000000  0.4805150000000 1.0
C      1  0.5282640000000  0.5750800000000  0.5515430000000 1.0
C      1  0.4001800000000  0.5303920000000  0.5454980000000 1.0
C      1  0.3941790000000  0.4919470000000  0.4620470000000 1.0
C      1  0.4883570000000  0.5174770000000  0.4189940000000 1.0
C      1  0.5592650000000  0.5321490000000  0.4969340000000 1.0
C      1  0.5158970000000  0.5647910000000  0.4216020000000 1.0
C      1  0.5095210000000  0.4628920000000  0.5596770000000 1.0
C      1  0.5590950000000  0.4079760000000  0.4687740000000 1.0
C      1  0.5778600000000  0.5481140000000  0.5450210000000 1.0
C      1  0.4789720000000  0.4124960000000  0.4773390000000 1.0
C      1  0.4943250000000  0.3859910000000  0.5958580000000 1.0
C      1  0.5531000000000  0.4507650000000  0.5235360000000 1.0
C      1  0.4386930000000  0.4746710000000  0.4090410000000 1.0
C      1  0.4095290000000  0.5403820000000  0.4457400000000 1.0
C      1  0.4595610000000  0.5841020000000  0.5713480000000 1.0
C      1  0.5038300000000  0.4944820000000  0.5942430000000 1.0
C      1  0.4167970000000  0.5568460000000  0.5078940000000 1.0
C      1  0.4637320000000  0.4828260000000  0.5055070000000 1.0
C      1  0.4691100000000  0.5136730000000  0.4407050000000 1.0
C      1  0.4002260000000  0.5044190000000  0.4158970000000 1.0
C      1  0.4823490000000  0.5704770000000  0.5307140000000 1.0
C      1  0.5429020000000  0.4629110000000  0.4736630000000 1.0
C      1  0.4861670000000  0.5439490000000  0.5381160000000 1.0
C      1  0.5352950000000  0.4894690000000  0.3740670000000 1.0
C      1  0.5189600000000  0.5023010000000  0.4834770000000 1.0
C      1  0.3994440000000  0.5134680000000  0.4429210000000 1.0
C      1  0.5407360000000  0.5249270000000  0.4474850000000 1.0
C      1  0.5224620000000  0.5173730000000  0.5919180000000 1.0
C      1  0.5631240000000  0.4064810000000  0.4406800000000 1.0
C      1  0.5538650000000  0.5502310000000  0.4509550000000 1.0
C      1  0.4725050000000  0.4964450000000  0.5561650000000 1.0
C      1  0.5931770000000  0.5041480000000  0.5653210000000 1.0
C      1  0.5482480000000  0.5028870000000  0.5353810000000 1.0
C      1  0.4945610000000  0.5778900000000  0.5070150000000 1.0
C      1  0.5939920000000  0.4436640000000  0.4814140000000 1.0
C      1  0.5009680000000  0.5840780000000  0.4390630000000 1.0
END
