TITL C-599896-8500-529 -15805.6617544462 125000 -291.413846569288 0 0 50 (C1) n - 1
REM
REM in /home/nfs/bkarasulu/CARBON/AIRSS/Generating-Clusters/TERSOFF/Only-C1/FIRE-HFTN
REM
REM
REM
REM
REM
REM ./C.cell (11c1c37f851c82e70ff6c80c92926a4b)
REM AIRSS Version 0.9.1 bugfix July 2018 build 013d7b7c2542+ Fri, 06 Jul 2018 19:26:36 +0100
REM compiler GCC version 9.2.1 20190827 (Red Hat 9.2.1-1)
REM options -cpp -mtune=generic -march=x86-64 -g -O0 -fpre-include=/usr/include/finclude/math-vector-fortran.h
REM seed 2073858970 -1597305316 981981512 1456008160 -61775752 718845666 -310722619 -1041692163 -1065042524 1367894142 -192858060 1443047356 885224745 2028500966 1393746826 -1547062559 -504389946 -534196422 -1071242012 1055621677 1691101550 1716934471 -1426038780 165234045 -996437540 1122659971 -1606321014 10461037 1702438709 -1865677659 815492147 -465463874 -2088900068
REM
CELL 1.54180   50.00000   50.00000   50.00000   90.00000   90.00000   90.00000
LATT -1
SFAC C  
C      1  0.5559510000000  0.4976930000000  0.5512160000000 1.0
C      1  0.4827670000000  0.5348080000000  0.4844420000000 1.0
C      1  0.5327940000000  0.4660210000000  0.5000230000000 1.0
C      1  0.5514380000000  0.5442310000000  0.5611550000000 1.0
C      1  0.5263700000000  0.4344740000000  0.4518200000000 1.0
C      1  0.4722890000000  0.4985950000000  0.5502740000000 1.0
C      1  0.5803580000000  0.4540290000000  0.4985300000000 1.0
C      1  0.5579430000000  0.5013200000000  0.5230060000000 1.0
C      1  0.4955990000000  0.4898400000000  0.5653610000000 1.0
C      1  0.4879770000000  0.5505470000000  0.4399960000000 1.0
C      1  0.5690490000000  0.5536240000000  0.5428200000000 1.0
C      1  0.5610450000000  0.5196690000000  0.4795520000000 1.0
C      1  0.4930270000000  0.4406790000000  0.4862230000000 1.0
C      1  0.4898110000000  0.4948180000000  0.4420530000000 1.0
C      1  0.3910510000000  0.5608140000000  0.4982760000000 1.0
C      1  0.4402110000000  0.4758470000000  0.4947760000000 1.0
C      1  0.5425400000000  0.5020550000000  0.4368160000000 1.0
C      1  0.4697830000000  0.5370370000000  0.4575250000000 1.0
C      1  0.4665000000000  0.4341960000000  0.4923120000000 1.0
C      1  0.5150580000000  0.5101150000000  0.4373160000000 1.0
C      1  0.4797390000000  0.5057910000000  0.5236320000000 1.0
C      1  0.5073340000000  0.5016090000000  0.5211920000000 1.0
C      1  0.4426830000000  0.4999870000000  0.4785150000000 1.0
C      1  0.5069900000000  0.4635960000000  0.5592300000000 1.0
C      1  0.4058760000000  0.5402800000000  0.4904730000000 1.0
C      1  0.4470590000000  0.4996390000000  0.5603660000000 1.0
C      1  0.5733490000000  0.5200740000000  0.5062310000000 1.0
C      1  0.5095680000000  0.4506440000000  0.5072820000000 1.0
C      1  0.5634580000000  0.5097350000000  0.4530000000000 1.0
C      1  0.5407170000000  0.5183520000000  0.5648710000000 1.0
C      1  0.4456210000000  0.4499580000000  0.4977650000000 1.0
C      1  0.5553240000000  0.4534850000000  0.4877040000000 1.0
C      1  0.4663300000000  0.5091070000000  0.4519020000000 1.0
C      1  0.5125410000000  0.5374900000000  0.4473680000000 1.0
C      1  0.4270020000000  0.4863240000000  0.4500300000000 1.0
C      1  0.5012650000000  0.4450010000000  0.4591130000000 1.0
C      1  0.5329450000000  0.4584660000000  0.5697010000000 1.0
C      1  0.4910270000000  0.4668500000000  0.4447520000000 1.0
C      1  0.5802820000000  0.5437130000000  0.5201970000000 1.0
C      1  0.3769720000000  0.5816440000000  0.5066860000000 1.0
C      1  0.5117850000000  0.5339980000000  0.4772390000000 1.0
C      1  0.5498530000000  0.4390460000000  0.4641110000000 1.0
C      1  0.5326780000000  0.5177200000000  0.4869770000000 1.0
C      1  0.5015760000000  0.4507270000000  0.5344920000000 1.0
C      1  0.5147210000000  0.5100410000000  0.5732730000000 1.0
C      1  0.5321130000000  0.4950050000000  0.5075650000000 1.0
C      1  0.3633750000000  0.6022100000000  0.5151670000000 1.0
C      1  0.4686400000000  0.5162420000000  0.5003540000000 1.0
C      1  0.5553960000000  0.4723060000000  0.5635370000000 1.0
C      1  0.4222210000000  0.5205470000000  0.4837800000000 1.0
END
