TITL C-599891-72-590 2.23598825135444 125000 -236.011469560123 0 0 40 (C1) n - 1
REM
REM in /home/nfs/bkarasulu/CARBON/AIRSS/Generating-Clusters/TERSOFF/Only-C1/FIRE-HFTN
REM
REM
REM
REM
REM
REM ./C.cell (11c1c37f851c82e70ff6c80c92926a4b)
REM AIRSS Version 0.9.1 bugfix July 2018 build 013d7b7c2542+ Fri, 06 Jul 2018 19:26:36 +0100
REM compiler GCC version 9.2.1 20190827 (Red Hat 9.2.1-1)
REM options -cpp -mtune=generic -march=x86-64 -g -O0 -fpre-include=/usr/include/finclude/math-vector-fortran.h
REM seed -804047737 385894143 -368723089 -1089328546 604170208 -2059892552 -1189991400 -140647470 1703207869 -1791728227 -666829205 1826249109 675516656 -2009396064 -1926216748 2140548213 -1119917923 1763811621 873690472 -2078749826 -214037227 458745516 -38575748 1467471912 -133712367 357386302 -72449439 1856449090 994399260 -913418628 183590161 1074204893 867785734
REM
CELL 1.54180   50.00000   50.00000   50.00000   90.00000   90.00000   90.00000
LATT -1
SFAC C  
C      1  0.3905040000000  0.4942020000000  0.5569100000000 1.0
C      1  0.4688070000000  0.5109540000000  0.4477020000000 1.0
C      1  0.4286930000000  0.4814590000000  0.4550410000000 1.0
C      1  0.4620090000000  0.5812900000000  0.4759350000000 1.0
C      1  0.4473910000000  0.4959610000000  0.4426980000000 1.0
C      1  0.6932100000000  0.4736570000000  0.4049780000000 1.0
C      1  0.4293240000000  0.5487260000000  0.5006530000000 1.0
C      1  0.4236980000000  0.5248830000000  0.5111210000000 1.0
C      1  0.5057120000000  0.5650080000000  0.4556590000000 1.0
C      1  0.4607960000000  0.4862320000000  0.5798450000000 1.0
C      1  0.5499280000000  0.5027540000000  0.4698730000000 1.0
C      1  0.4805490000000  0.5237400000000  0.4935600000000 1.0
C      1  0.4920450000000  0.5207420000000  0.5175200000000 1.0
C      1  0.5058830000000  0.4595220000000  0.5130460000000 1.0
C      1  0.4241910000000  0.4989220000000  0.5219000000000 1.0
C      1  0.5986420000000  0.4928590000000  0.4478090000000 1.0
C      1  0.5094420000000  0.5372140000000  0.4580260000000 1.0
C      1  0.4857080000000  0.5811550000000  0.4635260000000 1.0
C      1  0.6223790000000  0.4880390000000  0.4370580000000 1.0
C      1  0.5336890000000  0.5233790000000  0.4596760000000 1.0
C      1  0.5870840000000  0.4564580000000  0.5721220000000 1.0
C      1  0.6461150000000  0.4832200000000  0.4263080000000 1.0
C      1  0.4325480000000  0.4767190000000  0.5060710000000 1.0
C      1  0.4422390000000  0.5688530000000  0.4888530000000 1.0
C      1  0.5407980000000  0.4872820000000  0.4915610000000 1.0
C      1  0.4173050000000  0.4948580000000  0.5491680000000 1.0
C      1  0.5114400000000  0.4733890000000  0.5871380000000 1.0
C      1  0.4225840000000  0.4740580000000  0.4799600000000 1.0
C      1  0.4798820000000  0.4533810000000  0.5144710000000 1.0
C      1  0.4376800000000  0.4913730000000  0.5679620000000 1.0
C      1  0.4857800000000  0.4799210000000  0.5860380000000 1.0
C      1  0.5120390000000  0.5048120000000  0.5257950000000 1.0
C      1  0.6698580000000  0.4783990000000  0.4155540000000 1.0
C      1  0.4542170000000  0.4605650000000  0.5137490000000 1.0
C      1  0.5223250000000  0.4823080000000  0.5120630000000 1.0
C      1  0.3653490000000  0.4936920000000  0.5637010000000 1.0
C      1  0.5749160000000  0.4976770000000  0.4585540000000 1.0
C      1  0.5370540000000  0.4673340000000  0.5840520000000 1.0
C      1  0.5623380000000  0.4617800000000  0.5783610000000 1.0
C      1  0.4858450000000  0.5232250000000  0.4659860000000 1.0
END
