TITL C-599893-4344-371 -0.0570931132513251 125000 -767.74488584324 0 0 123 (C1) n - 1
REM
REM in /home/nfs/bkarasulu/CARBON/AIRSS/Generating-Clusters/TERSOFF/Only-C1/FIRE-HFTN
REM
REM
REM
REM
REM
REM ./C.cell (11c1c37f851c82e70ff6c80c92926a4b)
REM AIRSS Version 0.9.1 bugfix July 2018 build 013d7b7c2542+ Fri, 06 Jul 2018 19:26:36 +0100
REM compiler GCC version 9.2.1 20190827 (Red Hat 9.2.1-1)
REM options -cpp -mtune=generic -march=x86-64 -g -O0 -fpre-include=/usr/include/finclude/math-vector-fortran.h
REM seed -649203195 815317203 794426466 -1004848865 1519055520 -978876197 -1868348529 296780375 -403451074 1340849506 -1274343628 565526605 -1511439908 713397913 -1323288973 1143326882 1928609124 563000512 1868240657 702757472 1770574530 733731262 -954480704 1035603395 -803459256 -1180968374 -714036392 -752625642 1294366333 -103238430 -139542457 -1071066825 750568328
REM
CELL 1.54180   50.00000   50.00000   50.00000   90.00000   90.00000   90.00000
LATT -1
SFAC C  
C      1  0.4968370000000  0.5592850000000  0.4551780000000 1.0
C      1  0.4540570000000  0.5052110000000  0.4301900000000 1.0
C      1  0.4736130000000  0.4202790000000  0.4780080000000 1.0
C      1  0.5135080000000  0.4189520000000  0.5338330000000 1.0
C      1  0.5116410000000  0.5654830000000  0.3572470000000 1.0
C      1  0.4879590000000  0.4554350000000  0.6061610000000 1.0
C      1  0.5726150000000  0.3969190000000  0.5259870000000 1.0
C      1  0.4757720000000  0.3946020000000  0.5224600000000 1.0
C      1  0.4602950000000  0.4980490000000  0.4769900000000 1.0
C      1  0.5007940000000  0.5504650000000  0.4289990000000 1.0
C      1  0.5687090000000  0.5012340000000  0.4064700000000 1.0
C      1  0.4838760000000  0.5043660000000  0.6014040000000 1.0
C      1  0.3972940000000  0.5456330000000  0.5031050000000 1.0
C      1  0.3903160000000  0.5213840000000  0.4908930000000 1.0
C      1  0.4758960000000  0.5176000000000  0.4897570000000 1.0
C      1  0.4802410000000  0.5932660000000  0.5362630000000 1.0
C      1  0.4625270000000  0.4140920000000  0.5051750000000 1.0
C      1  0.5788910000000  0.4657970000000  0.4974040000000 1.0
C      1  0.5621850000000  0.5193100000000  0.3881800000000 1.0
C      1  0.5053750000000  0.4625590000000  0.4488740000000 1.0
C      1  0.5479240000000  0.5693410000000  0.5440000000000 1.0
C      1  0.5408010000000  0.4367070000000  0.4890370000000 1.0
C      1  0.5033140000000  0.5167330000000  0.4842250000000 1.0
C      1  0.4366820000000  0.4705310000000  0.5524560000000 1.0
C      1  0.4644460000000  0.3887960000000  0.5478940000000 1.0
C      1  0.5637630000000  0.5069340000000  0.5238480000000 1.0
C      1  0.5042560000000  0.3948320000000  0.5234020000000 1.0
C      1  0.4253740000000  0.4726180000000  0.5035620000000 1.0
C      1  0.5196610000000  0.5299690000000  0.5035840000000 1.0
C      1  0.5962500000000  0.4758170000000  0.5418340000000 1.0
C      1  0.5412590000000  0.4411450000000  0.5635630000000 1.0
C      1  0.5189380000000  0.5674190000000  0.4706920000000 1.0
C      1  0.5787440000000  0.4826660000000  0.5210190000000 1.0
C      1  0.5360690000000  0.5121480000000  0.5188170000000 1.0
C      1  0.5451650000000  0.5368000000000  0.3777410000000 1.0
C      1  0.4290340000000  0.5206700000000  0.5642690000000 1.0
C      1  0.4612040000000  0.4398990000000  0.4599610000000 1.0
C      1  0.4114940000000  0.5151160000000  0.4484880000000 1.0
C      1  0.4876120000000  0.6093230000000  0.4416780000000 1.0
C      1  0.5249110000000  0.3761430000000  0.5190510000000 1.0
C      1  0.4246430000000  0.5835740000000  0.4834050000000 1.0
C      1  0.4859760000000  0.4097000000000  0.5901770000000 1.0
C      1  0.5629240000000  0.4843920000000  0.4280970000000 1.0
C      1  0.6141340000000  0.4720640000000  0.5604170000000 1.0
C      1  0.4305820000000  0.4556330000000  0.5273510000000 1.0
C      1  0.5683200000000  0.4388370000000  0.4961670000000 1.0
C      1  0.5187710000000  0.4220840000000  0.4227790000000 1.0
C      1  0.5069780000000  0.5503700000000  0.4032250000000 1.0
C      1  0.5553250000000  0.5330440000000  0.5784520000000 1.0
C      1  0.4282740000000  0.6090150000000  0.4944380000000 1.0
C      1  0.5555870000000  0.5771220000000  0.5156060000000 1.0
C      1  0.5232870000000  0.5026240000000  0.4692300000000 1.0
C      1  0.5211490000000  0.5510550000000  0.3791120000000 1.0
C      1  0.4392650000000  0.5259070000000  0.5899100000000 1.0
C      1  0.5494250000000  0.4600050000000  0.4225820000000 1.0
C      1  0.4993420000000  0.4104410000000  0.4679410000000 1.0
C      1  0.5242430000000  0.4154410000000  0.4808770000000 1.0
C      1  0.4110480000000  0.4551240000000  0.4621400000000 1.0
C      1  0.4477170000000  0.5698320000000  0.4753110000000 1.0
C      1  0.5662760000000  0.4284610000000  0.5615340000000 1.0
C      1  0.4773200000000  0.4772970000000  0.5920630000000 1.0
C      1  0.5020830000000  0.5116650000000  0.5523600000000 1.0
C      1  0.4012390000000  0.5687560000000  0.4876060000000 1.0
C      1  0.4709750000000  0.3954730000000  0.5731510000000 1.0
C      1  0.5025550000000  0.5326490000000  0.5702310000000 1.0
C      1  0.5372780000000  0.5228030000000  0.5966670000000 1.0
C      1  0.4102000000000  0.5456430000000  0.5279200000000 1.0
C      1  0.4424510000000  0.4302840000000  0.5191350000000 1.0
C      1  0.5377920000000  0.5982170000000  0.5017820000000 1.0
C      1  0.4972000000000  0.6282520000000  0.5102840000000 1.0
C      1  0.4673400000000  0.5963120000000  0.4290090000000 1.0
C      1  0.4383150000000  0.5515800000000  0.4246250000000 1.0
C      1  0.5221690000000  0.4506520000000  0.4297970000000 1.0
C      1  0.5517980000000  0.3783480000000  0.5210850000000 1.0
C      1  0.5742890000000  0.5334260000000  0.5295370000000 1.0
C      1  0.5207490000000  0.6136440000000  0.5193800000000 1.0
C      1  0.5716990000000  0.5517170000000  0.5056350000000 1.0
C      1  0.5251320000000  0.4435480000000  0.5400270000000 1.0
C      1  0.4011470000000  0.5030850000000  0.4723840000000 1.0
C      1  0.5263390000000  0.4605440000000  0.4939250000000 1.0
C      1  0.5269830000000  0.4368090000000  0.5874340000000 1.0
C      1  0.5801300000000  0.4154210000000  0.5060100000000 1.0
C      1  0.4594450000000  0.5437740000000  0.5329790000000 1.0
C      1  0.5084100000000  0.5202430000000  0.5956620000000 1.0
C      1  0.4594770000000  0.4696860000000  0.5703090000000 1.0
C      1  0.4518210000000  0.4786010000000  0.4950700000000 1.0
C      1  0.4473570000000  0.6204600000000  0.5091450000000 1.0
C      1  0.5249170000000  0.5946120000000  0.4754330000000 1.0
C      1  0.5790070000000  0.4049390000000  0.5526370000000 1.0
C      1  0.4999280000000  0.5578540000000  0.5592000000000 1.0
C      1  0.5090980000000  0.6114480000000  0.4584070000000 1.0
C      1  0.5189070000000  0.4748430000000  0.4705820000000 1.0
C      1  0.4862840000000  0.5019840000000  0.5326040000000 1.0
C      1  0.4727030000000  0.6154430000000  0.5190790000000 1.0
C      1  0.5427320000000  0.4158760000000  0.4080300000000 1.0
C      1  0.5604380000000  0.4371670000000  0.4083350000000 1.0
C      1  0.5622750000000  0.5457990000000  0.5536110000000 1.0
C      1  0.5011220000000  0.4323400000000  0.5973480000000 1.0
C      1  0.4333030000000  0.5245780000000  0.4326270000000 1.0
C      1  0.4330950000000  0.4407070000000  0.4559100000000 1.0
C      1  0.4215790000000  0.4942590000000  0.5571930000000 1.0
C      1  0.4923390000000  0.4761670000000  0.5234470000000 1.0
C      1  0.5025280000000  0.4066990000000  0.4397950000000 1.0
C      1  0.5095950000000  0.5983370000000  0.5412070000000 1.0
C      1  0.4504480000000  0.5758550000000  0.4228610000000 1.0
C      1  0.4715540000000  0.5616020000000  0.4670950000000 1.0
C      1  0.5963160000000  0.3908350000000  0.5682850000000 1.0
C      1  0.5317930000000  0.5494580000000  0.4868790000000 1.0
C      1  0.4328470000000  0.5390340000000  0.5428370000000 1.0
C      1  0.4604190000000  0.5200840000000  0.6054120000000 1.0
C      1  0.5024530000000  0.5791370000000  0.3370390000000 1.0
C      1  0.5175570000000  0.4637770000000  0.5212040000000 1.0
C      1  0.4644030000000  0.4886420000000  0.4503470000000 1.0
C      1  0.4767610000000  0.4625390000000  0.4494720000000 1.0
C      1  0.4758640000000  0.5652500000000  0.5433410000000 1.0
C      1  0.5514060000000  0.5133840000000  0.4667560000000 1.0
C      1  0.4711940000000  0.5217930000000  0.5179450000000 1.0
C      1  0.5838620000000  0.4785180000000  0.4726530000000 1.0
C      1  0.5218780000000  0.5757430000000  0.5531460000000 1.0
C      1  0.4723840000000  0.4650380000000  0.5079970000000 1.0
C      1  0.5687830000000  0.4939090000000  0.4545910000000 1.0
C      1  0.4075860000000  0.4761050000000  0.4811080000000 1.0
C      1  0.5583790000000  0.5391060000000  0.4819300000000 1.0
END
