TITL C-599896-8500-112 -509.398281863275 125000 -768.557149169019 0 0 127 (C1) n - 1
REM
REM in /home/nfs/bkarasulu/CARBON/AIRSS/Generating-Clusters/TERSOFF/Only-C1/FIRE-HFTN
REM
REM
REM
REM
REM
REM ./C.cell (11c1c37f851c82e70ff6c80c92926a4b)
REM AIRSS Version 0.9.1 bugfix July 2018 build 013d7b7c2542+ Fri, 06 Jul 2018 19:26:36 +0100
REM compiler GCC version 9.2.1 20190827 (Red Hat 9.2.1-1)
REM options -cpp -mtune=generic -march=x86-64 -g -O0 -fpre-include=/usr/include/finclude/math-vector-fortran.h
REM seed -263922323 1795668183 -733447235 864885572 478444042 -1366879184 -913463733 1972901847 -649186479 -1644146806 413132399 -645441458 594425612 -178044891 115058876 942547066 -2114912704 -1758833386 -1728977308 1078126304 555281954 1818303267 -289614438 -1556749706 -953585883 1778036443 1159946046 -645498326 1918955985 9149319 -1498128510 -1212163000 -1275799572
REM
CELL 1.54180   50.00000   50.00000   50.00000   90.00000   90.00000   90.00000
LATT -1
SFAC C  
C      1  0.5040800000000  0.5663810000000  0.5548650000000 1.0
C      1  0.4383510000000  0.4860520000000  0.5845640000000 1.0
C      1  0.4450210000000  0.5731430000000  0.5221250000000 1.0
C      1  0.4294040000000  0.5734570000000  0.4468180000000 1.0
C      1  0.5258190000000  0.5146250000000  0.5566980000000 1.0
C      1  0.5375060000000  0.4780800000000  0.5280280000000 1.0
C      1  0.5550420000000  0.5562370000000  0.5496830000000 1.0
C      1  0.5858530000000  0.4861100000000  0.5072560000000 1.0
C      1  0.5858130000000  0.5536950000000  0.5041240000000 1.0
C      1  0.5394220000000  0.5078080000000  0.3964270000000 1.0
C      1  0.5035980000000  0.4242610000000  0.5557950000000 1.0
C      1  0.4024360000000  0.5112160000000  0.4701840000000 1.0
C      1  0.4560520000000  0.5106870000000  0.5348430000000 1.0
C      1  0.5867910000000  0.4660680000000  0.4843430000000 1.0
C      1  0.5231900000000  0.4430570000000  0.3949660000000 1.0
C      1  0.4920240000000  0.4803320000000  0.5559890000000 1.0
C      1  0.4239400000000  0.5517620000000  0.4313930000000 1.0
C      1  0.5807820000000  0.5354540000000  0.4536440000000 1.0
C      1  0.5446170000000  0.4597150000000  0.5500390000000 1.0
C      1  0.5254370000000  0.4805370000000  0.6023670000000 1.0
C      1  0.4368670000000  0.4460280000000  0.4464080000000 1.0
C      1  0.5367950000000  0.5586070000000  0.4383740000000 1.0
C      1  0.5223600000000  0.3972970000000  0.4858930000000 1.0
C      1  0.5425950000000  0.5767270000000  0.4594670000000 1.0
C      1  0.5302070000000  0.4537900000000  0.4860360000000 1.0
C      1  0.4562660000000  0.4355640000000  0.4272710000000 1.0
C      1  0.5514440000000  0.4511140000000  0.4436860000000 1.0
C      1  0.5841770000000  0.5563570000000  0.4745890000000 1.0
C      1  0.5617530000000  0.4776530000000  0.4446930000000 1.0
C      1  0.4366510000000  0.4882390000000  0.5364740000000 1.0
C      1  0.5857420000000  0.4825750000000  0.4592640000000 1.0
C      1  0.5889820000000  0.4758190000000  0.5576610000000 1.0
C      1  0.5165350000000  0.4655750000000  0.4090860000000 1.0
C      1  0.5728410000000  0.4381710000000  0.4815600000000 1.0
C      1  0.5506230000000  0.5236170000000  0.5138900000000 1.0
C      1  0.4375000000000  0.4655710000000  0.4890930000000 1.0
C      1  0.5192230000000  0.4565760000000  0.5872970000000 1.0
C      1  0.4813310000000  0.5172300000000  0.6052350000000 1.0
C      1  0.4659090000000  0.4280690000000  0.4858670000000 1.0
C      1  0.4593630000000  0.4720050000000  0.6017440000000 1.0
C      1  0.5688890000000  0.5083810000000  0.4986360000000 1.0
C      1  0.4929050000000  0.5152430000000  0.5034270000000 1.0
C      1  0.4641710000000  0.5182130000000  0.5086350000000 1.0
C      1  0.5052280000000  0.4115540000000  0.4419520000000 1.0
C      1  0.4780430000000  0.5417840000000  0.4137510000000 1.0
C      1  0.5603210000000  0.4268580000000  0.4560580000000 1.0
C      1  0.4281420000000  0.4757110000000  0.5127960000000 1.0
C      1  0.4279090000000  0.5368780000000  0.5569490000000 1.0
C      1  0.5580200000000  0.5541570000000  0.5187080000000 1.0
C      1  0.4731560000000  0.5219690000000  0.4629470000000 1.0
C      1  0.4741580000000  0.5202090000000  0.5568980000000 1.0
C      1  0.4834180000000  0.5958430000000  0.4575350000000 1.0
C      1  0.5419030000000  0.4981990000000  0.4484200000000 1.0
C      1  0.5482740000000  0.5162990000000  0.5753080000000 1.0
C      1  0.4916790000000  0.5807630000000  0.4367510000000 1.0
C      1  0.4855920000000  0.4784050000000  0.4439370000000 1.0
C      1  0.5590360000000  0.5404840000000  0.4326960000000 1.0
C      1  0.5252080000000  0.4753770000000  0.5025520000000 1.0
C      1  0.4991680000000  0.5074000000000  0.5576980000000 1.0
C      1  0.4512870000000  0.5635860000000  0.5492330000000 1.0
C      1  0.4728730000000  0.5886460000000  0.5862230000000 1.0
C      1  0.4763120000000  0.5726840000000  0.5633210000000 1.0
C      1  0.5016440000000  0.5429610000000  0.5055050000000 1.0
C      1  0.5707460000000  0.5799580000000  0.4647550000000 1.0
C      1  0.4966650000000  0.4254690000000  0.5277580000000 1.0
C      1  0.4564650000000  0.5216700000000  0.4111260000000 1.0
C      1  0.4158150000000  0.5030280000000  0.4431070000000 1.0
C      1  0.4696550000000  0.6025140000000  0.6080480000000 1.0
C      1  0.5398330000000  0.4095660000000  0.5048770000000 1.0
C      1  0.5252580000000  0.4548560000000  0.4570500000000 1.0
C      1  0.5436590000000  0.5769390000000  0.5067330000000 1.0
C      1  0.5933550000000  0.4932240000000  0.5356610000000 1.0
C      1  0.5939460000000  0.5099490000000  0.4562200000000 1.0
C      1  0.4986930000000  0.5308740000000  0.4536000000000 1.0
C      1  0.5278250000000  0.5764060000000  0.4836630000000 1.0
C      1  0.4248190000000  0.5539540000000  0.5119540000000 1.0
C      1  0.5493850000000  0.4352660000000  0.4985170000000 1.0
C      1  0.4972820000000  0.3867380000000  0.4962380000000 1.0
C      1  0.5375080000000  0.5068820000000  0.5323170000000 1.0
C      1  0.5038720000000  0.5506450000000  0.5319700000000 1.0
C      1  0.6024750000000  0.5404270000000  0.5238790000000 1.0
C      1  0.5008470000000  0.5525220000000  0.4328840000000 1.0
C      1  0.5019120000000  0.5665500000000  0.4890550000000 1.0
C      1  0.4338360000000  0.4427180000000  0.5537230000000 1.0
C      1  0.5216640000000  0.5141780000000  0.4558350000000 1.0
C      1  0.4764060000000  0.4712210000000  0.5355460000000 1.0
C      1  0.4309050000000  0.5241610000000  0.4265960000000 1.0
C      1  0.4415720000000  0.4196380000000  0.5409220000000 1.0
C      1  0.4361820000000  0.5168600000000  0.5800930000000 1.0
C      1  0.5280610000000  0.4401940000000  0.5642070000000 1.0
C      1  0.4695060000000  0.4943660000000  0.4591520000000 1.0
C      1  0.4644360000000  0.5247980000000  0.5837090000000 1.0
C      1  0.4941650000000  0.4639940000000  0.5771810000000 1.0
C      1  0.4646800000000  0.4993170000000  0.3949650000000 1.0
C      1  0.4376110000000  0.5736910000000  0.4736670000000 1.0
C      1  0.4550070000000  0.5852600000000  0.4954900000000 1.0
C      1  0.4812480000000  0.5855780000000  0.4839820000000 1.0
C      1  0.4727270000000  0.4492260000000  0.5883290000000 1.0
C      1  0.4908770000000  0.4917300000000  0.6103790000000 1.0
C      1  0.5502090000000  0.4908250000000  0.5885970000000 1.0
C      1  0.5634350000000  0.4719630000000  0.5691790000000 1.0
C      1  0.4744840000000  0.3877330000000  0.5117990000000 1.0
C      1  0.4800960000000  0.4199600000000  0.4341820000000 1.0
C      1  0.4551820000000  0.5299970000000  0.4840500000000 1.0
C      1  0.4803030000000  0.4228410000000  0.5764580000000 1.0
C      1  0.5321340000000  0.5707950000000  0.5629470000000 1.0
C      1  0.4337000000000  0.5477400000000  0.4853650000000 1.0
C      1  0.5378910000000  0.5887480000000  0.5830010000000 1.0
C      1  0.5915120000000  0.5219200000000  0.5435810000000 1.0
C      1  0.4826520000000  0.4666950000000  0.5091270000000 1.0
C      1  0.5688930000000  0.5325970000000  0.5616190000000 1.0
C      1  0.4003900000000  0.5156330000000  0.4981190000000 1.0
C      1  0.4551150000000  0.3999250000000  0.5272930000000 1.0
C      1  0.4460920000000  0.4836930000000  0.4690270000000 1.0
C      1  0.4841780000000  0.4384900000000  0.5050250000000 1.0
C      1  0.4122630000000  0.5332790000000  0.5255450000000 1.0
C      1  0.4288300000000  0.4761740000000  0.4464920000000 1.0
C      1  0.4333110000000  0.4713660000000  0.5596450000000 1.0
C      1  0.5001600000000  0.4877490000000  0.4999260000000 1.0
C      1  0.5167970000000  0.4910450000000  0.3958290000000 1.0
C      1  0.4424930000000  0.4401310000000  0.4756000000000 1.0
C      1  0.4918000000000  0.4999410000000  0.3864360000000 1.0
C      1  0.4544830000000  0.4488480000000  0.4023230000000 1.0
C      1  0.4524970000000  0.4740740000000  0.3933020000000 1.0
C      1  0.5558370000000  0.5247430000000  0.4092750000000 1.0
C      1  0.5079280000000  0.4644320000000  0.4365680000000 1.0
C      1  0.5287560000000  0.4074300000000  0.4588240000000 1.0
END
