TITL C-599896-8500-1468 125550.942561874 125000 -1020.92185084368 0 0 167 (C1) n - 1
REM
REM in /home/nfs/bkarasulu/CARBON/AIRSS/Generating-Clusters/TERSOFF/Only-C1/FIRE-HFTN
REM
REM
REM
REM
REM
REM ./C.cell (11c1c37f851c82e70ff6c80c92926a4b)
REM AIRSS Version 0.9.1 bugfix July 2018 build 013d7b7c2542+ Fri, 06 Jul 2018 19:26:36 +0100
REM compiler GCC version 9.2.1 20190827 (Red Hat 9.2.1-1)
REM options -cpp -mtune=generic -march=x86-64 -g -O0 -fpre-include=/usr/include/finclude/math-vector-fortran.h
REM seed 1583501484 32911487 -458110990 1400707661 -77602133 1901007066 -914692512 -634887146 -691684563 -954090613 821639062 1484491800 -233285270 -390477770 -1903824815 1433559854 -1189569773 -145921069 927841305 -1897072432 -1635223489 1479553557 2042784594 -1660337575 -1413377551 1791848790 -1481799690 975971097 1636852349 1734161100 1340210245 756989518 697147114
REM
CELL 1.54180   50.00000   50.00000   50.00000   90.00000   90.00000   90.00000
LATT -1
SFAC C  
C      1  0.5496450000000  0.4751480000000  0.3913370000000 1.0
C      1  0.5557380000000  0.4115500000000  0.4587790000000 1.0
C      1  0.4089830000000  0.4017190000000  0.5094570000000 1.0
C      1  0.4261900000000  0.5800940000000  0.4632580000000 1.0
C      1  0.4975460000000  0.6053070000000  0.4591510000000 1.0
C      1  0.5344500000000  0.5794190000000  0.5683450000000 1.0
C      1  0.4989410000000  0.5775430000000  0.5277430000000 1.0
C      1  0.6045030000000  0.5283750000000  0.5184950000000 1.0
C      1  0.5842140000000  0.5575740000000  0.4232270000000 1.0
C      1  0.5121900000000  0.3879010000000  0.4665350000000 1.0
C      1  0.4798860000000  0.6204860000000  0.5295160000000 1.0
C      1  0.5064550000000  0.5628140000000  0.3727830000000 1.0
C      1  0.5607940000000  0.5062420000000  0.5235560000000 1.0
C      1  0.5528180000000  0.5359910000000  0.5947380000000 1.0
C      1  0.5048880000000  0.4917740000000  0.4302960000000 1.0
C      1  0.5013760000000  0.6122490000000  0.4318750000000 1.0
C      1  0.5750440000000  0.4057470000000  0.4995800000000 1.0
C      1  0.5271750000000  0.5663410000000  0.4617400000000 1.0
C      1  0.4356550000000  0.5460150000000  0.5234560000000 1.0
C      1  0.5213120000000  0.4798080000000  0.4903660000000 1.0
C      1  0.4788880000000  0.4781870000000  0.3914980000000 1.0
C      1  0.5270790000000  0.5400670000000  0.5290350000000 1.0
C      1  0.5065550000000  0.5852380000000  0.5766940000000 1.0
C      1  0.5923130000000  0.5044550000000  0.4673370000000 1.0
C      1  0.3955030000000  0.4728160000000  0.5845890000000 1.0
C      1  0.5751950000000  0.5365190000000  0.4089810000000 1.0
C      1  0.5134920000000  0.5381990000000  0.3652390000000 1.0
C      1  0.3938670000000  0.4898280000000  0.4698160000000 1.0
C      1  0.5037080000000  0.4170950000000  0.4187920000000 1.0
C      1  0.4036980000000  0.5720420000000  0.4786590000000 1.0
C      1  0.5427470000000  0.5030380000000  0.3883820000000 1.0
C      1  0.5251040000000  0.3946670000000  0.5159200000000 1.0
C      1  0.4685800000000  0.5142970000000  0.4693250000000 1.0
C      1  0.5698010000000  0.4872060000000  0.5010750000000 1.0
C      1  0.5325620000000  0.4518480000000  0.3908900000000 1.0
C      1  0.5898490000000  0.4702210000000  0.4550220000000 1.0
C      1  0.4402140000000  0.4519320000000  0.5771480000000 1.0
C      1  0.4608410000000  0.5555460000000  0.5872600000000 1.0
C      1  0.4761510000000  0.5855630000000  0.4627110000000 1.0
C      1  0.5649400000000  0.4983020000000  0.5494070000000 1.0
C      1  0.4683110000000  0.4080960000000  0.5778750000000 1.0
C      1  0.4102660000000  0.4356150000000  0.4729890000000 1.0
C      1  0.4525330000000  0.6109400000000  0.5254390000000 1.0
C      1  0.5133320000000  0.4358420000000  0.4728700000000 1.0
C      1  0.4265000000000  0.5717520000000  0.4363120000000 1.0
C      1  0.4963470000000  0.4213320000000  0.4904670000000 1.0
C      1  0.4585160000000  0.5180720000000  0.6157540000000 1.0
C      1  0.4798420000000  0.5108320000000  0.5664820000000 1.0
C      1  0.4330130000000  0.3909750000000  0.5154580000000 1.0
C      1  0.4304160000000  0.5510070000000  0.4198580000000 1.0
C      1  0.5069660000000  0.4806640000000  0.5184380000000 1.0
C      1  0.4752920000000  0.5664640000000  0.5355450000000 1.0
C      1  0.4585730000000  0.4858230000000  0.4622120000000 1.0
C      1  0.4348660000000  0.5355230000000  0.5726700000000 1.0
C      1  0.5482950000000  0.4676230000000  0.4994060000000 1.0
C      1  0.4188690000000  0.5799960000000  0.5524120000000 1.0
C      1  0.4736710000000  0.5411230000000  0.6092860000000 1.0
C      1  0.4377520000000  0.4604600000000  0.5285160000000 1.0
C      1  0.4801240000000  0.5769650000000  0.5800030000000 1.0
C      1  0.5178370000000  0.5094400000000  0.4763270000000 1.0
C      1  0.4909900000000  0.5156940000000  0.4898800000000 1.0
C      1  0.5265100000000  0.4666900000000  0.5409670000000 1.0
C      1  0.4751290000000  0.5109220000000  0.5391130000000 1.0
C      1  0.5499720000000  0.3902260000000  0.4995890000000 1.0
C      1  0.5342270000000  0.6057190000000  0.5244430000000 1.0
C      1  0.5416830000000  0.6065840000000  0.4959380000000 1.0
C      1  0.5332440000000  0.5276530000000  0.4300460000000 1.0
C      1  0.5002410000000  0.5317860000000  0.6027680000000 1.0
C      1  0.5494390000000  0.5890160000000  0.5442030000000 1.0
C      1  0.5420210000000  0.3880170000000  0.4694770000000 1.0
C      1  0.4432030000000  0.4813230000000  0.4380940000000 1.0
C      1  0.4139120000000  0.4485580000000  0.5197630000000 1.0
C      1  0.5046470000000  0.6055190000000  0.5286660000000 1.0
C      1  0.6012280000000  0.5569130000000  0.4786690000000 1.0
C      1  0.5724930000000  0.4426770000000  0.5641860000000 1.0
C      1  0.5414050000000  0.5518710000000  0.5742800000000 1.0
C      1  0.5472990000000  0.4522920000000  0.5234800000000 1.0
C      1  0.4820140000000  0.5304140000000  0.4458980000000 1.0
C      1  0.4187580000000  0.5484350000000  0.5483950000000 1.0
C      1  0.4367610000000  0.4255640000000  0.4622360000000 1.0
C      1  0.4345030000000  0.5033420000000  0.5789000000000 1.0
C      1  0.5038610000000  0.5851680000000  0.3870870000000 1.0
C      1  0.4230960000000  0.4758960000000  0.5810520000000 1.0
C      1  0.4535140000000  0.5663150000000  0.5187360000000 1.0
C      1  0.3887750000000  0.5542680000000  0.4921980000000 1.0
C      1  0.5438540000000  0.5214140000000  0.4848280000000 1.0
C      1  0.4694560000000  0.4226280000000  0.4962810000000 1.0
C      1  0.5504290000000  0.4289060000000  0.5779900000000 1.0
C      1  0.5447410000000  0.5259800000000  0.5132550000000 1.0
C      1  0.4802420000000  0.5598910000000  0.4505050000000 1.0
C      1  0.5028850000000  0.6031220000000  0.4067880000000 1.0
C      1  0.4689820000000  0.5205620000000  0.4198410000000 1.0
C      1  0.4858930000000  0.4522890000000  0.3886680000000 1.0
C      1  0.4022370000000  0.5041450000000  0.4464440000000 1.0
C      1  0.4569790000000  0.4023660000000  0.5113760000000 1.0
C      1  0.5050360000000  0.4826070000000  0.6130900000000 1.0
C      1  0.6066110000000  0.5004820000000  0.5304170000000 1.0
C      1  0.5249960000000  0.4664900000000  0.5998040000000 1.0
C      1  0.4439820000000  0.4581540000000  0.4222290000000 1.0
C      1  0.4506620000000  0.5891030000000  0.4759890000000 1.0
C      1  0.4504470000000  0.4320570000000  0.4194650000000 1.0
C      1  0.5084140000000  0.4379920000000  0.3986210000000 1.0
C      1  0.5828750000000  0.5769900000000  0.4702450000000 1.0
C      1  0.5109700000000  0.5168440000000  0.4464120000000 1.0
C      1  0.4918360000000  0.5069850000000  0.5169880000000 1.0
C      1  0.3695950000000  0.4705590000000  0.5828790000000 1.0
C      1  0.5191490000000  0.6115250000000  0.4776540000000 1.0
C      1  0.5054930000000  0.3951780000000  0.4945990000000 1.0
C      1  0.4841020000000  0.4973690000000  0.4111610000000 1.0
C      1  0.4439870000000  0.5262490000000  0.4796290000000 1.0
C      1  0.5153410000000  0.5108520000000  0.6156200000000 1.0
C      1  0.5908170000000  0.5516060000000  0.5314250000000 1.0
C      1  0.5251330000000  0.4435640000000  0.5837470000000 1.0
C      1  0.4560330000000  0.4668940000000  0.4828640000000 1.0
C      1  0.4260170000000  0.5032600000000  0.4312440000000 1.0
C      1  0.5668550000000  0.5059260000000  0.4773550000000 1.0
C      1  0.5733560000000  0.5724580000000  0.5370700000000 1.0
C      1  0.5103650000000  0.4427460000000  0.5553880000000 1.0
C      1  0.5512850000000  0.5215890000000  0.4090590000000 1.0
C      1  0.5445040000000  0.5746030000000  0.4432270000000 1.0
C      1  0.5694950000000  0.4671210000000  0.4348780000000 1.0
C      1  0.4326160000000  0.6030190000000  0.5455430000000 1.0
C      1  0.4784380000000  0.4782670000000  0.6043130000000 1.0
C      1  0.5920780000000  0.4900390000000  0.5548360000000 1.0
C      1  0.4579410000000  0.4702810000000  0.5104920000000 1.0
C      1  0.4550380000000  0.4391680000000  0.4794000000000 1.0
C      1  0.4887430000000  0.3990600000000  0.5617370000000 1.0
C      1  0.5374810000000  0.4323830000000  0.4556340000000 1.0
C      1  0.5686300000000  0.4382980000000  0.5360070000000 1.0
C      1  0.5914630000000  0.4643780000000  0.5685850000000 1.0
C      1  0.6060890000000  0.5303410000000  0.4881670000000 1.0
C      1  0.4624990000000  0.4997600000000  0.5911810000000 1.0
C      1  0.4333060000000  0.5269630000000  0.5038200000000 1.0
C      1  0.5795610000000  0.4194790000000  0.4740300000000 1.0
C      1  0.5429750000000  0.4854180000000  0.5607370000000 1.0
C      1  0.5427800000000  0.5110460000000  0.6041950000000 1.0
C      1  0.5156380000000  0.4095120000000  0.5476530000000 1.0
C      1  0.5514680000000  0.3792760000000  0.5696330000000 1.0
C      1  0.5980710000000  0.4817140000000  0.5095400000000 1.0
C      1  0.5182320000000  0.5621140000000  0.4863640000000 1.0
C      1  0.4834310000000  0.4632740000000  0.5213590000000 1.0
C      1  0.5409720000000  0.4040040000000  0.5656920000000 1.0
C      1  0.5018390000000  0.5268300000000  0.5738650000000 1.0
C      1  0.5179080000000  0.4706360000000  0.4424830000000 1.0
C      1  0.5667980000000  0.5951480000000  0.4864800000000 1.0
C      1  0.3980170000000  0.4612760000000  0.4675420000000 1.0
C      1  0.4404720000000  0.5248270000000  0.4192690000000 1.0
C      1  0.3865310000000  0.5306230000000  0.5083390000000 1.0
C      1  0.4815830000000  0.4499520000000  0.5469110000000 1.0
C      1  0.5729100000000  0.4714930000000  0.4073850000000 1.0
C      1  0.4559960000000  0.4145920000000  0.4414950000000 1.0
C      1  0.4906070000000  0.4037720000000  0.4418800000000 1.0
C      1  0.5425940000000  0.4865080000000  0.5888140000000 1.0
C      1  0.5151670000000  0.5603530000000  0.5139070000000 1.0
C      1  0.5830160000000  0.4185040000000  0.5228820000000 1.0
C      1  0.4502120000000  0.4266030000000  0.5878000000000 1.0
C      1  0.5229270000000  0.5367350000000  0.5574370000000 1.0
C      1  0.3867810000000  0.5055600000000  0.4932770000000 1.0
C      1  0.4061670000000  0.4284490000000  0.5010020000000 1.0
C      1  0.5088000000000  0.4633840000000  0.4691300000000 1.0
C      1  0.4529760000000  0.4526870000000  0.5519630000000 1.0
C      1  0.5434660000000  0.4567280000000  0.4412250000000 1.0
C      1  0.5933920000000  0.4446080000000  0.4687880000000 1.0
C      1  0.3928970000000  0.5352360000000  0.5369190000000 1.0
C      1  0.5725270000000  0.5728970000000  0.4437430000000 1.0
C      1  0.4505020000000  0.5907890000000  0.5041460000000 1.0
C      1  0.5262750000000  0.5149410000000  0.3689690000000 1.0
END
