TITL C-599897-7526-1038 -30.9451755491648 125000 -1202.97845720597 0 0 198 (C1) n - 1
REM
REM in /home/nfs/bkarasulu/CARBON/AIRSS/Generating-Clusters/TERSOFF/Only-C1/FIRE-HFTN
REM
REM
REM
REM
REM
REM ./C.cell (11c1c37f851c82e70ff6c80c92926a4b)
REM AIRSS Version 0.9.1 bugfix July 2018 build 013d7b7c2542+ Fri, 06 Jul 2018 19:26:36 +0100
REM compiler GCC version 9.2.1 20190827 (Red Hat 9.2.1-1)
REM options -cpp -mtune=generic -march=x86-64 -g -O0 -fpre-include=/usr/include/finclude/math-vector-fortran.h
REM seed 937131574 -677156847 -1811843685 -1346148475 966982393 -698603297 -1999279111 -323175005 1467631685 -2002784437 1291549825 -1649511826 -1897317904 1401299786 -1186222729 -2052317483 -1407627681 -1152431982 1925623103 -884708773 1440195813 132228097 -828333611 821188887 1836195921 1057649317 -1257077427 616995788 1209117467 -332915361 1306874102 -941170018 1741827104
REM
CELL 1.54180   50.00000   50.00000   50.00000   90.00000   90.00000   90.00000
LATT -1
SFAC C  
C      1  0.5981790000000  0.5400740000000  0.5721140000000 1.0
C      1  0.5839640000000  0.5377640000000  0.5186470000000 1.0
C      1  0.4733970000000  0.3945610000000  0.4556050000000 1.0
C      1  0.5225500000000  0.4114320000000  0.5687160000000 1.0
C      1  0.4541180000000  0.4851210000000  0.6038190000000 1.0
C      1  0.4615890000000  0.5328660000000  0.4584160000000 1.0
C      1  0.5437820000000  0.6027910000000  0.4935280000000 1.0
C      1  0.5404430000000  0.4318230000000  0.4999970000000 1.0
C      1  0.5510740000000  0.4707760000000  0.6103200000000 1.0
C      1  0.5325630000000  0.6090250000000  0.5402330000000 1.0
C      1  0.6078370000000  0.4513350000000  0.5815040000000 1.0
C      1  0.5180360000000  0.4033630000000  0.5401440000000 1.0
C      1  0.4728530000000  0.4633640000000  0.5446430000000 1.0
C      1  0.5181280000000  0.5670720000000  0.4026570000000 1.0
C      1  0.6006050000000  0.5563600000000  0.4348110000000 1.0
C      1  0.5212020000000  0.3831980000000  0.4504630000000 1.0
C      1  0.5345540000000  0.4613580000000  0.4060380000000 1.0
C      1  0.4421770000000  0.4315640000000  0.5761790000000 1.0
C      1  0.3648190000000  0.5219150000000  0.4475160000000 1.0
C      1  0.4314890000000  0.4296620000000  0.4490120000000 1.0
C      1  0.5775780000000  0.4749770000000  0.5418620000000 1.0
C      1  0.4493360000000  0.4932200000000  0.4757180000000 1.0
C      1  0.4789910000000  0.5765620000000  0.4241760000000 1.0
C      1  0.4393720000000  0.4120520000000  0.4791150000000 1.0
C      1  0.6000240000000  0.4114070000000  0.4752890000000 1.0
C      1  0.4843930000000  0.4887190000000  0.4417600000000 1.0
C      1  0.5193220000000  0.5980060000000  0.4466070000000 1.0
C      1  0.3776640000000  0.4984300000000  0.4475090000000 1.0
C      1  0.3762520000000  0.5385130000000  0.5267790000000 1.0
C      1  0.4431770000000  0.5941720000000  0.5041280000000 1.0
C      1  0.4603140000000  0.5095220000000  0.3966160000000 1.0
C      1  0.4783240000000  0.5489540000000  0.6002840000000 1.0
C      1  0.4356170000000  0.4177910000000  0.5288230000000 1.0
C      1  0.5926410000000  0.5859810000000  0.4709310000000 1.0
C      1  0.4879550000000  0.5680800000000  0.5802310000000 1.0
C      1  0.5074790000000  0.5815290000000  0.4249480000000 1.0
C      1  0.5097450000000  0.5210620000000  0.3885260000000 1.0
C      1  0.5487480000000  0.3737590000000  0.5163930000000 1.0
C      1  0.4564010000000  0.4593720000000  0.4779400000000 1.0
C      1  0.4387890000000  0.4907860000000  0.3937530000000 1.0
C      1  0.4757080000000  0.4196450000000  0.4428620000000 1.0
C      1  0.5148340000000  0.3914840000000  0.4769450000000 1.0
C      1  0.4645010000000  0.3906020000000  0.5557520000000 1.0
C      1  0.4722880000000  0.5158640000000  0.5650480000000 1.0
C      1  0.5021200000000  0.5093730000000  0.5146540000000 1.0
C      1  0.4390930000000  0.5732630000000  0.4807270000000 1.0
C      1  0.4396940000000  0.5247130000000  0.4390990000000 1.0
C      1  0.4310370000000  0.5056250000000  0.5026400000000 1.0
C      1  0.4412400000000  0.4546580000000  0.4251260000000 1.0
C      1  0.5487990000000  0.4252700000000  0.5755950000000 1.0
C      1  0.4670330000000  0.4135070000000  0.5737380000000 1.0
C      1  0.4184780000000  0.5611330000000  0.5585190000000 1.0
C      1  0.5729490000000  0.3882650000000  0.5172050000000 1.0
C      1  0.5080690000000  0.5660180000000  0.5595500000000 1.0
C      1  0.5310000000000  0.5160520000000  0.4719370000000 1.0
C      1  0.6146200000000  0.5701430000000  0.5072550000000 1.0
C      1  0.3852110000000  0.5219980000000  0.5048330000000 1.0
C      1  0.5498350000000  0.5672010000000  0.5864300000000 1.0
C      1  0.4932030000000  0.4718300000000  0.3799060000000 1.0
C      1  0.5433190000000  0.5535770000000  0.4014190000000 1.0
C      1  0.4761750000000  0.4685020000000  0.5173000000000 1.0
C      1  0.4392590000000  0.5122380000000  0.6044340000000 1.0
C      1  0.5750880000000  0.4215340000000  0.5599310000000 1.0
C      1  0.3993510000000  0.4596820000000  0.4726810000000 1.0
C      1  0.6161290000000  0.4724670000000  0.5132470000000 1.0
C      1  0.5148610000000  0.4926980000000  0.5668320000000 1.0
C      1  0.5666950000000  0.5787780000000  0.5653010000000 1.0
C      1  0.4590070000000  0.3896410000000  0.4794680000000 1.0
C      1  0.4520030000000  0.5318600000000  0.4134570000000 1.0
C      1  0.5673210000000  0.5947510000000  0.5122800000000 1.0
C      1  0.5444920000000  0.5972710000000  0.4630730000000 1.0
C      1  0.5168020000000  0.4211270000000  0.4831600000000 1.0
C      1  0.5097660000000  0.5558030000000  0.5325660000000 1.0
C      1  0.6062290000000  0.4530680000000  0.4428950000000 1.0
C      1  0.5051100000000  0.4865720000000  0.6215320000000 1.0
C      1  0.4889460000000  0.6223210000000  0.4805620000000 1.0
C      1  0.6337910000000  0.5246480000000  0.4920310000000 1.0
C      1  0.4884830000000  0.5006930000000  0.3880490000000 1.0
C      1  0.4716520000000  0.4581150000000  0.3668530000000 1.0
C      1  0.4908290000000  0.5005650000000  0.5791420000000 1.0
C      1  0.4650100000000  0.5811660000000  0.5407980000000 1.0
C      1  0.3910610000000  0.4613320000000  0.5477570000000 1.0
C      1  0.4926700000000  0.6113390000000  0.5065490000000 1.0
C      1  0.4946280000000  0.4245440000000  0.5748240000000 1.0
C      1  0.4872720000000  0.5624850000000  0.4886590000000 1.0
C      1  0.6237990000000  0.5515950000000  0.4858700000000 1.0
C      1  0.5808640000000  0.5179430000000  0.5675130000000 1.0
C      1  0.5658630000000  0.4507390000000  0.4636400000000 1.0
C      1  0.4231660000000  0.6065190000000  0.4381610000000 1.0
C      1  0.5775650000000  0.3994020000000  0.5425190000000 1.0
C      1  0.5437860000000  0.5458000000000  0.6026260000000 1.0
C      1  0.5581040000000  0.5941980000000  0.5412340000000 1.0
C      1  0.3951440000000  0.4339540000000  0.5417960000000 1.0
C      1  0.5456190000000  0.5384300000000  0.4775740000000 1.0
C      1  0.5030090000000  0.4266190000000  0.5295940000000 1.0
C      1  0.5810680000000  0.5039800000000  0.4211680000000 1.0
C      1  0.4741700000000  0.4181230000000  0.4153800000000 1.0
C      1  0.5564420000000  0.5258780000000  0.5550740000000 1.0
C      1  0.4153150000000  0.5548660000000  0.4871420000000 1.0
C      1  0.6139560000000  0.4993720000000  0.4952230000000 1.0
C      1  0.4306350000000  0.5159140000000  0.5402520000000 1.0
C      1  0.4185080000000  0.4797870000000  0.5092600000000 1.0
C      1  0.6035580000000  0.4960060000000  0.4660620000000 1.0
C      1  0.5615580000000  0.5421010000000  0.5329810000000 1.0
C      1  0.4631590000000  0.5796660000000  0.5694060000000 1.0
C      1  0.5399790000000  0.5206050000000  0.6126980000000 1.0
C      1  0.5129500000000  0.4246640000000  0.3866630000000 1.0
C      1  0.4717990000000  0.4460030000000  0.4551270000000 1.0
C      1  0.5402260000000  0.4595070000000  0.5063720000000 1.0
C      1  0.5035030000000  0.3785610000000  0.5000490000000 1.0
C      1  0.4394530000000  0.5635230000000  0.5785580000000 1.0
C      1  0.5011300000000  0.5491470000000  0.3869240000000 1.0
C      1  0.4742940000000  0.3797920000000  0.5031490000000 1.0
C      1  0.4223990000000  0.4614100000000  0.4891850000000 1.0
C      1  0.5169030000000  0.4659810000000  0.5590320000000 1.0
C      1  0.4143840000000  0.6222390000000  0.4193140000000 1.0
C      1  0.5104250000000  0.5637890000000  0.5049100000000 1.0
C      1  0.4008370000000  0.4839760000000  0.4549920000000 1.0
C      1  0.4266630000000  0.4994680000000  0.4523690000000 1.0
C      1  0.5877770000000  0.3969940000000  0.4945580000000 1.0
C      1  0.5847280000000  0.4902240000000  0.5659690000000 1.0
C      1  0.3828680000000  0.4409290000000  0.4885960000000 1.0
C      1  0.5131750000000  0.4860700000000  0.4418940000000 1.0
C      1  0.4512050000000  0.4733500000000  0.5591540000000 1.0
C      1  0.4654360000000  0.3799890000000  0.5306110000000 1.0
C      1  0.5912410000000  0.5214550000000  0.4601640000000 1.0
C      1  0.4218160000000  0.4254860000000  0.5525820000000 1.0
C      1  0.6605710000000  0.5201170000000  0.4952240000000 1.0
C      1  0.4973870000000  0.5305320000000  0.5305200000000 1.0
C      1  0.5654450000000  0.5694910000000  0.4053660000000 1.0
C      1  0.5920220000000  0.5872060000000  0.4999580000000 1.0
C      1  0.5222700000000  0.6230930000000  0.5612290000000 1.0
C      1  0.5662820000000  0.4974840000000  0.5045800000000 1.0
C      1  0.5706440000000  0.5898790000000  0.4522380000000 1.0
C      1  0.5335440000000  0.5118310000000  0.5604180000000 1.0
C      1  0.4723430000000  0.5312500000000  0.5422210000000 1.0
C      1  0.4211130000000  0.5970420000000  0.5226100000000 1.0
C      1  0.5894630000000  0.5128450000000  0.5077180000000 1.0
C      1  0.6119930000000  0.5643390000000  0.4612900000000 1.0
C      1  0.4360190000000  0.4628130000000  0.3983360000000 1.0
C      1  0.5724570000000  0.5365310000000  0.4733010000000 1.0
C      1  0.5927470000000  0.5664640000000  0.5670070000000 1.0
C      1  0.5327660000000  0.4925500000000  0.6167700000000 1.0
C      1  0.5238510000000  0.4896280000000  0.4679740000000 1.0
C      1  0.3741750000000  0.5181020000000  0.5756150000000 1.0
C      1  0.3854450000000  0.4292640000000  0.5140180000000 1.0
C      1  0.3704300000000  0.5665200000000  0.4725570000000 1.0
C      1  0.5462670000000  0.4460490000000  0.5960480000000 1.0
C      1  0.4689370000000  0.5983940000000  0.5181020000000 1.0
C      1  0.4940690000000  0.4292760000000  0.5021230000000 1.0
C      1  0.4618470000000  0.5585280000000  0.4133650000000 1.0
C      1  0.5339640000000  0.5588270000000  0.4914230000000 1.0
C      1  0.5213400000000  0.6094140000000  0.5132640000000 1.0
C      1  0.6074620000000  0.4298610000000  0.4569440000000 1.0
C      1  0.5585870000000  0.4758400000000  0.5203860000000 1.0
C      1  0.4830690000000  0.4894840000000  0.6042100000000 1.0
C      1  0.4324720000000  0.5901010000000  0.4567370000000 1.0
C      1  0.5140740000000  0.4533230000000  0.3885830000000 1.0
C      1  0.5184600000000  0.4022690000000  0.4010560000000 1.0
C      1  0.3845580000000  0.5286050000000  0.5520100000000 1.0
C      1  0.5229500000000  0.4332690000000  0.4568850000000 1.0
C      1  0.5795430000000  0.5753620000000  0.4283690000000 1.0
C      1  0.5198230000000  0.4741300000000  0.4916670000000 1.0
C      1  0.4130230000000  0.5339300000000  0.5522400000000 1.0
C      1  0.4496740000000  0.5404850000000  0.5973170000000 1.0
C      1  0.4122660000000  0.5268170000000  0.4943530000000 1.0
C      1  0.3899430000000  0.5687310000000  0.4927340000000 1.0
C      1  0.5386640000000  0.5249850000000  0.3981000000000 1.0
C      1  0.4057860000000  0.5784480000000  0.5379700000000 1.0
C      1  0.5007220000000  0.6171080000000  0.4570160000000 1.0
C      1  0.4677440000000  0.4451970000000  0.5008050000000 1.0
C      1  0.6004620000000  0.4582740000000  0.5345410000000 1.0
C      1  0.5482120000000  0.4394610000000  0.4464000000000 1.0
C      1  0.4465460000000  0.4611200000000  0.5853300000000 1.0
C      1  0.3864910000000  0.5114760000000  0.5985750000000 1.0
C      1  0.4100400000000  0.4776140000000  0.5360320000000 1.0
C      1  0.5219940000000  0.3811750000000  0.5223790000000 1.0
C      1  0.4671390000000  0.4657820000000  0.4348480000000 1.0
C      1  0.4957590000000  0.4460960000000  0.5528140000000 1.0
C      1  0.4981440000000  0.4833220000000  0.5073040000000 1.0
C      1  0.3620100000000  0.5471890000000  0.4558940000000 1.0
C      1  0.5990080000000  0.4390100000000  0.5573000000000 1.0
C      1  0.4584530000000  0.5538220000000  0.5332830000000 1.0
C      1  0.5931400000000  0.5283690000000  0.4322930000000 1.0
C      1  0.5329160000000  0.4850090000000  0.4209700000000 1.0
C      1  0.4111240000000  0.5103820000000  0.6089780000000 1.0
C      1  0.5983810000000  0.4801280000000  0.4423220000000 1.0
C      1  0.4732010000000  0.5066530000000  0.4625840000000 1.0
C      1  0.5787780000000  0.4769500000000  0.6115950000000 1.0
C      1  0.5507280000000  0.4421150000000  0.4186600000000 1.0
C      1  0.4634630000000  0.5558930000000  0.4751790000000 1.0
C      1  0.4480270000000  0.4488930000000  0.3766740000000 1.0
C      1  0.4311060000000  0.4902960000000  0.5503420000000 1.0
C      1  0.4454800000000  0.4250870000000  0.5041700000000 1.0
C      1  0.5219480000000  0.3881240000000  0.4238530000000 1.0
C      1  0.5523500000000  0.5048110000000  0.4133650000000 1.0
C      1  0.5948110000000  0.4755300000000  0.5885710000000 1.0
C      1  0.3844540000000  0.5662100000000  0.5213750000000 1.0
END
