TITL C-599894-471-946 0.0409993224839926 125000 -535.500302339122 0 0 88 (C1) n - 1
REM
REM in /home/nfs/bkarasulu/CARBON/AIRSS/Generating-Clusters/TERSOFF/Only-C1/FIRE-HFTN
REM
REM
REM
REM
REM
REM ./C.cell (11c1c37f851c82e70ff6c80c92926a4b)
REM AIRSS Version 0.9.1 bugfix July 2018 build 013d7b7c2542+ Fri, 06 Jul 2018 19:26:36 +0100
REM compiler GCC version 9.2.1 20190827 (Red Hat 9.2.1-1)
REM options -cpp -mtune=generic -march=x86-64 -g -O0 -fpre-include=/usr/include/finclude/math-vector-fortran.h
REM seed 1569103287 -1013142380 -418917453 -599953908 1129261817 -2146601500 -1029535386 -1296961010 1700332357 -605995729 1350135455 -1079878174 -2022612169 1950851060 1411175547 277965334 -1401230584 -356380908 -1266300943 1240307550 -429470102 -2032890075 491950606 1646367768 1579897584 -1096233516 1022430738 -1763727555 935077145 -1549567471 -2142795122 647536624 -453070606
REM
CELL 1.54180   50.00000   50.00000   50.00000   90.00000   90.00000   90.00000
LATT -1
SFAC C  
C      1  0.4362850000000  0.4641000000000  0.5009820000000 1.0
C      1  0.4553830000000  0.4703730000000  0.4481740000000 1.0
C      1  0.4231410000000  0.4617880000000  0.5553110000000 1.0
C      1  0.4938450000000  0.4320110000000  0.5653220000000 1.0
C      1  0.5313710000000  0.5132120000000  0.5061750000000 1.0
C      1  0.4474870000000  0.4454720000000  0.5577990000000 1.0
C      1  0.5862960000000  0.5553010000000  0.5660200000000 1.0
C      1  0.4816690000000  0.4169010000000  0.4696460000000 1.0
C      1  0.5020080000000  0.4682890000000  0.4766340000000 1.0
C      1  0.5558840000000  0.4931420000000  0.4333010000000 1.0
C      1  0.5182330000000  0.5209420000000  0.4820710000000 1.0
C      1  0.5509470000000  0.5217960000000  0.4289810000000 1.0
C      1  0.5118860000000  0.5523000000000  0.4103690000000 1.0
C      1  0.5115850000000  0.4682740000000  0.4232520000000 1.0
C      1  0.4769730000000  0.5125880000000  0.5061670000000 1.0
C      1  0.4737210000000  0.5246820000000  0.4812330000000 1.0
C      1  0.5619270000000  0.5582190000000  0.5234640000000 1.0
C      1  0.5012820000000  0.4418530000000  0.4273110000000 1.0
C      1  0.5337180000000  0.5712910000000  0.5905740000000 1.0
C      1  0.4609160000000  0.5505460000000  0.4840790000000 1.0
C      1  0.5553300000000  0.4996790000000  0.5004310000000 1.0
C      1  0.4361400000000  0.4868180000000  0.3854150000000 1.0
C      1  0.4454600000000  0.4381070000000  0.4945460000000 1.0
C      1  0.4746230000000  0.5714140000000  0.4410360000000 1.0
C      1  0.5319840000000  0.5697110000000  0.4828850000000 1.0
C      1  0.4779550000000  0.4703790000000  0.4622300000000 1.0
C      1  0.5750850000000  0.4390620000000  0.4768070000000 1.0
C      1  0.5219590000000  0.5105990000000  0.5331690000000 1.0
C      1  0.5500340000000  0.5580960000000  0.4638660000000 1.0
C      1  0.5340920000000  0.4752070000000  0.4393070000000 1.0
C      1  0.4958710000000  0.5204600000000  0.4642860000000 1.0
C      1  0.4666740000000  0.4671590000000  0.5663530000000 1.0
C      1  0.4204830000000  0.4896450000000  0.5529940000000 1.0
C      1  0.4392080000000  0.5449180000000  0.5044740000000 1.0
C      1  0.4717760000000  0.4784650000000  0.5404140000000 1.0
C      1  0.5344710000000  0.4187110000000  0.5048320000000 1.0
C      1  0.4919090000000  0.4240760000000  0.4455970000000 1.0
C      1  0.4297580000000  0.5148300000000  0.5459960000000 1.0
C      1  0.4926350000000  0.5114610000000  0.4378350000000 1.0
C      1  0.4094980000000  0.5061950000000  0.4873580000000 1.0
C      1  0.5250270000000  0.4660190000000  0.6140990000000 1.0
C      1  0.4772080000000  0.5698920000000  0.4693590000000 1.0
C      1  0.4866970000000  0.4546030000000  0.5824310000000 1.0
C      1  0.4692850000000  0.4222160000000  0.4949150000000 1.0
C      1  0.5284680000000  0.4722240000000  0.4676020000000 1.0
C      1  0.5634020000000  0.5363200000000  0.4510220000000 1.0
C      1  0.4967340000000  0.4744430000000  0.5292370000000 1.0
C      1  0.4512070000000  0.4770500000000  0.5210120000000 1.0
C      1  0.5769290000000  0.5173750000000  0.4935390000000 1.0
C      1  0.5183030000000  0.4348160000000  0.5492740000000 1.0
C      1  0.5100500000000  0.6140400000000  0.5824240000000 1.0
C      1  0.4295210000000  0.4900530000000  0.4117970000000 1.0
C      1  0.4759740000000  0.5268820000000  0.5311790000000 1.0
C      1  0.5751690000000  0.4670260000000  0.4708540000000 1.0
C      1  0.4341410000000  0.4687830000000  0.4301000000000 1.0
C      1  0.4828550000000  0.4192800000000  0.5204880000000 1.0
C      1  0.5170130000000  0.5761250000000  0.5287430000000 1.0
C      1  0.5225800000000  0.5950040000000  0.5967270000000 1.0
C      1  0.5025610000000  0.5308030000000  0.5418540000000 1.0
C      1  0.4998380000000  0.4619040000000  0.6057390000000 1.0
C      1  0.4186550000000  0.5135230000000  0.4208080000000 1.0
C      1  0.5789800000000  0.5408480000000  0.5089970000000 1.0
C      1  0.5625760000000  0.5568920000000  0.5524600000000 1.0
C      1  0.4174600000000  0.4463880000000  0.4299790000000 1.0
C      1  0.5042770000000  0.5751770000000  0.4776480000000 1.0
C      1  0.5204180000000  0.4830320000000  0.5420140000000 1.0
C      1  0.5809050000000  0.5171680000000  0.4651400000000 1.0
C      1  0.5146920000000  0.5554950000000  0.5486920000000 1.0
C      1  0.5061970000000  0.6013390000000  0.5344940000000 1.0
C      1  0.5328910000000  0.5357260000000  0.4126430000000 1.0
C      1  0.5335570000000  0.4598660000000  0.5530670000000 1.0
C      1  0.5034370000000  0.6165530000000  0.5564760000000 1.0
C      1  0.4992240000000  0.4646850000000  0.5037160000000 1.0
C      1  0.5373540000000  0.5573710000000  0.5664010000000 1.0
C      1  0.4165180000000  0.4802580000000  0.4890330000000 1.0
C      1  0.5568810000000  0.4237580000000  0.4903880000000 1.0
C      1  0.5520990000000  0.4624430000000  0.5740100000000 1.0
C      1  0.4025300000000  0.4250790000000  0.4314340000000 1.0
C      1  0.5511620000000  0.4765400000000  0.4846570000000 1.0
C      1  0.4473060000000  0.5337970000000  0.5317080000000 1.0
C      1  0.5791470000000  0.4896500000000  0.4523250000000 1.0
C      1  0.4901970000000  0.5648330000000  0.4200300000000 1.0
C      1  0.5388910000000  0.5707040000000  0.5107150000000 1.0
C      1  0.4163000000000  0.5315640000000  0.4934660000000 1.0
C      1  0.5482640000000  0.4657880000000  0.6004680000000 1.0
C      1  0.4953570000000  0.4914210000000  0.4196590000000 1.0
C      1  0.4692500000000  0.4252290000000  0.5471930000000 1.0
C      1  0.5130080000000  0.4219520000000  0.5232920000000 1.0
END
