TITL C-599896-8500-794 4.39981951671306e-05 125000 -571.132414488161 0 0 92 (C1) n - 1
REM
REM in /home/nfs/bkarasulu/CARBON/AIRSS/Generating-Clusters/TERSOFF/Only-C1/FIRE-HFTN
REM
REM
REM
REM
REM
REM ./C.cell (11c1c37f851c82e70ff6c80c92926a4b)
REM AIRSS Version 0.9.1 bugfix July 2018 build 013d7b7c2542+ Fri, 06 Jul 2018 19:26:36 +0100
REM compiler GCC version 9.2.1 20190827 (Red Hat 9.2.1-1)
REM options -cpp -mtune=generic -march=x86-64 -g -O0 -fpre-include=/usr/include/finclude/math-vector-fortran.h
REM seed 512157353 -1146231082 -2001556128 -2010345987 -1747367450 802237428 -1671754888 -1532272826 -612554732 -881850599 -1289946444 -523915649 -902306851 98866976 -105908324 -1426037451 1255466337 1490958016 1717238761 -1561930604 968377405 -1357160345 1547121363 -1645623407 511967741 -1339993973 1741527317 -1869394888 952006666 137741074 -1142829589 -1096313073 1869218938
REM
CELL 1.54180   50.00000   50.00000   50.00000   90.00000   90.00000   90.00000
LATT -1
SFAC C  
C      1  0.4659310000000  0.4659580000000  0.4626030000000 1.0
C      1  0.5953020000000  0.4667460000000  0.4850360000000 1.0
C      1  0.4924630000000  0.4121120000000  0.5560260000000 1.0
C      1  0.5605200000000  0.5215360000000  0.4891300000000 1.0
C      1  0.5363360000000  0.5618030000000  0.4229070000000 1.0
C      1  0.5628460000000  0.5019580000000  0.5329540000000 1.0
C      1  0.4173590000000  0.5030330000000  0.5068710000000 1.0
C      1  0.5817270000000  0.5597140000000  0.5098140000000 1.0
C      1  0.4758900000000  0.5465750000000  0.5707890000000 1.0
C      1  0.6116120000000  0.5206030000000  0.5234810000000 1.0
C      1  0.5586400000000  0.5758580000000  0.5215860000000 1.0
C      1  0.6096430000000  0.4894700000000  0.4843980000000 1.0
C      1  0.4525450000000  0.5485700000000  0.5570640000000 1.0
C      1  0.5111450000000  0.4308140000000  0.5664350000000 1.0
C      1  0.5050960000000  0.4340740000000  0.4688280000000 1.0
C      1  0.4583520000000  0.4897470000000  0.4772230000000 1.0
C      1  0.5442540000000  0.5075020000000  0.5760340000000 1.0
C      1  0.5328480000000  0.4305960000000  0.4632610000000 1.0
C      1  0.5173110000000  0.5414620000000  0.4118660000000 1.0
C      1  0.4900150000000  0.4784060000000  0.5719010000000 1.0
C      1  0.6087890000000  0.4972600000000  0.5399800000000 1.0
C      1  0.4321340000000  0.5008100000000  0.4814370000000 1.0
C      1  0.3778460000000  0.4963360000000  0.4316580000000 1.0
C      1  0.4119230000000  0.4789780000000  0.5691390000000 1.0
C      1  0.4996460000000  0.4541710000000  0.5773550000000 1.0
C      1  0.4341660000000  0.5424780000000  0.5360550000000 1.0
C      1  0.4955930000000  0.5263130000000  0.5728800000000 1.0
C      1  0.3876470000000  0.5304310000000  0.3962330000000 1.0
C      1  0.5367360000000  0.5759040000000  0.5022260000000 1.0
C      1  0.5155200000000  0.4926970000000  0.4593270000000 1.0
C      1  0.5079590000000  0.4732420000000  0.4395880000000 1.0
C      1  0.4506980000000  0.4325900000000  0.5413170000000 1.0
C      1  0.4316110000000  0.4327020000000  0.5619410000000 1.0
C      1  0.4170390000000  0.4528730000000  0.5722030000000 1.0
C      1  0.5242890000000  0.4903910000000  0.5057180000000 1.0
C      1  0.4905710000000  0.5480810000000  0.4978330000000 1.0
C      1  0.5750640000000  0.4574410000000  0.5405960000000 1.0
C      1  0.4134580000000  0.5259180000000  0.4388010000000 1.0
C      1  0.5214510000000  0.5227750000000  0.5840320000000 1.0
C      1  0.5945690000000  0.5429250000000  0.5299860000000 1.0
C      1  0.5596770000000  0.5193620000000  0.5552470000000 1.0
C      1  0.4798570000000  0.5231660000000  0.5100130000000 1.0
C      1  0.4599400000000  0.4823930000000  0.5274020000000 1.0
C      1  0.6169980000000  0.5124960000000  0.4966770000000 1.0
C      1  0.4751960000000  0.5056480000000  0.5334580000000 1.0
C      1  0.5187390000000  0.5403920000000  0.4596200000000 1.0
C      1  0.4720840000000  0.4144760000000  0.5363190000000 1.0
C      1  0.5250520000000  0.4830890000000  0.4167360000000 1.0
C      1  0.5486500000000  0.4787310000000  0.5780470000000 1.0
C      1  0.4802560000000  0.4123200000000  0.5090780000000 1.0
C      1  0.5514720000000  0.5782980000000  0.4073840000000 1.0
C      1  0.5497010000000  0.5676960000000  0.4762130000000 1.0
C      1  0.4267080000000  0.5718150000000  0.4921170000000 1.0
C      1  0.5662080000000  0.4418060000000  0.5167510000000 1.0
C      1  0.5166340000000  0.4678350000000  0.5198380000000 1.0
C      1  0.5249400000000  0.5135900000000  0.4188310000000 1.0
C      1  0.5377090000000  0.4332390000000  0.5559150000000 1.0
C      1  0.3924990000000  0.5186260000000  0.4202080000000 1.0
C      1  0.4874170000000  0.5031740000000  0.5588280000000 1.0
C      1  0.5103590000000  0.5661640000000  0.5083500000000 1.0
C      1  0.4289910000000  0.5622110000000  0.5167870000000 1.0
C      1  0.4210220000000  0.5518750000000  0.4453390000000 1.0
C      1  0.4524680000000  0.4569880000000  0.5273930000000 1.0
C      1  0.4922010000000  0.5472790000000  0.4684210000000 1.0
C      1  0.5743770000000  0.5434730000000  0.5524330000000 1.0
C      1  0.4147650000000  0.5016620000000  0.5553060000000 1.0
C      1  0.4803730000000  0.5032980000000  0.4889010000000 1.0
C      1  0.5506030000000  0.4698390000000  0.4183280000000 1.0
C      1  0.5843450000000  0.4835740000000  0.5371840000000 1.0
C      1  0.5066290000000  0.4947380000000  0.4847370000000 1.0
C      1  0.3902800000000  0.4897200000000  0.4566770000000 1.0
C      1  0.4996150000000  0.4281410000000  0.4961980000000 1.0
C      1  0.4223580000000  0.5163650000000  0.5322530000000 1.0
C      1  0.5488160000000  0.5044060000000  0.5086000000000 1.0
C      1  0.3803610000000  0.4815950000000  0.4817020000000 1.0
C      1  0.5181110000000  0.4405180000000  0.5139250000000 1.0
C      1  0.4906970000000  0.4541260000000  0.4530580000000 1.0
C      1  0.3563450000000  0.4839180000000  0.4206890000000 1.0
C      1  0.4896120000000  0.5479210000000  0.4186250000000 1.0
C      1  0.5248020000000  0.5159480000000  0.4479550000000 1.0
C      1  0.4155410000000  0.5049360000000  0.4585910000000 1.0
C      1  0.5575610000000  0.4443960000000  0.4641040000000 1.0
C      1  0.4780090000000  0.5510030000000  0.4435840000000 1.0
C      1  0.5364980000000  0.5615460000000  0.4519940000000 1.0
C      1  0.5729330000000  0.4492300000000  0.4887680000000 1.0
C      1  0.5559610000000  0.4548420000000  0.5632420000000 1.0
C      1  0.5410440000000  0.4295950000000  0.5265280000000 1.0
C      1  0.3922580000000  0.4891120000000  0.5049360000000 1.0
C      1  0.5632650000000  0.4577100000000  0.4392480000000 1.0
C      1  0.4245450000000  0.5685820000000  0.4657980000000 1.0
C      1  0.5592800000000  0.5679390000000  0.5492090000000 1.0
C      1  0.5696950000000  0.5483500000000  0.4859420000000 1.0
END
