TITL C-599896-8500-137 28160.313473727 125000 -1137.69886258187 0 0 185 (C1) n - 1
REM
REM in /home/nfs/bkarasulu/CARBON/AIRSS/Generating-Clusters/TERSOFF/Only-C1/FIRE-HFTN
REM
REM
REM
REM
REM
REM ./C.cell (11c1c37f851c82e70ff6c80c92926a4b)
REM AIRSS Version 0.9.1 bugfix July 2018 build 013d7b7c2542+ Fri, 06 Jul 2018 19:26:36 +0100
REM compiler GCC version 9.2.1 20190827 (Red Hat 9.2.1-1)
REM options -cpp -mtune=generic -march=x86-64 -g -O0 -fpre-include=/usr/include/finclude/math-vector-fortran.h
REM seed -993330178 -728047297 -1819853352 142147395 1822801366 2095706537 -2044852744 -493187281 246988404 1753676863 -1060315077 1098538159 1407148024 -675041276 1482603180 -1501606527 -1528290227 1243773247 -194548923 34363224 1195654046 -379169323 686973445 -155631102 -1626364421 1783106817 1058677538 115762309 -21986549 -362944702 -126827358 840030428 -428915251
REM
CELL 1.54180   50.00000   50.00000   50.00000   90.00000   90.00000   90.00000
LATT -1
SFAC C  
C      1  0.5437410000000  0.5245360000000  0.5289650000000 1.0
C      1  0.5168450000000  0.5189850000000  0.5236240000000 1.0
C      1  0.4273870000000  0.4756930000000  0.6002940000000 1.0
C      1  0.5755480000000  0.4943630000000  0.4160800000000 1.0
C      1  0.5553370000000  0.5487070000000  0.5712230000000 1.0
C      1  0.4820170000000  0.5749000000000  0.4326410000000 1.0
C      1  0.4798180000000  0.3815420000000  0.5678100000000 1.0
C      1  0.4236580000000  0.5245630000000  0.5208870000000 1.0
C      1  0.4714830000000  0.5684340000000  0.5070160000000 1.0
C      1  0.5656630000000  0.3388380000000  0.3993660000000 1.0
C      1  0.5455820000000  0.4007280000000  0.5425410000000 1.0
C      1  0.4605260000000  0.5644160000000  0.4154100000000 1.0
C      1  0.4443860000000  0.4158060000000  0.4327820000000 1.0
C      1  0.5534530000000  0.4682840000000  0.5131250000000 1.0
C      1  0.4243510000000  0.4447040000000  0.5633770000000 1.0
C      1  0.5336980000000  0.3906770000000  0.5661810000000 1.0
C      1  0.4599090000000  0.5414970000000  0.4594140000000 1.0
C      1  0.4549030000000  0.4740900000000  0.6056970000000 1.0
C      1  0.4143700000000  0.4706950000000  0.5753430000000 1.0
C      1  0.5587030000000  0.5313620000000  0.5494340000000 1.0
C      1  0.4723700000000  0.5671790000000  0.4584540000000 1.0
C      1  0.5517600000000  0.5675490000000  0.4512670000000 1.0
C      1  0.5724930000000  0.5709210000000  0.5687470000000 1.0
C      1  0.4054490000000  0.4592600000000  0.5255350000000 1.0
C      1  0.4871200000000  0.5148120000000  0.4831670000000 1.0
C      1  0.6077120000000  0.5213810000000  0.5725810000000 1.0
C      1  0.5788780000000  0.5721770000000  0.4473560000000 1.0
C      1  0.3805300000000  0.4735340000000  0.4885920000000 1.0
C      1  0.6129480000000  0.5282420000000  0.6512270000000 1.0
C      1  0.4098310000000  0.4346260000000  0.5388930000000 1.0
C      1  0.4854480000000  0.3867220000000  0.5197280000000 1.0
C      1  0.4260630000000  0.4153520000000  0.5245590000000 1.0
C      1  0.4928620000000  0.4592670000000  0.3718310000000 1.0
C      1  0.5845660000000  0.5448330000000  0.5055050000000 1.0
C      1  0.5728450000000  0.5709870000000  0.5177440000000 1.0
C      1  0.5118150000000  0.4612860000000  0.4811300000000 1.0
C      1  0.3852640000000  0.4767140000000  0.5166680000000 1.0
C      1  0.5076280000000  0.5749340000000  0.5409070000000 1.0
C      1  0.4186020000000  0.5911200000000  0.4689420000000 1.0
C      1  0.4215440000000  0.5987220000000  0.4953980000000 1.0
C      1  0.5426150000000  0.5302150000000  0.4050160000000 1.0
C      1  0.5284340000000  0.4397790000000  0.4717150000000 1.0
C      1  0.4980120000000  0.4938900000000  0.6103900000000 1.0
C      1  0.5113530000000  0.5743570000000  0.4266970000000 1.0
C      1  0.3958010000000  0.5240820000000  0.5253620000000 1.0
C      1  0.5731890000000  0.4619450000000  0.4593990000000 1.0
C      1  0.4212710000000  0.5002970000000  0.4482250000000 1.0
C      1  0.5306290000000  0.4801580000000  0.5768830000000 1.0
C      1  0.5320940000000  0.5396650000000  0.5849400000000 1.0
C      1  0.5523120000000  0.3594000000000  0.4463200000000 1.0
C      1  0.5561850000000  0.5205750000000  0.4659590000000 1.0
C      1  0.3872150000000  0.4988310000000  0.5363040000000 1.0
C      1  0.5310880000000  0.5924820000000  0.5410700000000 1.0
C      1  0.4607200000000  0.4652320000000  0.4797160000000 1.0
C      1  0.5182160000000  0.5017150000000  0.3696870000000 1.0
C      1  0.4956970000000  0.4092210000000  0.4213980000000 1.0
C      1  0.4860570000000  0.5918390000000  0.6129000000000 1.0
C      1  0.5843840000000  0.4505730000000  0.4029850000000 1.0
C      1  0.6289680000000  0.5728600000000  0.4304550000000 1.0
C      1  0.4448460000000  0.4905850000000  0.3804270000000 1.0
C      1  0.5592640000000  0.3482760000000  0.4232940000000 1.0
C      1  0.4564410000000  0.4705130000000  0.5281540000000 1.0
C      1  0.5079570000000  0.5363680000000  0.5683170000000 1.0
C      1  0.5483370000000  0.5891920000000  0.5154670000000 1.0
C      1  0.5367080000000  0.5196350000000  0.6043230000000 1.0
C      1  0.5835410000000  0.5771690000000  0.5444630000000 1.0
C      1  0.4561550000000  0.5557450000000  0.5261890000000 1.0
C      1  0.3905930000000  0.4611360000000  0.4662830000000 1.0
C      1  0.4860290000000  0.5017820000000  0.4324160000000 1.0
C      1  0.4697570000000  0.4071210000000  0.4287540000000 1.0
C      1  0.5183230000000  0.4196180000000  0.4108800000000 1.0
C      1  0.3949970000000  0.5731650000000  0.5373310000000 1.0
C      1  0.4085500000000  0.4409950000000  0.4561720000000 1.0
C      1  0.5915530000000  0.4859080000000  0.5407170000000 1.0
C      1  0.5246350000000  0.3636380000000  0.5675220000000 1.0
C      1  0.5201090000000  0.5321110000000  0.4427280000000 1.0
C      1  0.5934290000000  0.4749770000000  0.4745310000000 1.0
C      1  0.4966930000000  0.5776610000000  0.5156520000000 1.0
C      1  0.6097770000000  0.4790780000000  0.5182210000000 1.0
C      1  0.4800310000000  0.4481430000000  0.3928600000000 1.0
C      1  0.5311550000000  0.4790640000000  0.4407930000000 1.0
C      1  0.5650020000000  0.5154410000000  0.4305910000000 1.0
C      1  0.5551840000000  0.4849040000000  0.3960350000000 1.0
C      1  0.5647710000000  0.4758320000000  0.5397970000000 1.0
C      1  0.5390900000000  0.5071800000000  0.3875670000000 1.0
C      1  0.4561640000000  0.4374410000000  0.4922470000000 1.0
C      1  0.5717810000000  0.3300830000000  0.3755840000000 1.0
C      1  0.4775130000000  0.5147030000000  0.4055710000000 1.0
C      1  0.4883250000000  0.4056710000000  0.5823890000000 1.0
C      1  0.5121950000000  0.5172390000000  0.4953970000000 1.0
C      1  0.4294080000000  0.4734930000000  0.5309910000000 1.0
C      1  0.4206380000000  0.5844890000000  0.5440570000000 1.0
C      1  0.4298490000000  0.4839430000000  0.4037510000000 1.0
C      1  0.5055840000000  0.6000110000000  0.4995150000000 1.0
C      1  0.5351050000000  0.3910100000000  0.4848480000000 1.0
C      1  0.5275720000000  0.4444410000000  0.5447840000000 1.0
C      1  0.4689040000000  0.5826380000000  0.4813480000000 1.0
C      1  0.4812860000000  0.6088020000000  0.4865980000000 1.0
C      1  0.6042900000000  0.5737810000000  0.4400620000000 1.0
C      1  0.6142570000000  0.5056620000000  0.5051560000000 1.0
C      1  0.4651090000000  0.5083300000000  0.5001170000000 1.0
C      1  0.4643620000000  0.4812480000000  0.5041840000000 1.0
C      1  0.4055020000000  0.5218380000000  0.5767330000000 1.0
C      1  0.4121700000000  0.5445190000000  0.4648190000000 1.0
C      1  0.4717330000000  0.4993540000000  0.3821980000000 1.0
C      1  0.6135730000000  0.5274820000000  0.6247390000000 1.0
C      1  0.5443360000000  0.3733950000000  0.4673630000000 1.0
C      1  0.6035840000000  0.5276930000000  0.5220300000000 1.0
C      1  0.4220060000000  0.5060080000000  0.4198660000000 1.0
C      1  0.5397220000000  0.5437950000000  0.4600870000000 1.0
C      1  0.4740780000000  0.5081080000000  0.5467980000000 1.0
C      1  0.4670550000000  0.4483470000000  0.6035180000000 1.0
C      1  0.4537990000000  0.5202870000000  0.5613320000000 1.0
C      1  0.4940400000000  0.4873570000000  0.3694880000000 1.0
C      1  0.4910010000000  0.6104610000000  0.5940230000000 1.0
C      1  0.4737460000000  0.4481220000000  0.5381600000000 1.0
C      1  0.4411310000000  0.5357780000000  0.5403050000000 1.0
C      1  0.4375300000000  0.5392690000000  0.4768750000000 1.0
C      1  0.5011840000000  0.4577720000000  0.5468990000000 1.0
C      1  0.5882670000000  0.4365060000000  0.5046010000000 1.0
C      1  0.6029720000000  0.4597230000000  0.4980580000000 1.0
C      1  0.4176480000000  0.5690950000000  0.4496330000000 1.0
C      1  0.6124510000000  0.5252170000000  0.5983610000000 1.0
C      1  0.4706490000000  0.4979360000000  0.6039680000000 1.0
C      1  0.5393690000000  0.4235150000000  0.5238780000000 1.0
C      1  0.5212870000000  0.6155180000000  0.5556900000000 1.0
C      1  0.5025210000000  0.5112930000000  0.5492190000000 1.0
C      1  0.4313710000000  0.6020490000000  0.5234120000000 1.0
C      1  0.4679150000000  0.4577560000000  0.4165130000000 1.0
C      1  0.3996930000000  0.4951950000000  0.5639520000000 1.0
C      1  0.4678950000000  0.3869860000000  0.5423750000000 1.0
C      1  0.4387980000000  0.4600990000000  0.4174580000000 1.0
C      1  0.4643340000000  0.5648580000000  0.5721470000000 1.0
C      1  0.5085620000000  0.4835410000000  0.5587190000000 1.0
C      1  0.4318440000000  0.5604970000000  0.4238540000000 1.0
C      1  0.4730210000000  0.5151990000000  0.4561880000000 1.0
C      1  0.4401350000000  0.5218700000000  0.4983230000000 1.0
C      1  0.5237000000000  0.4148620000000  0.4979010000000 1.0
C      1  0.4138640000000  0.4211140000000  0.4759770000000 1.0
C      1  0.5365800000000  0.4359290000000  0.3994800000000 1.0
C      1  0.4767570000000  0.5666850000000  0.6174490000000 1.0
C      1  0.5353630000000  0.6065520000000  0.4650170000000 1.0
C      1  0.4020840000000  0.5184680000000  0.4598800000000 1.0
C      1  0.5805820000000  0.5261650000000  0.4810080000000 1.0
C      1  0.4342100000000  0.5697660000000  0.5662690000000 1.0
C      1  0.4476240000000  0.4067950000000  0.5422840000000 1.0
C      1  0.5475760000000  0.4631890000000  0.5596590000000 1.0
C      1  0.5329820000000  0.6007850000000  0.4929050000000 1.0
C      1  0.4952330000000  0.4105360000000  0.5075150000000 1.0
C      1  0.5156240000000  0.5039020000000  0.4385230000000 1.0
C      1  0.4946360000000  0.6186850000000  0.5669730000000 1.0
C      1  0.4659160000000  0.5493940000000  0.5978430000000 1.0
C      1  0.4272200000000  0.4393530000000  0.4336450000000 1.0
C      1  0.4701110000000  0.4277040000000  0.5843590000000 1.0
C      1  0.4869080000000  0.4640830000000  0.4647700000000 1.0
C      1  0.4545780000000  0.6193430000000  0.5270140000000 1.0
C      1  0.5169470000000  0.4079170000000  0.5823090000000 1.0
C      1  0.4710110000000  0.5418310000000  0.4018880000000 1.0
C      1  0.4444080000000  0.4908260000000  0.4602210000000 1.0
C      1  0.5334140000000  0.4779950000000  0.4944270000000 1.0
C      1  0.4322470000000  0.4220320000000  0.4970110000000 1.0
C      1  0.4823860000000  0.4715830000000  0.4368030000000 1.0
C      1  0.5992000000000  0.5035000000000  0.4801110000000 1.0
C      1  0.4773300000000  0.4320470000000  0.5115670000000 1.0
C      1  0.5566550000000  0.4552180000000  0.3948400000000 1.0
C      1  0.5992460000000  0.5135260000000  0.5473600000000 1.0
C      1  0.6759370000000  0.5690700000000  0.4071500000000 1.0
C      1  0.6528320000000  0.5710570000000  0.4190620000000 1.0
C      1  0.3843690000000  0.5496240000000  0.5292580000000 1.0
C      1  0.4546760000000  0.4327300000000  0.5589440000000 1.0
C      1  0.5613260000000  0.4400630000000  0.5115860000000 1.0
C      1  0.4606380000000  0.5218850000000  0.5902710000000 1.0
C      1  0.5458460000000  0.4559080000000  0.4533020000000 1.0
C      1  0.5949910000000  0.4731430000000  0.4152120000000 1.0
C      1  0.4929340000000  0.5606570000000  0.5606760000000 1.0
C      1  0.5225870000000  0.5471890000000  0.4176900000000 1.0
C      1  0.6118380000000  0.5283450000000  0.6772730000000 1.0
C      1  0.5250480000000  0.4941130000000  0.6013860000000 1.0
C      1  0.4662960000000  0.6271430000000  0.5019600000000 1.0
C      1  0.5318540000000  0.5873830000000  0.4440470000000 1.0
C      1  0.4161910000000  0.5474970000000  0.5776140000000 1.0
C      1  0.5357930000000  0.5043740000000  0.4833480000000 1.0
C      1  0.4977300000000  0.3594190000000  0.5699120000000 1.0
C      1  0.4715280000000  0.6220210000000  0.5500220000000 1.0
C      1  0.4216610000000  0.5343770000000  0.4137550000000 1.0
END
