TITL C-599890-3321-619 3.52617076537243e-06 125000 -624.094516366681 0 0 101 (C1) n - 1
REM
REM in /home/nfs/bkarasulu/CARBON/AIRSS/Generating-Clusters/TERSOFF/Only-C1/FIRE-HFTN
REM
REM
REM
REM
REM
REM ./C.cell (11c1c37f851c82e70ff6c80c92926a4b)
REM AIRSS Version 0.9.1 bugfix July 2018 build 013d7b7c2542+ Fri, 06 Jul 2018 19:26:36 +0100
REM compiler GCC version 9.2.1 20190827 (Red Hat 9.2.1-1)
REM options -cpp -mtune=generic -march=x86-64 -g -O0 -fpre-include=/usr/include/finclude/math-vector-fortran.h
REM seed -1210682256 -666391224 -189873185 1771562023 -1438144491 1921307871 1902992520 883445977 -505853258 911720860 928038905 675143585 1805818468 216938689 -144078607 -1783014592 -1085299930 1184738610 828795498 -1189713660 2123579495 -1065451061 -1668961434 433261181 1224490766 1233780805 -61254899 698654663 1959740656 -957986415 -1458093207 1054652826 -813630443
REM
CELL 1.54180   50.00000   50.00000   50.00000   90.00000   90.00000   90.00000
LATT -1
SFAC C  
C      1  0.4400580000000  0.5406140000000  0.5754850000000 1.0
C      1  0.4729840000000  0.4645880000000  0.4177850000000 1.0
C      1  0.5842100000000  0.5103560000000  0.4493670000000 1.0
C      1  0.4252520000000  0.5612110000000  0.4934360000000 1.0
C      1  0.5242910000000  0.4685480000000  0.4684120000000 1.0
C      1  0.5806500000000  0.4506840000000  0.4888170000000 1.0
C      1  0.4713020000000  0.4523280000000  0.5593750000000 1.0
C      1  0.5672720000000  0.4438530000000  0.5359880000000 1.0
C      1  0.5634110000000  0.3830020000000  0.5004290000000 1.0
C      1  0.5174280000000  0.4342780000000  0.5553960000000 1.0
C      1  0.4493440000000  0.4749910000000  0.4316310000000 1.0
C      1  0.4520880000000  0.5223650000000  0.4921550000000 1.0
C      1  0.4055930000000  0.5136810000000  0.4957100000000 1.0
C      1  0.5048360000000  0.5723720000000  0.4371950000000 1.0
C      1  0.4492000000000  0.5663810000000  0.5346350000000 1.0
C      1  0.5273840000000  0.5670760000000  0.4543010000000 1.0
C      1  0.4905000000000  0.5909000000000  0.5413560000000 1.0
C      1  0.4329190000000  0.4683980000000  0.5028120000000 1.0
C      1  0.4697220000000  0.4625070000000  0.5333270000000 1.0
C      1  0.5337920000000  0.4769760000000  0.5403990000000 1.0
C      1  0.4717330000000  0.5771160000000  0.4892980000000 1.0
C      1  0.4973140000000  0.4483570000000  0.5707720000000 1.0
C      1  0.5065610000000  0.4297930000000  0.4395330000000 1.0
C      1  0.4548660000000  0.4359660000000  0.4616550000000 1.0
C      1  0.4704570000000  0.5600660000000  0.4666770000000 1.0
C      1  0.4550130000000  0.5258750000000  0.5920820000000 1.0
C      1  0.5149730000000  0.4317270000000  0.4958640000000 1.0
C      1  0.4257080000000  0.5330120000000  0.4907650000000 1.0
C      1  0.5855770000000  0.5559750000000  0.4706870000000 1.0
C      1  0.3840080000000  0.4924830000000  0.4566140000000 1.0
C      1  0.5271950000000  0.4132350000000  0.5136600000000 1.0
C      1  0.4711640000000  0.4130320000000  0.5019860000000 1.0
C      1  0.5433860000000  0.4876270000000  0.4599020000000 1.0
C      1  0.4922510000000  0.4214270000000  0.4837980000000 1.0
C      1  0.5437440000000  0.4983040000000  0.5555310000000 1.0
C      1  0.5557910000000  0.5237020000000  0.5550890000000 1.0
C      1  0.4882470000000  0.5417360000000  0.5477970000000 1.0
C      1  0.4057510000000  0.4809710000000  0.5644620000000 1.0
C      1  0.4408310000000  0.4606040000000  0.4549380000000 1.0
C      1  0.4491460000000  0.5283860000000  0.4212160000000 1.0
C      1  0.4005930000000  0.5116580000000  0.5244490000000 1.0
C      1  0.5915190000000  0.4812530000000  0.4487400000000 1.0
C      1  0.5539620000000  0.4075080000000  0.5073190000000 1.0
C      1  0.4014020000000  0.4858400000000  0.5370490000000 1.0
C      1  0.4988320000000  0.5870090000000  0.4946010000000 1.0
C      1  0.5337640000000  0.4323400000000  0.4379890000000 1.0
C      1  0.5778450000000  0.4567210000000  0.4603660000000 1.0
C      1  0.5586020000000  0.4410650000000  0.4452380000000 1.0
C      1  0.4775350000000  0.5657600000000  0.4398250000000 1.0
C      1  0.4758300000000  0.5671850000000  0.5446740000000 1.0
C      1  0.5406880000000  0.5109690000000  0.4130480000000 1.0
C      1  0.6151570000000  0.4757010000000  0.4350760000000 1.0
C      1  0.5390650000000  0.5461370000000  0.5592440000000 1.0
C      1  0.4109500000000  0.4650190000000  0.5203030000000 1.0
C      1  0.4696660000000  0.5327800000000  0.4732930000000 1.0
C      1  0.5872510000000  0.5201920000000  0.5156300000000 1.0
C      1  0.5729750000000  0.5376300000000  0.4532760000000 1.0
C      1  0.5023430000000  0.4661410000000  0.5921810000000 1.0
C      1  0.4607990000000  0.5529000000000  0.4209410000000 1.0
C      1  0.4911740000000  0.5167330000000  0.4651280000000 1.0
C      1  0.4475700000000  0.5737630000000  0.5065980000000 1.0
C      1  0.5794700000000  0.5271140000000  0.5403350000000 1.0
C      1  0.4479030000000  0.4205620000000  0.4863350000000 1.0
C      1  0.5486570000000  0.5831850000000  0.5251860000000 1.0
C      1  0.5439470000000  0.4926150000000  0.4322900000000 1.0
C      1  0.4914720000000  0.4888740000000  0.6015790000000 1.0
C      1  0.4566800000000  0.4787070000000  0.5147480000000 1.0
C      1  0.4736410000000  0.5088210000000  0.6008910000000 1.0
C      1  0.5885770000000  0.4735050000000  0.5057230000000 1.0
C      1  0.4623150000000  0.5066620000000  0.5136910000000 1.0
C      1  0.5243310000000  0.4803950000000  0.5139370000000 1.0
C      1  0.5489160000000  0.5806330000000  0.4972730000000 1.0
C      1  0.4041190000000  0.4931750000000  0.4750710000000 1.0
C      1  0.5793600000000  0.4993480000000  0.4984960000000 1.0
C      1  0.5409640000000  0.5375520000000  0.4173140000000 1.0
C      1  0.5110520000000  0.5168770000000  0.4845830000000 1.0
C      1  0.5245660000000  0.5781640000000  0.4816700000000 1.0
C      1  0.4778490000000  0.5196860000000  0.5334810000000 1.0
C      1  0.5739000000000  0.5749840000000  0.4855830000000 1.0
C      1  0.5867420000000  0.4652150000000  0.5332990000000 1.0
C      1  0.5477170000000  0.5487840000000  0.4425800000000 1.0
C      1  0.4255000000000  0.4735740000000  0.4757180000000 1.0
C      1  0.4857220000000  0.5027390000000  0.4411830000000 1.0
C      1  0.5197480000000  0.4592490000000  0.4946790000000 1.0
C      1  0.5548050000000  0.5008290000000  0.4838660000000 1.0
C      1  0.5308810000000  0.5046550000000  0.4997660000000 1.0
C      1  0.4564930000000  0.5038820000000  0.4330800000000 1.0
C      1  0.4946740000000  0.4804320000000  0.4250100000000 1.0
C      1  0.4819570000000  0.4077220000000  0.5282140000000 1.0
C      1  0.4243810000000  0.4667460000000  0.5776780000000 1.0
C      1  0.5095410000000  0.4134210000000  0.5366890000000 1.0
C      1  0.4309500000000  0.5492930000000  0.5499160000000 1.0
C      1  0.5410700000000  0.4499850000000  0.5472450000000 1.0
C      1  0.5467830000000  0.5709760000000  0.5488060000000 1.0
C      1  0.4478790000000  0.4541180000000  0.5749910000000 1.0
C      1  0.5697590000000  0.4309110000000  0.5089680000000 1.0
C      1  0.4840800000000  0.4293220000000  0.4572490000000 1.0
C      1  0.4090270000000  0.5346310000000  0.5392850000000 1.0
C      1  0.5118020000000  0.5410260000000  0.5626190000000 1.0
C      1  0.5089390000000  0.6293390000000  0.5175660000000 1.0
C      1  0.5003560000000  0.6034820000000  0.5181060000000 1.0
END
