TITL C-599890-3321-1001 0.00223300486853655 125000 -930.651309505505 0 0 149 (C1) n - 1
REM
REM in /home/nfs/bkarasulu/CARBON/AIRSS/Generating-Clusters/TERSOFF/Only-C1/FIRE-HFTN
REM
REM
REM
REM
REM
REM ./C.cell (11c1c37f851c82e70ff6c80c92926a4b)
REM AIRSS Version 0.9.1 bugfix July 2018 build 013d7b7c2542+ Fri, 06 Jul 2018 19:26:36 +0100
REM compiler GCC version 9.2.1 20190827 (Red Hat 9.2.1-1)
REM options -cpp -mtune=generic -march=x86-64 -g -O0 -fpre-include=/usr/include/finclude/math-vector-fortran.h
REM seed -456987728 87929561 -319562163 764036068 -585072010 402632724 64593444 -1006266265 -337061149 -264574779 920738526 -1026261459 2028762934 -2069451126 -991176090 -834070012 -830928392 798922103 2110536322 106794642 -966450753 280468362 1607685446 -1221486741 1252823236 -1313807980 1942142203 1221338515 2001653147 619924849 -1038014080 -1932715534 391058043
REM
CELL 1.54180   50.00000   50.00000   50.00000   90.00000   90.00000   90.00000
LATT -1
SFAC C  
C      1  0.4520840000000  0.4664430000000  0.6055180000000 1.0
C      1  0.5763500000000  0.4881830000000  0.4974040000000 1.0
C      1  0.4273730000000  0.5306540000000  0.5415770000000 1.0
C      1  0.5932200000000  0.4928530000000  0.5621440000000 1.0
C      1  0.5862600000000  0.4735330000000  0.4134500000000 1.0
C      1  0.3908600000000  0.4935850000000  0.4907930000000 1.0
C      1  0.5186510000000  0.4223090000000  0.5200430000000 1.0
C      1  0.5609410000000  0.4051650000000  0.4222120000000 1.0
C      1  0.4884710000000  0.5762880000000  0.4066720000000 1.0
C      1  0.5186860000000  0.5427310000000  0.6306350000000 1.0
C      1  0.4499710000000  0.5111060000000  0.4904430000000 1.0
C      1  0.5255680000000  0.5064140000000  0.5807330000000 1.0
C      1  0.4306180000000  0.6032840000000  0.4411670000000 1.0
C      1  0.5338490000000  0.4857450000000  0.5615920000000 1.0
C      1  0.5013310000000  0.5107070000000  0.5372300000000 1.0
C      1  0.4187340000000  0.4792280000000  0.4462070000000 1.0
C      1  0.4596020000000  0.5537800000000  0.6065750000000 1.0
C      1  0.4756250000000  0.5178570000000  0.4117560000000 1.0
C      1  0.5952640000000  0.4680750000000  0.4884490000000 1.0
C      1  0.5137910000000  0.5275260000000  0.5180750000000 1.0
C      1  0.5734350000000  0.5095490000000  0.4779890000000 1.0
C      1  0.5660300000000  0.4497180000000  0.5737400000000 1.0
C      1  0.5170970000000  0.4495720000000  0.4251110000000 1.0
C      1  0.4878050000000  0.5503420000000  0.4766330000000 1.0
C      1  0.4973150000000  0.6002770000000  0.4711120000000 1.0
C      1  0.4389020000000  0.4868890000000  0.6191210000000 1.0
C      1  0.5312360000000  0.4372430000000  0.4792150000000 1.0
C      1  0.3947300000000  0.5874610000000  0.4714870000000 1.0
C      1  0.5676720000000  0.5912230000000  0.4561120000000 1.0
C      1  0.5107690000000  0.4789250000000  0.4193500000000 1.0
C      1  0.5297310000000  0.5821590000000  0.4300100000000 1.0
C      1  0.5538510000000  0.5473870000000  0.5965460000000 1.0
C      1  0.5017720000000  0.5178210000000  0.3951470000000 1.0
C      1  0.6280040000000  0.4838060000000  0.4359940000000 1.0
C      1  0.5345220000000  0.4653460000000  0.4780170000000 1.0
C      1  0.6033330000000  0.4717290000000  0.4367430000000 1.0
C      1  0.5378590000000  0.5390280000000  0.5295610000000 1.0
C      1  0.4730060000000  0.4311230000000  0.4315420000000 1.0
C      1  0.4772240000000  0.4367940000000  0.4031760000000 1.0
C      1  0.5027270000000  0.5303440000000  0.4923870000000 1.0
C      1  0.5489100000000  0.4453880000000  0.5502700000000 1.0
C      1  0.4442160000000  0.5343110000000  0.4765680000000 1.0
C      1  0.5819150000000  0.5153740000000  0.5517060000000 1.0
C      1  0.5832980000000  0.4130310000000  0.4787640000000 1.0
C      1  0.5816200000000  0.5680430000000  0.5550860000000 1.0
C      1  0.4808510000000  0.4148300000000  0.5584480000000 1.0
C      1  0.5071430000000  0.4212040000000  0.5669370000000 1.0
C      1  0.5589790000000  0.4910330000000  0.5207560000000 1.0
C      1  0.4942220000000  0.5442930000000  0.5728900000000 1.0
C      1  0.5085400000000  0.5005460000000  0.6059800000000 1.0
C      1  0.4594290000000  0.4899590000000  0.5404650000000 1.0
C      1  0.4557130000000  0.4213480000000  0.5483660000000 1.0
C      1  0.5650530000000  0.4752570000000  0.6147210000000 1.0
C      1  0.5641460000000  0.4282800000000  0.4364130000000 1.0
C      1  0.4535840000000  0.4368380000000  0.4754160000000 1.0
C      1  0.4972550000000  0.5959320000000  0.5207200000000 1.0
C      1  0.5447920000000  0.5303950000000  0.4150970000000 1.0
C      1  0.4073740000000  0.6032730000000  0.4541300000000 1.0
C      1  0.4866860000000  0.4869480000000  0.5318140000000 1.0
C      1  0.5378810000000  0.4723010000000  0.3842360000000 1.0
C      1  0.5063790000000  0.4375860000000  0.3977340000000 1.0
C      1  0.5272550000000  0.5649650000000  0.5401510000000 1.0
C      1  0.4599970000000  0.5793000000000  0.4998720000000 1.0
C      1  0.5820650000000  0.5351950000000  0.4859780000000 1.0
C      1  0.4252140000000  0.5042550000000  0.6329100000000 1.0
C      1  0.3990640000000  0.5386810000000  0.4699620000000 1.0
C      1  0.4963360000000  0.4681230000000  0.5111580000000 1.0
C      1  0.4854320000000  0.4307830000000  0.6095130000000 1.0
C      1  0.5246600000000  0.4522400000000  0.6021820000000 1.0
C      1  0.4238950000000  0.5293600000000  0.4562680000000 1.0
C      1  0.5395170000000  0.5563090000000  0.6193960000000 1.0
C      1  0.5504470000000  0.5191970000000  0.5930940000000 1.0
C      1  0.4830520000000  0.5971520000000  0.4955430000000 1.0
C      1  0.3822220000000  0.5188100000000  0.4811400000000 1.0
C      1  0.5954320000000  0.4574660000000  0.4609810000000 1.0
C      1  0.5589710000000  0.4677220000000  0.4054100000000 1.0
C      1  0.4353580000000  0.4385820000000  0.5605690000000 1.0
C      1  0.5007030000000  0.5653110000000  0.5553760000000 1.0
C      1  0.4496850000000  0.5036790000000  0.4130850000000 1.0
C      1  0.4488050000000  0.5143380000000  0.5512360000000 1.0
C      1  0.5211450000000  0.5402500000000  0.4021480000000 1.0
C      1  0.5475340000000  0.4528370000000  0.4307900000000 1.0
C      1  0.4977590000000  0.5074090000000  0.4526760000000 1.0
C      1  0.5026930000000  0.5050180000000  0.4796070000000 1.0
C      1  0.4598830000000  0.4560900000000  0.3917540000000 1.0
C      1  0.4827680000000  0.5260230000000  0.4381860000000 1.0
C      1  0.6145560000000  0.4593170000000  0.5060010000000 1.0
C      1  0.5649470000000  0.4087180000000  0.4980290000000 1.0
C      1  0.5598420000000  0.5187800000000  0.5331180000000 1.0
C      1  0.4549190000000  0.5731600000000  0.5284360000000 1.0
C      1  0.4102150000000  0.5641150000000  0.5114620000000 1.0
C      1  0.4996820000000  0.5264540000000  0.6168390000000 1.0
C      1  0.5125970000000  0.4804770000000  0.4904120000000 1.0
C      1  0.5262970000000  0.4277510000000  0.5468220000000 1.0
C      1  0.4641810000000  0.4244400000000  0.4992240000000 1.0
C      1  0.5885680000000  0.5647770000000  0.5292490000000 1.0
C      1  0.5835750000000  0.4314100000000  0.4573530000000 1.0
C      1  0.5587720000000  0.5840980000000  0.4309770000000 1.0
C      1  0.4293700000000  0.4537490000000  0.4378720000000 1.0
C      1  0.5238270000000  0.4474620000000  0.3770860000000 1.0
C      1  0.5884290000000  0.5533280000000  0.5048570000000 1.0
C      1  0.5430710000000  0.5947960000000  0.5018610000000 1.0
C      1  0.4807240000000  0.5805350000000  0.5407300000000 1.0
C      1  0.5527170000000  0.4551260000000  0.5990440000000 1.0
C      1  0.4845420000000  0.5520510000000  0.4478460000000 1.0
C      1  0.4919330000000  0.4345910000000  0.5045630000000 1.0
C      1  0.5604160000000  0.5002560000000  0.4547130000000 1.0
C      1  0.4533000000000  0.5903980000000  0.4364800000000 1.0
C      1  0.5250960000000  0.5879910000000  0.5221740000000 1.0
C      1  0.5155040000000  0.4906320000000  0.3929490000000 1.0
C      1  0.4982490000000  0.4357320000000  0.4454370000000 1.0
C      1  0.4534020000000  0.4647540000000  0.4791820000000 1.0
C      1  0.3995500000000  0.4101820000000  0.5040780000000 1.0
C      1  0.3821050000000  0.4005030000000  0.4873130000000 1.0
C      1  0.5098580000000  0.4283620000000  0.5941400000000 1.0
C      1  0.4391690000000  0.4526010000000  0.5844710000000 1.0
C      1  0.4297880000000  0.5057510000000  0.4368890000000 1.0
C      1  0.5049330000000  0.5200080000000  0.5637900000000 1.0
C      1  0.4492810000000  0.4347970000000  0.4467730000000 1.0
C      1  0.4148680000000  0.4698150000000  0.5282940000000 1.0
C      1  0.5049160000000  0.4319410000000  0.4720720000000 1.0
C      1  0.5691920000000  0.5624290000000  0.5783110000000 1.0
C      1  0.5152080000000  0.5676840000000  0.4096230000000 1.0
C      1  0.5431670000000  0.5123820000000  0.4363120000000 1.0
C      1  0.4474770000000  0.4165880000000  0.5207270000000 1.0
C      1  0.4743040000000  0.5730470000000  0.4311080000000 1.0
C      1  0.5399390000000  0.4206690000000  0.5006690000000 1.0
C      1  0.4148690000000  0.4437400000000  0.5394890000000 1.0
C      1  0.4305800000000  0.5573300000000  0.5308440000000 1.0
C      1  0.4830490000000  0.5422040000000  0.5989940000000 1.0
C      1  0.4474640000000  0.4846780000000  0.4963960000000 1.0
C      1  0.5460860000000  0.4725910000000  0.5392480000000 1.0
C      1  0.5041810000000  0.4727730000000  0.6103880000000 1.0
C      1  0.5504350000000  0.4726790000000  0.4557350000000 1.0
C      1  0.4037220000000  0.5158450000000  0.5335350000000 1.0
C      1  0.4017560000000  0.4782350000000  0.4694250000000 1.0
C      1  0.4415260000000  0.4780240000000  0.5227240000000 1.0
C      1  0.5211960000000  0.5931080000000  0.4572670000000 1.0
C      1  0.5183340000000  0.4981290000000  0.4376020000000 1.0
C      1  0.4607020000000  0.5558970000000  0.4844710000000 1.0
C      1  0.4779020000000  0.5859810000000  0.3835870000000 1.0
C      1  0.5654490000000  0.5017150000000  0.6097960000000 1.0
C      1  0.5887330000000  0.4668230000000  0.5685820000000 1.0
C      1  0.4782920000000  0.4587290000000  0.6127790000000 1.0
C      1  0.3998350000000  0.5634780000000  0.4849430000000 1.0
C      1  0.4187470000000  0.4221370000000  0.5199180000000 1.0
C      1  0.4488860000000  0.4802370000000  0.3966240000000 1.0
C      1  0.3979240000000  0.4913930000000  0.5191090000000 1.0
C      1  0.5457000000000  0.5951510000000  0.4740860000000 1.0
END
