TITL C-599895-9959-393 -0.000218938757604236 125000 -975.517759823822 0 0 158 (C1) n - 1
REM
REM in /home/nfs/bkarasulu/CARBON/AIRSS/Generating-Clusters/TERSOFF/Only-C1/FIRE-HFTN
REM
REM
REM
REM
REM
REM ./C.cell (11c1c37f851c82e70ff6c80c92926a4b)
REM AIRSS Version 0.9.1 bugfix July 2018 build 013d7b7c2542+ Fri, 06 Jul 2018 19:26:36 +0100
REM compiler GCC version 9.2.1 20190827 (Red Hat 9.2.1-1)
REM options -cpp -mtune=generic -march=x86-64 -g -O0 -fpre-include=/usr/include/finclude/math-vector-fortran.h
REM seed -32700639 -1733102648 1080914817 -1695361525 410652034 1474054362 1310578400 -2003663159 -472287967 -1409747362 -288546385 -725844733 -734572618 -874742364 -677389821 -1231324982 -451922086 -1749744278 2101795074 -832284867 -1524665805 1527493418 -417024542 -611188024 -544265747 328852519 2119829862 1478491125 1760778677 -1608184624 1049773546 2032731792 -2094222108
REM
CELL 1.54180   50.00000   50.00000   50.00000   90.00000   90.00000   90.00000
LATT -1
SFAC C  
C      1  0.5073560000000  0.4861720000000  0.5139940000000 1.0
C      1  0.5503420000000  0.4824900000000  0.6150890000000 1.0
C      1  0.5448160000000  0.5538720000000  0.4148540000000 1.0
C      1  0.6038470000000  0.4788400000000  0.5600090000000 1.0
C      1  0.4329160000000  0.4942540000000  0.4996430000000 1.0
C      1  0.5383930000000  0.4141540000000  0.5882250000000 1.0
C      1  0.4857570000000  0.3994390000000  0.5248970000000 1.0
C      1  0.3782890000000  0.4524950000000  0.4392610000000 1.0
C      1  0.4459040000000  0.4845670000000  0.5835700000000 1.0
C      1  0.4589890000000  0.4089170000000  0.5339170000000 1.0
C      1  0.6073800000000  0.5500150000000  0.5261820000000 1.0
C      1  0.5607570000000  0.4206570000000  0.5264170000000 1.0
C      1  0.5422850000000  0.4478360000000  0.4263120000000 1.0
C      1  0.5323500000000  0.5506200000000  0.4833730000000 1.0
C      1  0.4165530000000  0.4457730000000  0.5241260000000 1.0
C      1  0.5611800000000  0.4668900000000  0.6658620000000 1.0
C      1  0.5331640000000  0.4598430000000  0.4021670000000 1.0
C      1  0.5152910000000  0.5532310000000  0.4593770000000 1.0
C      1  0.5214020000000  0.6170440000000  0.4964020000000 1.0
C      1  0.4389930000000  0.5541810000000  0.5627090000000 1.0
C      1  0.4656100000000  0.6119570000000  0.5152590000000 1.0
C      1  0.5641030000000  0.5311610000000  0.5826410000000 1.0
C      1  0.5732800000000  0.5199670000000  0.4314180000000 1.0
C      1  0.4899260000000  0.4784060000000  0.3861010000000 1.0
C      1  0.4730170000000  0.4023530000000  0.4732910000000 1.0
C      1  0.4896810000000  0.5860590000000  0.4881320000000 1.0
C      1  0.4591180000000  0.5815990000000  0.5256620000000 1.0
C      1  0.5548580000000  0.4371360000000  0.5954040000000 1.0
C      1  0.4167030000000  0.5430030000000  0.5483430000000 1.0
C      1  0.4214920000000  0.5958430000000  0.4974010000000 1.0
C      1  0.5262460000000  0.5472690000000  0.5297230000000 1.0
C      1  0.5235920000000  0.4970890000000  0.5349940000000 1.0
C      1  0.5368120000000  0.3946240000000  0.6078270000000 1.0
C      1  0.5047400000000  0.5540940000000  0.6094550000000 1.0
C      1  0.4463920000000  0.4122550000000  0.4726160000000 1.0
C      1  0.5118850000000  0.5261780000000  0.4504740000000 1.0
C      1  0.5956470000000  0.4785330000000  0.5899630000000 1.0
C      1  0.4828920000000  0.5022080000000  0.5144020000000 1.0
C      1  0.4789960000000  0.5053400000000  0.3899390000000 1.0
C      1  0.4977700000000  0.5740870000000  0.4163910000000 1.0
C      1  0.5731710000000  0.5661710000000  0.4577450000000 1.0
C      1  0.4655150000000  0.4585350000000  0.4827550000000 1.0
C      1  0.4511530000000  0.4824440000000  0.4817930000000 1.0
C      1  0.5068820000000  0.3743480000000  0.4591450000000 1.0
C      1  0.5389590000000  0.5255080000000  0.5929920000000 1.0
C      1  0.5923970000000  0.5096100000000  0.4519400000000 1.0
C      1  0.4074270000000  0.4575710000000  0.5731290000000 1.0
C      1  0.5576330000000  0.4680950000000  0.5189910000000 1.0
C      1  0.4332870000000  0.4561370000000  0.3865740000000 1.0
C      1  0.4427860000000  0.6158810000000  0.4947010000000 1.0
C      1  0.5335190000000  0.4178420000000  0.5178680000000 1.0
C      1  0.5660420000000  0.5496620000000  0.4344950000000 1.0
C      1  0.4742590000000  0.5668840000000  0.5029740000000 1.0
C      1  0.5474870000000  0.4840530000000  0.3969220000000 1.0
C      1  0.5593490000000  0.5120630000000  0.5004560000000 1.0
C      1  0.4375050000000  0.4976460000000  0.5269530000000 1.0
C      1  0.4822920000000  0.5002530000000  0.6121000000000 1.0
C      1  0.5586100000000  0.5905220000000  0.4660330000000 1.0
C      1  0.5322160000000  0.5040960000000  0.6111590000000 1.0
C      1  0.5048780000000  0.4562440000000  0.3979240000000 1.0
C      1  0.4248270000000  0.4272920000000  0.4790520000000 1.0
C      1  0.4962490000000  0.4451870000000  0.5517420000000 1.0
C      1  0.6057540000000  0.5293480000000  0.4699580000000 1.0
C      1  0.4573480000000  0.5443640000000  0.4115290000000 1.0
C      1  0.4134200000000  0.5555040000000  0.5230510000000 1.0
C      1  0.4425760000000  0.5489590000000  0.4362130000000 1.0
C      1  0.4938730000000  0.6102020000000  0.5037270000000 1.0
C      1  0.4659830000000  0.5452780000000  0.4873680000000 1.0
C      1  0.3856160000000  0.5865980000000  0.4637280000000 1.0
C      1  0.4721250000000  0.4996770000000  0.4409830000000 1.0
C      1  0.4852220000000  0.3893180000000  0.4977540000000 1.0
C      1  0.4531120000000  0.5518400000000  0.4623430000000 1.0
C      1  0.4010270000000  0.5508480000000  0.4970950000000 1.0
C      1  0.4112860000000  0.4481960000000  0.4941830000000 1.0
C      1  0.4660640000000  0.5023550000000  0.4684830000000 1.0
C      1  0.4769760000000  0.4535280000000  0.4363640000000 1.0
C      1  0.5008340000000  0.5296470000000  0.5646970000000 1.0
C      1  0.5560380000000  0.4745920000000  0.6415050000000 1.0
C      1  0.4595070000000  0.5699480000000  0.5530810000000 1.0
C      1  0.5137530000000  0.4060790000000  0.5362370000000 1.0
C      1  0.4766520000000  0.4515480000000  0.5697300000000 1.0
C      1  0.5709610000000  0.4362200000000  0.4695260000000 1.0
C      1  0.4627170000000  0.4757100000000  0.4270790000000 1.0
C      1  0.4293050000000  0.5794150000000  0.5197090000000 1.0
C      1  0.4008600000000  0.4718750000000  0.4776110000000 1.0
C      1  0.4998680000000  0.5248460000000  0.4042140000000 1.0
C      1  0.4507850000000  0.6235380000000  0.4685660000000 1.0
C      1  0.5847080000000  0.5324800000000  0.5659960000000 1.0
C      1  0.4650900000000  0.4981940000000  0.5405600000000 1.0
C      1  0.5104060000000  0.4676640000000  0.4692260000000 1.0
C      1  0.4928500000000  0.4385130000000  0.4185240000000 1.0
C      1  0.4110610000000  0.4864280000000  0.4291750000000 1.0
C      1  0.4504580000000  0.5164670000000  0.4006360000000 1.0
C      1  0.3992090000000  0.5313990000000  0.4536850000000 1.0
C      1  0.5526320000000  0.5089260000000  0.4098950000000 1.0
C      1  0.4854020000000  0.4564910000000  0.4625670000000 1.0
C      1  0.4607040000000  0.4731700000000  0.5601030000000 1.0
C      1  0.5310720000000  0.5092350000000  0.4617160000000 1.0
C      1  0.5382270000000  0.5612940000000  0.5089520000000 1.0
C      1  0.6309970000000  0.5636310000000  0.5299410000000 1.0
C      1  0.5585360000000  0.4702700000000  0.5637530000000 1.0
C      1  0.4141920000000  0.4932320000000  0.5425120000000 1.0
C      1  0.4083070000000  0.4650240000000  0.5454790000000 1.0
C      1  0.5062670000000  0.5095650000000  0.6241380000000 1.0
C      1  0.5153740000000  0.5412560000000  0.5863160000000 1.0
C      1  0.5959010000000  0.4833740000000  0.4930900000000 1.0
C      1  0.5314700000000  0.5297180000000  0.4044480000000 1.0
C      1  0.5648620000000  0.4672720000000  0.5931440000000 1.0
C      1  0.5165580000000  0.4628240000000  0.4969060000000 1.0
C      1  0.4752780000000  0.5173520000000  0.5648430000000 1.0
C      1  0.5283070000000  0.4346950000000  0.4951640000000 1.0
C      1  0.6239210000000  0.5183510000000  0.4901450000000 1.0
C      1  0.3970340000000  0.4703510000000  0.4486650000000 1.0
C      1  0.5519170000000  0.4681980000000  0.4437640000000 1.0
C      1  0.4644780000000  0.5055550000000  0.5905180000000 1.0
C      1  0.4924190000000  0.3981720000000  0.4503370000000 1.0
C      1  0.4944600000000  0.5150290000000  0.4325120000000 1.0
C      1  0.4715640000000  0.4467720000000  0.5067800000000 1.0
C      1  0.5917390000000  0.5536190000000  0.4770240000000 1.0
C      1  0.5034570000000  0.5374650000000  0.6313430000000 1.0
C      1  0.4845910000000  0.5514120000000  0.4057320000000 1.0
C      1  0.4695690000000  0.6116680000000  0.4531240000000 1.0
C      1  0.4669780000000  0.4370870000000  0.5921140000000 1.0
C      1  0.5893700000000  0.5592720000000  0.5055790000000 1.0
C      1  0.5309800000000  0.4822350000000  0.4565100000000 1.0
C      1  0.5702440000000  0.4870280000000  0.5037070000000 1.0
C      1  0.5645730000000  0.5703120000000  0.5135060000000 1.0
C      1  0.4277520000000  0.4638610000000  0.5922980000000 1.0
C      1  0.4894330000000  0.4446650000000  0.5260670000000 1.0
C      1  0.5319480000000  0.4259610000000  0.4425260000000 1.0
C      1  0.5177130000000  0.5240960000000  0.5425830000000 1.0
C      1  0.3995860000000  0.5262860000000  0.4815980000000 1.0
C      1  0.6102450000000  0.5003550000000  0.5383150000000 1.0
C      1  0.5033480000000  0.3698670000000  0.4862060000000 1.0
C      1  0.4876430000000  0.5912940000000  0.4603750000000 1.0
C      1  0.5024800000000  0.5738570000000  0.4445550000000 1.0
C      1  0.4188970000000  0.5328790000000  0.4339980000000 1.0
C      1  0.5735940000000  0.4456300000000  0.5282240000000 1.0
C      1  0.5232280000000  0.4082050000000  0.5640210000000 1.0
C      1  0.4426060000000  0.4421430000000  0.6034280000000 1.0
C      1  0.4749040000000  0.5186720000000  0.4907900000000 1.0
C      1  0.5931710000000  0.4826950000000  0.4642130000000 1.0
C      1  0.5763070000000  0.4614860000000  0.4564580000000 1.0
C      1  0.5437570000000  0.4796090000000  0.5419690000000 1.0
C      1  0.5059590000000  0.4173680000000  0.4339570000000 1.0
C      1  0.4069700000000  0.4987880000000  0.4883810000000 1.0
C      1  0.4454780000000  0.4687680000000  0.4059290000000 1.0
C      1  0.6013960000000  0.5278560000000  0.5439460000000 1.0
C      1  0.5430080000000  0.4273000000000  0.4701020000000 1.0
C      1  0.5848570000000  0.4580370000000  0.5512630000000 1.0
C      1  0.6158120000000  0.4971970000000  0.5087430000000 1.0
C      1  0.4019290000000  0.5784240000000  0.4839370000000 1.0
C      1  0.5420760000000  0.6073720000000  0.4805040000000 1.0
C      1  0.4360010000000  0.4243420000000  0.5319290000000 1.0
C      1  0.5048540000000  0.5952910000000  0.4007040000000 1.0
C      1  0.5433730000000  0.5239200000000  0.4818970000000 1.0
C      1  0.4246880000000  0.5092330000000  0.4175020000000 1.0
C      1  0.4050000000000  0.5176120000000  0.5534530000000 1.0
END
