TITL C-599894-471-57 0.167354651683571 125000 -599.240496954776 0 0 98 (C1) n - 1
REM
REM in /home/nfs/bkarasulu/CARBON/AIRSS/Generating-Clusters/TERSOFF/Only-C1/FIRE-HFTN
REM
REM
REM
REM
REM
REM ./C.cell (11c1c37f851c82e70ff6c80c92926a4b)
REM AIRSS Version 0.9.1 bugfix July 2018 build 013d7b7c2542+ Fri, 06 Jul 2018 19:26:36 +0100
REM compiler GCC version 9.2.1 20190827 (Red Hat 9.2.1-1)
REM options -cpp -mtune=generic -march=x86-64 -g -O0 -fpre-include=/usr/include/finclude/math-vector-fortran.h
REM seed 1944668354 -1749858102 -1778798220 1267982634 -1276365856 316828424 103169903 2106938824 -1921324374 -730124881 -1445019498 -994447979 -386501612 1228819743 -435255299 98519563 -197824773 -286125231 -450559358 -2019094343 -1912365307 -2062699758 1160043351 -1516736656 -489080638 402363096 -1989258627 701875124 989185542 1584152289 1999742948 -2114702328 1438366222
REM
CELL 1.54180   50.00000   50.00000   50.00000   90.00000   90.00000   90.00000
LATT -1
SFAC C  
C      1  0.5385860000000  0.5241880000000  0.5686300000000 1.0
C      1  0.5728780000000  0.4631690000000  0.5161750000000 1.0
C      1  0.4314120000000  0.5497990000000  0.5361410000000 1.0
C      1  0.5667160000000  0.5645130000000  0.5264610000000 1.0
C      1  0.4800530000000  0.5026760000000  0.5812790000000 1.0
C      1  0.5616120000000  0.4250740000000  0.4660840000000 1.0
C      1  0.4915240000000  0.5383350000000  0.4855520000000 1.0
C      1  0.5329820000000  0.5344440000000  0.5157340000000 1.0
C      1  0.4083840000000  0.4567810000000  0.5340440000000 1.0
C      1  0.5177220000000  0.4134300000000  0.5242390000000 1.0
C      1  0.4801160000000  0.5298950000000  0.5098090000000 1.0
C      1  0.4315870000000  0.4441160000000  0.5262150000000 1.0
C      1  0.3924260000000  0.4713980000000  0.4745300000000 1.0
C      1  0.4934820000000  0.4229630000000  0.4836850000000 1.0
C      1  0.5829230000000  0.4762440000000  0.4916870000000 1.0
C      1  0.5442530000000  0.6022370000000  0.5144700000000 1.0
C      1  0.5419080000000  0.4252420000000  0.5344490000000 1.0
C      1  0.5233080000000  0.4445240000000  0.4203850000000 1.0
C      1  0.4997610000000  0.5634250000000  0.4224630000000 1.0
C      1  0.4037480000000  0.5374450000000  0.5355250000000 1.0
C      1  0.4884330000000  0.4267460000000  0.4561970000000 1.0
C      1  0.5302290000000  0.5926010000000  0.5394560000000 1.0
C      1  0.4267120000000  0.4641730000000  0.4253840000000 1.0
C      1  0.4467610000000  0.5253970000000  0.5393200000000 1.0
C      1  0.5054590000000  0.5784490000000  0.5324310000000 1.0
C      1  0.5077280000000  0.4648620000000  0.5312440000000 1.0
C      1  0.5052940000000  0.4647800000000  0.5972290000000 1.0
C      1  0.4481950000000  0.5691990000000  0.5210100000000 1.0
C      1  0.4895370000000  0.4150640000000  0.5291790000000 1.0
C      1  0.5299180000000  0.5263030000000  0.4557330000000 1.0
C      1  0.5555190000000  0.4554530000000  0.5804510000000 1.0
C      1  0.5807040000000  0.5179380000000  0.5147670000000 1.0
C      1  0.4748430000000  0.4260060000000  0.5065030000000 1.0
C      1  0.5460530000000  0.4280220000000  0.4890540000000 1.0
C      1  0.5640250000000  0.4781560000000  0.5657750000000 1.0
C      1  0.4025830000000  0.5276680000000  0.4630030000000 1.0
C      1  0.4739430000000  0.5253650000000  0.5370070000000 1.0
C      1  0.4337090000000  0.5048080000000  0.5254910000000 1.0
C      1  0.4760640000000  0.5497380000000  0.4290570000000 1.0
C      1  0.4423340000000  0.5558300000000  0.4662590000000 1.0
C      1  0.4714790000000  0.5212180000000  0.4312360000000 1.0
C      1  0.4434440000000  0.5675950000000  0.4923160000000 1.0
C      1  0.5928640000000  0.4607910000000  0.4704360000000 1.0
C      1  0.4825010000000  0.4811050000000  0.5990920000000 1.0
C      1  0.5198810000000  0.4175610000000  0.4943630000000 1.0
C      1  0.5064310000000  0.4863850000000  0.5138350000000 1.0
C      1  0.5833340000000  0.5098730000000  0.4401030000000 1.0
C      1  0.5047060000000  0.5632620000000  0.4878140000000 1.0
C      1  0.5125400000000  0.5796290000000  0.4399820000000 1.0
C      1  0.4925640000000  0.5019100000000  0.4373080000000 1.0
C      1  0.3993860000000  0.4581400000000  0.4282050000000 1.0
C      1  0.4631620000000  0.4760830000000  0.6177270000000 1.0
C      1  0.6146820000000  0.5099020000000  0.5493730000000 1.0
C      1  0.4453520000000  0.4441110000000  0.4308140000000 1.0
C      1  0.3514450000000  0.5322900000000  0.4741240000000 1.0
C      1  0.5613750000000  0.5374610000000  0.5196840000000 1.0
C      1  0.5293890000000  0.4555620000000  0.5907910000000 1.0
C      1  0.4047040000000  0.5075790000000  0.5318300000000 1.0
C      1  0.5507920000000  0.5730630000000  0.5502030000000 1.0
C      1  0.5762980000000  0.5195490000000  0.4656570000000 1.0
C      1  0.5921640000000  0.5027470000000  0.5358520000000 1.0
C      1  0.5831190000000  0.4390340000000  0.4580870000000 1.0
C      1  0.5574000000000  0.4393040000000  0.5141150000000 1.0
C      1  0.4338780000000  0.4911640000000  0.4273530000000 1.0
C      1  0.4553250000000  0.4461670000000  0.5097760000000 1.0
C      1  0.5896180000000  0.4146220000000  0.5892520000000 1.0
C      1  0.5677500000000  0.5008260000000  0.4201150000000 1.0
C      1  0.5094890000000  0.4300720000000  0.4379070000000 1.0
C      1  0.5545090000000  0.5387750000000  0.4653410000000 1.0
C      1  0.4941770000000  0.4958880000000  0.4665360000000 1.0
C      1  0.4444160000000  0.5143010000000  0.4390160000000 1.0
C      1  0.4086020000000  0.4806050000000  0.4950220000000 1.0
C      1  0.5589830000000  0.5650770000000  0.4780400000000 1.0
C      1  0.5729600000000  0.4343310000000  0.5856210000000 1.0
C      1  0.5105120000000  0.5805960000000  0.4668310000000 1.0
C      1  0.5775790000000  0.4782960000000  0.5406030000000 1.0
C      1  0.4367670000000  0.4891220000000  0.5011010000000 1.0
C      1  0.5166970000000  0.5149510000000  0.5528730000000 1.0
C      1  0.5206790000000  0.5099530000000  0.5243340000000 1.0
C      1  0.5449940000000  0.5520450000000  0.5686930000000 1.0
C      1  0.4583260000000  0.5655410000000  0.4450970000000 1.0
C      1  0.4627830000000  0.4308930000000  0.4458520000000 1.0
C      1  0.5611730000000  0.5812680000000  0.5024710000000 1.0
C      1  0.3853050000000  0.4618570000000  0.4507210000000 1.0
C      1  0.5814770000000  0.5048850000000  0.4895020000000 1.0
C      1  0.5215820000000  0.5101850000000  0.4317350000000 1.0
C      1  0.3766710000000  0.5304880000000  0.4678060000000 1.0
C      1  0.5333050000000  0.4675790000000  0.4116470000000 1.0
C      1  0.5083560000000  0.5198540000000  0.4737910000000 1.0
C      1  0.4599930000000  0.4725850000000  0.4981800000000 1.0
C      1  0.5405070000000  0.4938630000000  0.4180230000000 1.0
C      1  0.4297810000000  0.5311470000000  0.4578930000000 1.0
C      1  0.4753950000000  0.5789920000000  0.5312800000000 1.0
C      1  0.3965000000000  0.4809710000000  0.5228220000000 1.0
C      1  0.5564340000000  0.5036930000000  0.5759440000000 1.0
C      1  0.4894450000000  0.5164090000000  0.5589020000000 1.0
C      1  0.5168860000000  0.5595760000000  0.5134950000000 1.0
C      1  0.4867070000000  0.4828130000000  0.4913690000000 1.0
END
