TITL C-599896-8500-1294 -0.136306321794007 125000 -18.9723642478454 0 0 4 (D(inf)h) n - 1
REM
REM in /home/nfs/bkarasulu/CARBON/AIRSS/Generating-Clusters/TERSOFF/Only-C1/FIRE-HFTN
REM
REM
REM
REM
REM
REM ./C.cell (11c1c37f851c82e70ff6c80c92926a4b)
REM AIRSS Version 0.9.1 bugfix July 2018 build 013d7b7c2542+ Fri, 06 Jul 2018 19:26:36 +0100
REM compiler GCC version 9.2.1 20190827 (Red Hat 9.2.1-1)
REM options -cpp -mtune=generic -march=x86-64 -g -O0 -fpre-include=/usr/include/finclude/math-vector-fortran.h
REM seed -1188947599 -18581987 -1143649866 1715674652 1799436311 -1524110928 1534439826 -1128241736 -463834156 -971670310 1464910307 -1190615822 -1465535487 -570999580 666839835 -1021331196 360938149 2104469640 505895603 1579791563 1713782268 834834686 -1347327959 -487355499 -740536967 -364421541 194775661 -39077980 -1096706576 -904222752 -1384540243 -990733706 172673654
REM
CELL 1.54180   50.00000   50.00000   50.00000   90.00000   90.00000   90.00000
LATT -1
SFAC C  
C      1  0.4707480000000  0.4840720000000  0.5209090000000 1.0
C      1  0.5292520000000  0.5159280000000  0.4790910000000 1.0
C      1  0.5098610000000  0.5053690000000  0.4929520000000 1.0
C      1  0.4901390000000  0.4946310000000  0.5070480000000 1.0
END
