TITL C-599890-3321-128 3.17173731315471e-05 125000 -269.534024027792 0 0 45 (C1) n - 1
REM
REM in /home/nfs/bkarasulu/CARBON/AIRSS/Generating-Clusters/TERSOFF/Only-C1/FIRE-HFTN
REM
REM
REM
REM
REM
REM ./C.cell (11c1c37f851c82e70ff6c80c92926a4b)
REM AIRSS Version 0.9.1 bugfix July 2018 build 013d7b7c2542+ Fri, 06 Jul 2018 19:26:36 +0100
REM compiler GCC version 9.2.1 20190827 (Red Hat 9.2.1-1)
REM options -cpp -mtune=generic -march=x86-64 -g -O0 -fpre-include=/usr/include/finclude/math-vector-fortran.h
REM seed 1119720563 -1184731970 2071950107 53563643 -455570748 932804195 -1995382086 2059514634 -1190943814 1049896235 -575317481 1361353122 -1507177321 886347410 2037273262 -813931182 1948698416 -1072099225 1634385325 -1581847888 1559433515 -1054103183 -728882617 -642627475 1345048208 417008104 352654370 -1065443676 -748424955 -1728375901 -1614135362 617559752 -667279644
REM
CELL 1.54180   50.00000   50.00000   50.00000   90.00000   90.00000   90.00000
LATT -1
SFAC C  
C      1  0.5497400000000  0.4874890000000  0.5650950000000 1.0
C      1  0.4824050000000  0.4597260000000  0.4449980000000 1.0
C      1  0.5270890000000  0.4738640000000  0.4305560000000 1.0
C      1  0.4499620000000  0.5652730000000  0.5182240000000 1.0
C      1  0.5249160000000  0.5289140000000  0.5588720000000 1.0
C      1  0.4001860000000  0.5115770000000  0.5196190000000 1.0
C      1  0.5397970000000  0.4889540000000  0.4994230000000 1.0
C      1  0.4985640000000  0.5638960000000  0.5376960000000 1.0
C      1  0.5366620000000  0.4225810000000  0.4750670000000 1.0
C      1  0.4904970000000  0.5075830000000  0.5028730000000 1.0
C      1  0.5517930000000  0.4215330000000  0.4968760000000 1.0
C      1  0.4470240000000  0.4522790000000  0.5030730000000 1.0
C      1  0.4327620000000  0.5396780000000  0.4800510000000 1.0
C      1  0.4100900000000  0.5366150000000  0.5217490000000 1.0
C      1  0.5230490000000  0.5506500000000  0.5412190000000 1.0
C      1  0.5099010000000  0.4550520000000  0.4423840000000 1.0
C      1  0.5603600000000  0.5565300000000  0.5031300000000 1.0
C      1  0.4738800000000  0.5691600000000  0.5292620000000 1.0
C      1  0.4925260000000  0.5375250000000  0.4581250000000 1.0
C      1  0.4298800000000  0.5498860000000  0.5063720000000 1.0
C      1  0.5639570000000  0.4671270000000  0.5556070000000 1.0
C      1  0.4835040000000  0.4698410000000  0.5663550000000 1.0
C      1  0.4678620000000  0.4551710000000  0.5506180000000 1.0
C      1  0.4870930000000  0.5228000000000  0.4795800000000 1.0
C      1  0.5023310000000  0.4877350000000  0.5720800000000 1.0
C      1  0.5682500000000  0.4463290000000  0.5396260000000 1.0
C      1  0.5664740000000  0.5491920000000  0.4782280000000 1.0
C      1  0.5258590000000  0.5020710000000  0.5667960000000 1.0
C      1  0.5216190000000  0.4335930000000  0.4561440000000 1.0
C      1  0.4426870000000  0.4676010000000  0.4799040000000 1.0
C      1  0.5578020000000  0.5067850000000  0.4556460000000 1.0
C      1  0.4309970000000  0.5147590000000  0.4697660000000 1.0
C      1  0.5144260000000  0.4933830000000  0.5060950000000 1.0
C      1  0.4249760000000  0.4897460000000  0.4816930000000 1.0
C      1  0.5464830000000  0.4917970000000  0.4347070000000 1.0
C      1  0.5109190000000  0.5479780000000  0.4418610000000 1.0
C      1  0.5448430000000  0.5570300000000  0.5247420000000 1.0
C      1  0.5582870000000  0.4940870000000  0.4808290000000 1.0
C      1  0.4714300000000  0.5075700000000  0.5223800000000 1.0
C      1  0.5376410000000  0.5477450000000  0.4396840000000 1.0
C      1  0.4593540000000  0.4635870000000  0.4577280000000 1.0
C      1  0.5573950000000  0.5353410000000  0.4555130000000 1.0
C      1  0.4057650000000  0.4913910000000  0.5025600000000 1.0
C      1  0.5634000000000  0.4300260000000  0.5192130000000 1.0
C      1  0.4555610000000  0.4485480000000  0.5279840000000 1.0
END
