TITL C-599893-4344-540 0.000546759006249571 125000 -843.230303270165 0 0 136 (C1) n - 1
REM
REM in /home/nfs/bkarasulu/CARBON/AIRSS/Generating-Clusters/TERSOFF/Only-C1/FIRE-HFTN
REM
REM
REM
REM
REM
REM ./C.cell (11c1c37f851c82e70ff6c80c92926a4b)
REM AIRSS Version 0.9.1 bugfix July 2018 build 013d7b7c2542+ Fri, 06 Jul 2018 19:26:36 +0100
REM compiler GCC version 9.2.1 20190827 (Red Hat 9.2.1-1)
REM options -cpp -mtune=generic -march=x86-64 -g -O0 -fpre-include=/usr/include/finclude/math-vector-fortran.h
REM seed 1708417502 -1012052402 -1338020573 1986461819 -181366759 1445001713 -1795349333 -1291194716 2011415485 1098147207 -2077204346 1740489325 520139111 806154670 495562035 1107518097 -559779525 1767852547 -148064802 1843618228 -1646309910 1010683840 1985707145 -949072404 -299542418 -617074607 346368058 -1386083280 -1012338878 -2120268945 -1030678186 -1742417438 -118881136
REM
CELL 1.54180   50.00000   50.00000   50.00000   90.00000   90.00000   90.00000
LATT -1
SFAC C  
C      1  0.4662670000000  0.5603170000000  0.4114720000000 1.0
C      1  0.5280600000000  0.3811510000000  0.5593610000000 1.0
C      1  0.4596720000000  0.5021020000000  0.5641960000000 1.0
C      1  0.4425370000000  0.4175170000000  0.4324820000000 1.0
C      1  0.5351530000000  0.4513950000000  0.4554760000000 1.0
C      1  0.4805830000000  0.5043370000000  0.4706890000000 1.0
C      1  0.4699140000000  0.4590650000000  0.4848170000000 1.0
C      1  0.4145240000000  0.5386070000000  0.5355020000000 1.0
C      1  0.4998870000000  0.5995240000000  0.5432380000000 1.0
C      1  0.5517620000000  0.4097040000000  0.4821480000000 1.0
C      1  0.4978460000000  0.4824290000000  0.6052270000000 1.0
C      1  0.4697330000000  0.5753660000000  0.4589410000000 1.0
C      1  0.4956970000000  0.5087010000000  0.4453530000000 1.0
C      1  0.4978020000000  0.4912310000000  0.4233170000000 1.0
C      1  0.5998870000000  0.4983240000000  0.5108740000000 1.0
C      1  0.4884620000000  0.4923370000000  0.6295820000000 1.0
C      1  0.5458880000000  0.5859420000000  0.5215440000000 1.0
C      1  0.4504770000000  0.4533390000000  0.5557730000000 1.0
C      1  0.4330010000000  0.4159750000000  0.4815790000000 1.0
C      1  0.4228020000000  0.5695570000000  0.4707310000000 1.0
C      1  0.5142150000000  0.5475210000000  0.4677190000000 1.0
C      1  0.5458390000000  0.4235740000000  0.5439950000000 1.0
C      1  0.5210140000000  0.4951200000000  0.5919370000000 1.0
C      1  0.4849850000000  0.4671900000000  0.5845630000000 1.0
C      1  0.4973810000000  0.4362980000000  0.4247700000000 1.0
C      1  0.4748570000000  0.4504150000000  0.4125010000000 1.0
C      1  0.6009190000000  0.5536540000000  0.4303160000000 1.0
C      1  0.4766620000000  0.5356720000000  0.6116830000000 1.0
C      1  0.4889470000000  0.5009640000000  0.5233570000000 1.0
C      1  0.4521750000000  0.4056060000000  0.5470150000000 1.0
C      1  0.3950120000000  0.4392130000000  0.5323770000000 1.0
C      1  0.5244480000000  0.4058710000000  0.5484540000000 1.0
C      1  0.4051220000000  0.5588080000000  0.5179010000000 1.0
C      1  0.4486150000000  0.5812330000000  0.4784650000000 1.0
C      1  0.4600030000000  0.5575290000000  0.5481400000000 1.0
C      1  0.5781320000000  0.4781980000000  0.5727570000000 1.0
C      1  0.5431360000000  0.4723140000000  0.4703040000000 1.0
C      1  0.5050160000000  0.4597800000000  0.5641380000000 1.0
C      1  0.4562280000000  0.5783910000000  0.5298380000000 1.0
C      1  0.5558240000000  0.4513400000000  0.5375160000000 1.0
C      1  0.4057480000000  0.4481570000000  0.5079190000000 1.0
C      1  0.5207460000000  0.4514760000000  0.4317380000000 1.0
C      1  0.4305180000000  0.4364750000000  0.5009300000000 1.0
C      1  0.5382830000000  0.5677580000000  0.5415340000000 1.0
C      1  0.4633100000000  0.5434300000000  0.4987400000000 1.0
C      1  0.5541430000000  0.4679730000000  0.5625010000000 1.0
C      1  0.4609630000000  0.5264270000000  0.4768930000000 1.0
C      1  0.4666900000000  0.4520480000000  0.5321480000000 1.0
C      1  0.5000780000000  0.3950420000000  0.4851170000000 1.0
C      1  0.4051830000000  0.5128980000000  0.5284410000000 1.0
C      1  0.5523730000000  0.5811420000000  0.4948460000000 1.0
C      1  0.5901300000000  0.4472250000000  0.4793120000000 1.0
C      1  0.5766320000000  0.5975080000000  0.4199930000000 1.0
C      1  0.5350600000000  0.5971580000000  0.4789110000000 1.0
C      1  0.4073190000000  0.5459120000000  0.4284140000000 1.0
C      1  0.4914850000000  0.5556050000000  0.4033250000000 1.0
C      1  0.5451570000000  0.4847910000000  0.4047360000000 1.0
C      1  0.4567460000000  0.5708180000000  0.5032960000000 1.0
C      1  0.5808940000000  0.5850740000000  0.5597420000000 1.0
C      1  0.5357500000000  0.5364820000000  0.4848590000000 1.0
C      1  0.4610070000000  0.4810520000000  0.4690280000000 1.0
C      1  0.5232070000000  0.5234480000000  0.5930550000000 1.0
C      1  0.5946780000000  0.5241920000000  0.4743090000000 1.0
C      1  0.4361470000000  0.5419470000000  0.5543770000000 1.0
C      1  0.5627670000000  0.5649360000000  0.5561900000000 1.0
C      1  0.4513490000000  0.5338810000000  0.5992780000000 1.0
C      1  0.4258250000000  0.4578500000000  0.4226410000000 1.0
C      1  0.4601220000000  0.4743820000000  0.5725430000000 1.0
C      1  0.4760960000000  0.4013380000000  0.5311420000000 1.0
C      1  0.4803020000000  0.5135810000000  0.5466370000000 1.0
C      1  0.5665880000000  0.5393540000000  0.5672380000000 1.0
C      1  0.5019860000000  0.5897620000000  0.5693170000000 1.0
C      1  0.4964320000000  0.5715090000000  0.4709790000000 1.0
C      1  0.5277170000000  0.4001260000000  0.4901310000000 1.0
C      1  0.4128170000000  0.4739700000000  0.4673600000000 1.0
C      1  0.4805690000000  0.5178880000000  0.6334100000000 1.0
C      1  0.4045240000000  0.5664790000000  0.4920390000000 1.0
C      1  0.5005540000000  0.5997660000000  0.5153410000000 1.0
C      1  0.5377250000000  0.5118860000000  0.5010510000000 1.0
C      1  0.5101380000000  0.5705780000000  0.5899310000000 1.0
C      1  0.5376830000000  0.4906090000000  0.3779910000000 1.0
C      1  0.5989600000000  0.4963250000000  0.4818130000000 1.0
C      1  0.4988670000000  0.4155950000000  0.5410230000000 1.0
C      1  0.4948100000000  0.4104670000000  0.4352930000000 1.0
C      1  0.5116610000000  0.4532930000000  0.5138160000000 1.0
C      1  0.5427870000000  0.4840590000000  0.4955190000000 1.0
C      1  0.4935860000000  0.5011940000000  0.4971220000000 1.0
C      1  0.5077450000000  0.5926590000000  0.4875240000000 1.0
C      1  0.5125080000000  0.5534300000000  0.5430010000000 1.0
C      1  0.5885650000000  0.5231690000000  0.5225460000000 1.0
C      1  0.5227260000000  0.4772790000000  0.4203330000000 1.0
C      1  0.4880030000000  0.4836060000000  0.3772730000000 1.0
C      1  0.4260510000000  0.4243470000000  0.4553800000000 1.0
C      1  0.5860600000000  0.4765860000000  0.4384160000000 1.0
C      1  0.5378810000000  0.4642030000000  0.5160610000000 1.0
C      1  0.4010690000000  0.4725330000000  0.4938250000000 1.0
C      1  0.4086030000000  0.4290680000000  0.5535010000000 1.0
C      1  0.5836880000000  0.5225220000000  0.5515130000000 1.0
C      1  0.4853950000000  0.5424280000000  0.5474220000000 1.0
C      1  0.4428240000000  0.5228790000000  0.5746850000000 1.0
C      1  0.6013950000000  0.5359020000000  0.4500470000000 1.0
C      1  0.5363490000000  0.5164670000000  0.5283270000000 1.0
C      1  0.5839710000000  0.4489290000000  0.5282860000000 1.0
C      1  0.5703990000000  0.4827420000000  0.4173440000000 1.0
C      1  0.4341620000000  0.4926730000000  0.4635990000000 1.0
C      1  0.4485200000000  0.4408580000000  0.4160990000000 1.0
C      1  0.5001520000000  0.5431610000000  0.5970270000000 1.0
C      1  0.5431880000000  0.6106120000000  0.4560700000000 1.0
C      1  0.5933690000000  0.4729030000000  0.4657200000000 1.0
C      1  0.4513780000000  0.3957440000000  0.4890030000000 1.0
C      1  0.5126770000000  0.4893070000000  0.3673130000000 1.0
C      1  0.3974310000000  0.4952740000000  0.5099270000000 1.0
C      1  0.5824880000000  0.5389110000000  0.4970300000000 1.0
C      1  0.5923530000000  0.5760600000000  0.4188480000000 1.0
C      1  0.4961400000000  0.4457240000000  0.5384000000000 1.0
C      1  0.4807190000000  0.4775450000000  0.4041590000000 1.0
C      1  0.4971760000000  0.4529320000000  0.4892780000000 1.0
C      1  0.5587870000000  0.5537360000000  0.4899260000000 1.0
C      1  0.4363840000000  0.5220850000000  0.4620230000000 1.0
C      1  0.4365910000000  0.4279210000000  0.5574110000000 1.0
C      1  0.5099020000000  0.5332770000000  0.4434000000000 1.0
C      1  0.4941420000000  0.3954590000000  0.4573280000000 1.0
C      1  0.5285930000000  0.4754790000000  0.5714430000000 1.0
C      1  0.5582420000000  0.6105830000000  0.4341290000000 1.0
C      1  0.5478650000000  0.5389740000000  0.5893850000000 1.0
C      1  0.5385330000000  0.5667440000000  0.5963200000000 1.0
C      1  0.3886060000000  0.5423620000000  0.4106480000000 1.0
C      1  0.5988810000000  0.4467390000000  0.5062100000000 1.0
C      1  0.4147650000000  0.4517020000000  0.4492930000000 1.0
C      1  0.4553830000000  0.5614840000000  0.4371660000000 1.0
C      1  0.5720730000000  0.4256600000000  0.4738390000000 1.0
C      1  0.4766050000000  0.3946640000000  0.5027170000000 1.0
C      1  0.4286430000000  0.5485650000000  0.4483940000000 1.0
C      1  0.5116460000000  0.5455750000000  0.4181340000000 1.0
C      1  0.4543060000000  0.4504310000000  0.5067420000000 1.0
C      1  0.5924720000000  0.4996330000000  0.5655200000000 1.0
END
