TITL C-599893-4344-197 3.46474527985726 125000 -434.32393161558 0 0 72 (C1) n - 1
REM
REM in /home/nfs/bkarasulu/CARBON/AIRSS/Generating-Clusters/TERSOFF/Only-C1/FIRE-HFTN
REM
REM
REM
REM
REM
REM ./C.cell (11c1c37f851c82e70ff6c80c92926a4b)
REM AIRSS Version 0.9.1 bugfix July 2018 build 013d7b7c2542+ Fri, 06 Jul 2018 19:26:36 +0100
REM compiler GCC version 9.2.1 20190827 (Red Hat 9.2.1-1)
REM options -cpp -mtune=generic -march=x86-64 -g -O0 -fpre-include=/usr/include/finclude/math-vector-fortran.h
REM seed 1796859619 -983072807 1265778793 -1930274382 -1050075269 -1606076722 -1909090681 2127862261 1818798288 418526975 115758617 -1793763071 1354427317 339295659 1009224131 -1806695798 1912952629 -1707324262 -650717185 -953914124 -1995352204 866250761 2102113045 -2138072010 1228035658 1801174838 -1631850069 -335955148 1795100205 -1065528877 484032244 -1320955700 -1618215687
REM
CELL 1.54180   50.00000   50.00000   50.00000   90.00000   90.00000   90.00000
LATT -1
SFAC C  
C      1  0.5224600000000  0.6242260000000  0.5723750000000 1.0
C      1  0.4668130000000  0.4380840000000  0.4737640000000 1.0
C      1  0.3787490000000  0.5893180000000  0.4666790000000 1.0
C      1  0.5656390000000  0.4737580000000  0.5446340000000 1.0
C      1  0.3342740000000  0.5698680000000  0.4612160000000 1.0
C      1  0.4135490000000  0.5366400000000  0.5104070000000 1.0
C      1  0.5651160000000  0.4998670000000  0.5499670000000 1.0
C      1  0.4942720000000  0.4550260000000  0.5741230000000 1.0
C      1  0.5216740000000  0.5529010000000  0.4713690000000 1.0
C      1  0.4896310000000  0.4680940000000  0.5165370000000 1.0
C      1  0.5324410000000  0.6444460000000  0.5854570000000 1.0
C      1  0.3100870000000  0.5708000000000  0.4515550000000 1.0
C      1  0.4754160000000  0.4254900000000  0.5423680000000 1.0
C      1  0.6200520000000  0.4577530000000  0.4157410000000 1.0
C      1  0.5290360000000  0.4321050000000  0.4190110000000 1.0
C      1  0.4380300000000  0.4808480000000  0.5520320000000 1.0
C      1  0.5010400000000  0.5129420000000  0.5299010000000 1.0
C      1  0.4968230000000  0.4859720000000  0.5375200000000 1.0
C      1  0.5462140000000  0.5416940000000  0.4622660000000 1.0
C      1  0.5685390000000  0.4332730000000  0.4609560000000 1.0
C      1  0.5017600000000  0.5819590000000  0.5450130000000 1.0
C      1  0.4826050000000  0.5653570000000  0.5576770000000 1.0
C      1  0.4852620000000  0.4800370000000  0.5631320000000 1.0
C      1  0.4399380000000  0.5746280000000  0.4982470000000 1.0
C      1  0.5557910000000  0.4491930000000  0.5043890000000 1.0
C      1  0.6168360000000  0.4310850000000  0.4160860000000 1.0
C      1  0.5846050000000  0.4566190000000  0.4664940000000 1.0
C      1  0.4382020000000  0.5500290000000  0.5116890000000 1.0
C      1  0.4545540000000  0.4604000000000  0.4864300000000 1.0
C      1  0.5526020000000  0.4515620000000  0.5327300000000 1.0
C      1  0.4752160000000  0.5074340000000  0.4898800000000 1.0
C      1  0.4769920000000  0.4329990000000  0.5684810000000 1.0
C      1  0.4268300000000  0.5922350000000  0.4831010000000 1.0
C      1  0.5491880000000  0.5210010000000  0.5464390000000 1.0
C      1  0.4804440000000  0.5216670000000  0.4662200000000 1.0
C      1  0.5240990000000  0.4915810000000  0.4841880000000 1.0
C      1  0.5551180000000  0.5151500000000  0.4578910000000 1.0
C      1  0.5105580000000  0.5771190000000  0.5185100000000 1.0
C      1  0.4649530000000  0.5438980000000  0.5532740000000 1.0
C      1  0.4857540000000  0.4405690000000  0.5224250000000 1.0
C      1  0.6082400000000  0.4780430000000  0.4287650000000 1.0
C      1  0.5449690000000  0.4348020000000  0.4799150000000 1.0
C      1  0.3601040000000  0.5688710000000  0.4715340000000 1.0
C      1  0.5219030000000  0.4496680000000  0.4397920000000 1.0
C      1  0.4323440000000  0.4605230000000  0.5041640000000 1.0
C      1  0.5802690000000  0.5037220000000  0.4650120000000 1.0
C      1  0.5776800000000  0.4657040000000  0.4939160000000 1.0
C      1  0.3688760000000  0.5473670000000  0.4873400000000 1.0
C      1  0.5217190000000  0.4482630000000  0.5706040000000 1.0
C      1  0.5381040000000  0.4354240000000  0.5511290000000 1.0
C      1  0.4596930000000  0.5214250000000  0.5698600000000 1.0
C      1  0.3885140000000  0.5360400000000  0.5013300000000 1.0
C      1  0.5339820000000  0.4957760000000  0.4589460000000 1.0
C      1  0.4979540000000  0.5414140000000  0.4608140000000 1.0
C      1  0.5504340000000  0.4157210000000  0.4198280000000 1.0
C      1  0.4601270000000  0.5391890000000  0.5254370000000 1.0
C      1  0.5910490000000  0.4802770000000  0.4505800000000 1.0
C      1  0.4286000000000  0.4694440000000  0.5294840000000 1.0
C      1  0.5983790000000  0.4146820000000  0.4266450000000 1.0
C      1  0.5813640000000  0.4942180000000  0.4928300000000 1.0
C      1  0.4596250000000  0.4930890000000  0.5661560000000 1.0
C      1  0.4036440000000  0.5977820000000  0.4711420000000 1.0
C      1  0.5402470000000  0.4081640000000  0.5505380000000 1.0
C      1  0.5244900000000  0.5257700000000  0.5375650000000 1.0
C      1  0.5193700000000  0.4371810000000  0.4660260000000 1.0
C      1  0.5123210000000  0.6036770000000  0.5590750000000 1.0
C      1  0.5725370000000  0.4178340000000  0.4372890000000 1.0
C      1  0.4742570000000  0.4794030000000  0.4946240000000 1.0
C      1  0.5264420000000  0.4773970000000  0.4391980000000 1.0
C      1  0.4796340000000  0.5226570000000  0.5136320000000 1.0
C      1  0.5192750000000  0.5688670000000  0.4945510000000 1.0
C      1  0.4926930000000  0.4299780000000  0.4721120000000 1.0
END
