TITL C-599895-9959-787 0.040976955531821 125000 -1005.92935022593 0 0 162 (C1) n - 1
REM
REM in /home/nfs/bkarasulu/CARBON/AIRSS/Generating-Clusters/TERSOFF/Only-C1/FIRE-HFTN
REM
REM
REM
REM
REM
REM ./C.cell (11c1c37f851c82e70ff6c80c92926a4b)
REM AIRSS Version 0.9.1 bugfix July 2018 build 013d7b7c2542+ Fri, 06 Jul 2018 19:26:36 +0100
REM compiler GCC version 9.2.1 20190827 (Red Hat 9.2.1-1)
REM options -cpp -mtune=generic -march=x86-64 -g -O0 -fpre-include=/usr/include/finclude/math-vector-fortran.h
REM seed 389282914 -1403543944 -2057189948 537432644 -1871139939 -240154891 410547336 -1214317286 -387525214 -2045974561 832849834 -1577272446 1292696420 167744981 1066395525 -1523678302 -114100392 114750267 248102481 59182663 -610012393 -1339466511 805529909 -1963723149 -115228044 711679201 1335909394 -1742490884 1162239358 1929635415 -1682716544 -591432412 689019552
REM
CELL 1.54180   50.00000   50.00000   50.00000   90.00000   90.00000   90.00000
LATT -1
SFAC C  
C      1  0.5263250000000  0.4568900000000  0.6047790000000 1.0
C      1  0.5097410000000  0.5139970000000  0.5931490000000 1.0
C      1  0.5120250000000  0.4936130000000  0.5726520000000 1.0
C      1  0.4253200000000  0.4434280000000  0.5658040000000 1.0
C      1  0.5777320000000  0.5069240000000  0.5423660000000 1.0
C      1  0.5813810000000  0.4808200000000  0.4750510000000 1.0
C      1  0.4255270000000  0.4935590000000  0.4886230000000 1.0
C      1  0.4983370000000  0.4518440000000  0.6062180000000 1.0
C      1  0.5472080000000  0.4361600000000  0.5159470000000 1.0
C      1  0.4200110000000  0.5587320000000  0.5386580000000 1.0
C      1  0.4324290000000  0.4418590000000  0.5370070000000 1.0
C      1  0.4087420000000  0.5179320000000  0.5665740000000 1.0
C      1  0.5805870000000  0.4530180000000  0.4668000000000 1.0
C      1  0.4621180000000  0.5579550000000  0.5010270000000 1.0
C      1  0.4515690000000  0.4614490000000  0.5284330000000 1.0
C      1  0.4998700000000  0.4845040000000  0.4817370000000 1.0
C      1  0.4476520000000  0.6085280000000  0.4292640000000 1.0
C      1  0.5508860000000  0.5631740000000  0.5115080000000 1.0
C      1  0.5487460000000  0.4798860000000  0.3854120000000 1.0
C      1  0.5667590000000  0.5027360000000  0.4628550000000 1.0
C      1  0.4280770000000  0.6047100000000  0.5198710000000 1.0
C      1  0.5837690000000  0.4841880000000  0.5595330000000 1.0
C      1  0.4896440000000  0.4141390000000  0.4545180000000 1.0
C      1  0.4440470000000  0.5469080000000  0.5810250000000 1.0
C      1  0.6144270000000  0.4773660000000  0.4268890000000 1.0
C      1  0.4340180000000  0.5846800000000  0.5391270000000 1.0
C      1  0.4819970000000  0.5177100000000  0.5997250000000 1.0
C      1  0.4892080000000  0.3915980000000  0.5252040000000 1.0
C      1  0.4530950000000  0.4890520000000  0.5391720000000 1.0
C      1  0.4857630000000  0.5690590000000  0.4920970000000 1.0
C      1  0.5754100000000  0.4770960000000  0.3947050000000 1.0
C      1  0.4890510000000  0.6005110000000  0.4528610000000 1.0
C      1  0.3820300000000  0.4632070000000  0.4737590000000 1.0
C      1  0.5373170000000  0.5247450000000  0.5940560000000 1.0
C      1  0.5860170000000  0.5720090000000  0.5754830000000 1.0
C      1  0.4562140000000  0.5106750000000  0.5196200000000 1.0
C      1  0.4900400000000  0.4374920000000  0.4707650000000 1.0
C      1  0.4232240000000  0.5418840000000  0.5623260000000 1.0
C      1  0.5284900000000  0.5984150000000  0.5376720000000 1.0
C      1  0.4417340000000  0.4220300000000  0.5779270000000 1.0
C      1  0.5070810000000  0.4485400000000  0.3878640000000 1.0
C      1  0.4055160000000  0.4920830000000  0.5728170000000 1.0
C      1  0.5868080000000  0.4847760000000  0.5020650000000 1.0
C      1  0.4660160000000  0.4877130000000  0.5654520000000 1.0
C      1  0.5564110000000  0.4436960000000  0.4550980000000 1.0
C      1  0.5925720000000  0.5473320000000  0.5175100000000 1.0
C      1  0.6371900000000  0.4747320000000  0.4750380000000 1.0
C      1  0.4675050000000  0.4928390000000  0.5947160000000 1.0
C      1  0.4672010000000  0.5336810000000  0.4181530000000 1.0
C      1  0.5768270000000  0.5990930000000  0.5376630000000 1.0
C      1  0.4742230000000  0.4697550000000  0.6110120000000 1.0
C      1  0.4661340000000  0.5159220000000  0.4702060000000 1.0
C      1  0.5473900000000  0.4575410000000  0.5850710000000 1.0
C      1  0.4055230000000  0.5148810000000  0.4466030000000 1.0
C      1  0.4065260000000  0.5475420000000  0.5145320000000 1.0
C      1  0.5267290000000  0.5110240000000  0.4362150000000 1.0
C      1  0.5346850000000  0.5042690000000  0.3897110000000 1.0
C      1  0.6204950000000  0.4724970000000  0.3797900000000 1.0
C      1  0.4925280000000  0.4774630000000  0.5613490000000 1.0
C      1  0.4480000000000  0.6058040000000  0.5801520000000 1.0
C      1  0.6321290000000  0.4724850000000  0.5016270000000 1.0
C      1  0.4977760000000  0.4156220000000  0.5701360000000 1.0
C      1  0.5226760000000  0.6235030000000  0.5262590000000 1.0
C      1  0.5246520000000  0.5540940000000  0.5105560000000 1.0
C      1  0.5162030000000  0.4561680000000  0.4318180000000 1.0
C      1  0.4872350000000  0.4259910000000  0.5951630000000 1.0
C      1  0.5185500000000  0.5389000000000  0.5329880000000 1.0
C      1  0.5128610000000  0.5244740000000  0.4567130000000 1.0
C      1  0.5690030000000  0.5422530000000  0.5013620000000 1.0
C      1  0.4547780000000  0.3901840000000  0.4906420000000 1.0
C      1  0.4378700000000  0.4496840000000  0.4247080000000 1.0
C      1  0.4401830000000  0.5658910000000  0.4847420000000 1.0
C      1  0.5437060000000  0.5455670000000  0.5745680000000 1.0
C      1  0.6031590000000  0.5698880000000  0.5017170000000 1.0
C      1  0.5717870000000  0.5493650000000  0.5661910000000 1.0
C      1  0.6031000000000  0.4757190000000  0.4008670000000 1.0
C      1  0.5881310000000  0.5813930000000  0.4805890000000 1.0
C      1  0.5012310000000  0.3946290000000  0.4732150000000 1.0
C      1  0.4379770000000  0.4133990000000  0.5329640000000 1.0
C      1  0.4332730000000  0.6111140000000  0.4941200000000 1.0
C      1  0.4597750000000  0.5265140000000  0.4446870000000 1.0
C      1  0.5074780000000  0.4347290000000  0.4137270000000 1.0
C      1  0.4070560000000  0.5352890000000  0.4646020000000 1.0
C      1  0.4825880000000  0.4652890000000  0.4659470000000 1.0
C      1  0.4585760000000  0.4304360000000  0.4184740000000 1.0
C      1  0.5622820000000  0.5804010000000  0.4656300000000 1.0
C      1  0.4808630000000  0.4001820000000  0.5521360000000 1.0
C      1  0.4533550000000  0.4502640000000  0.6159970000000 1.0
C      1  0.5659020000000  0.5310430000000  0.4741210000000 1.0
C      1  0.4277510000000  0.4196410000000  0.4611720000000 1.0
C      1  0.5464490000000  0.4925990000000  0.4447770000000 1.0
C      1  0.4431940000000  0.5928170000000  0.4748630000000 1.0
C      1  0.4781970000000  0.4511430000000  0.5249090000000 1.0
C      1  0.4856140000000  0.4678870000000  0.3886600000000 1.0
C      1  0.5112300000000  0.5813210000000  0.5533230000000 1.0
C      1  0.4086460000000  0.4880910000000  0.4373790000000 1.0
C      1  0.4528580000000  0.4627970000000  0.4678190000000 1.0
C      1  0.6294640000000  0.4768010000000  0.4492510000000 1.0
C      1  0.5391290000000  0.4985560000000  0.5102050000000 1.0
C      1  0.3532780000000  0.4175870000000  0.4709880000000 1.0
C      1  0.5408680000000  0.4640140000000  0.4423700000000 1.0
C      1  0.4553220000000  0.5914090000000  0.5577800000000 1.0
C      1  0.5228160000000  0.5495390000000  0.4642130000000 1.0
C      1  0.4377590000000  0.3949960000000  0.5124990000000 1.0
C      1  0.5161650000000  0.5998690000000  0.4525930000000 1.0
C      1  0.5322280000000  0.4577600000000  0.3781950000000 1.0
C      1  0.6056200000000  0.4192030000000  0.4983120000000 1.0
C      1  0.4940710000000  0.5108140000000  0.4728450000000 1.0
C      1  0.4481270000000  0.5458380000000  0.4017220000000 1.0
C      1  0.4831120000000  0.5858460000000  0.5545480000000 1.0
C      1  0.5897410000000  0.5944000000000  0.5608580000000 1.0
C      1  0.5596910000000  0.4354360000000  0.5412530000000 1.0
C      1  0.5512820000000  0.5533710000000  0.4611330000000 1.0
C      1  0.5987150000000  0.4642670000000  0.5434860000000 1.0
C      1  0.5425150000000  0.6022180000000  0.4641450000000 1.0
C      1  0.4929960000000  0.5281330000000  0.4073860000000 1.0
C      1  0.5260690000000  0.5122250000000  0.5308510000000 1.0
C      1  0.3861410000000  0.5279840000000  0.5169320000000 1.0
C      1  0.4787510000000  0.4786800000000  0.4130650000000 1.0
C      1  0.5447970000000  0.6246050000000  0.4813430000000 1.0
C      1  0.5671510000000  0.4977330000000  0.5169150000000 1.0
C      1  0.3757250000000  0.5051310000000  0.5076670000000 1.0
C      1  0.4978250000000  0.4551440000000  0.5449510000000 1.0
C      1  0.5534700000000  0.5870910000000  0.5274410000000 1.0
C      1  0.4238570000000  0.6277570000000  0.3865230000000 1.0
C      1  0.4626030000000  0.5381630000000  0.5215260000000 1.0
C      1  0.5464180000000  0.4175080000000  0.4614490000000 1.0
C      1  0.4248890000000  0.4749630000000  0.4166220000000 1.0
C      1  0.5845360000000  0.5348880000000  0.5440270000000 1.0
C      1  0.4356560000000  0.6183340000000  0.4077740000000 1.0
C      1  0.5185330000000  0.5160280000000  0.4095540000000 1.0
C      1  0.5314380000000  0.4993170000000  0.5544910000000 1.0
C      1  0.5219370000000  0.5545080000000  0.5571380000000 1.0
C      1  0.4112920000000  0.4659700000000  0.5746530000000 1.0
C      1  0.4423390000000  0.3977460000000  0.4666520000000 1.0
C      1  0.6085820000000  0.4741430000000  0.5172940000000 1.0
C      1  0.4162540000000  0.5508990000000  0.4870430000000 1.0
C      1  0.4659940000000  0.5404260000000  0.5951660000000 1.0
C      1  0.5236320000000  0.4786720000000  0.4964890000000 1.0
C      1  0.4917550000000  0.4710780000000  0.4373160000000 1.0
C      1  0.4495850000000  0.5057700000000  0.4918820000000 1.0
C      1  0.5658870000000  0.4803580000000  0.5827180000000 1.0
C      1  0.5327550000000  0.6338960000000  0.5035110000000 1.0
C      1  0.5297150000000  0.3983360000000  0.4713710000000 1.0
C      1  0.4527370000000  0.4051930000000  0.5565990000000 1.0
C      1  0.5881300000000  0.4375220000000  0.5416320000000 1.0
C      1  0.5109310000000  0.5598560000000  0.4875400000000 1.0
C      1  0.4834780000000  0.3893800000000  0.4964530000000 1.0
C      1  0.3665710000000  0.4399600000000  0.4723730000000 1.0
C      1  0.4044100000000  0.4660290000000  0.4565730000000 1.0
C      1  0.5577340000000  0.5042420000000  0.5972080000000 1.0
C      1  0.5141060000000  0.4349380000000  0.5569180000000 1.0
C      1  0.4850120000000  0.4204590000000  0.4262170000000 1.0
C      1  0.5319910000000  0.4523050000000  0.5011560000000 1.0
C      1  0.3749060000000  0.4833980000000  0.4921410000000 1.0
C      1  0.4289680000000  0.5541340000000  0.3861250000000 1.0
C      1  0.5418950000000  0.4403290000000  0.5625930000000 1.0
C      1  0.4603600000000  0.6002790000000  0.4528950000000 1.0
C      1  0.6023600000000  0.4195200000000  0.5250400000000 1.0
C      1  0.4295140000000  0.4483780000000  0.4549270000000 1.0
C      1  0.4581420000000  0.4267440000000  0.6002300000000 1.0
C      1  0.5982810000000  0.4334920000000  0.4768480000000 1.0
END
