TITL C-599895-9959-617 24.9779531832672 125000 -1010.72286073359 0 0 166 (C1) n - 1
REM
REM in /home/nfs/bkarasulu/CARBON/AIRSS/Generating-Clusters/TERSOFF/Only-C1/FIRE-HFTN
REM
REM
REM
REM
REM
REM ./C.cell (11c1c37f851c82e70ff6c80c92926a4b)
REM AIRSS Version 0.9.1 bugfix July 2018 build 013d7b7c2542+ Fri, 06 Jul 2018 19:26:36 +0100
REM compiler GCC version 9.2.1 20190827 (Red Hat 9.2.1-1)
REM options -cpp -mtune=generic -march=x86-64 -g -O0 -fpre-include=/usr/include/finclude/math-vector-fortran.h
REM seed 935906861 2045346000 618116838 -1265081147 -134742364 -1356707176 -662555483 1722533703 1762583888 -1798703072 -764574659 -289534635 448497411 1550226021 247946069 543583743 1441368160 556888290 -218055519 1700171649 1155169182 1955136206 1740308318 -161113030 -2036031407 1228541786 200046687 -2059410702 -610701168 1397535533 -946770044 393225356 939822532
REM
CELL 1.54180   50.00000   50.00000   50.00000   90.00000   90.00000   90.00000
LATT -1
SFAC C  
C      1  0.4320050000000  0.5390240000000  0.5938350000000 1.0
C      1  0.5192430000000  0.4734900000000  0.4902650000000 1.0
C      1  0.6356530000000  0.4582060000000  0.5519270000000 1.0
C      1  0.4275940000000  0.5033450000000  0.4011830000000 1.0
C      1  0.5373700000000  0.5150870000000  0.5032850000000 1.0
C      1  0.5275620000000  0.5884720000000  0.4502090000000 1.0
C      1  0.5786220000000  0.5645410000000  0.5323450000000 1.0
C      1  0.5587280000000  0.4875360000000  0.5953060000000 1.0
C      1  0.4467060000000  0.5140040000000  0.5946920000000 1.0
C      1  0.4950040000000  0.4569360000000  0.5585080000000 1.0
C      1  0.5522640000000  0.4993410000000  0.4381170000000 1.0
C      1  0.4724240000000  0.4942800000000  0.5616100000000 1.0
C      1  0.4692580000000  0.4665240000000  0.5603960000000 1.0
C      1  0.5446420000000  0.5365350000000  0.5222330000000 1.0
C      1  0.4363730000000  0.5598600000000  0.4441310000000 1.0
C      1  0.5021520000000  0.5751940000000  0.4519870000000 1.0
C      1  0.4458090000000  0.5943550000000  0.5788970000000 1.0
C      1  0.5086900000000  0.4659820000000  0.6014030000000 1.0
C      1  0.5998040000000  0.4364260000000  0.4624840000000 1.0
C      1  0.4279220000000  0.4168700000000  0.5260560000000 1.0
C      1  0.3841620000000  0.4869360000000  0.5357870000000 1.0
C      1  0.4654310000000  0.4512570000000  0.6201630000000 1.0
C      1  0.4322780000000  0.4698060000000  0.4564550000000 1.0
C      1  0.4575940000000  0.5117940000000  0.4460900000000 1.0
C      1  0.4741620000000  0.5675440000000  0.4039480000000 1.0
C      1  0.5204430000000  0.4681670000000  0.4178750000000 1.0
C      1  0.4418720000000  0.5303980000000  0.5133380000000 1.0
C      1  0.4917720000000  0.5819510000000  0.5687720000000 1.0
C      1  0.5957340000000  0.5616140000000  0.4841390000000 1.0
C      1  0.5235620000000  0.5106350000000  0.6214770000000 1.0
C      1  0.4764500000000  0.5127690000000  0.6350950000000 1.0
C      1  0.4365690000000  0.4983160000000  0.4655170000000 1.0
C      1  0.5522620000000  0.5794130000000  0.4939240000000 1.0
C      1  0.5729260000000  0.5477940000000  0.4222540000000 1.0
C      1  0.5353340000000  0.4939790000000  0.4159770000000 1.0
C      1  0.5577470000000  0.4473820000000  0.4785560000000 1.0
C      1  0.6097840000000  0.4881360000000  0.4786580000000 1.0
C      1  0.4658380000000  0.4237330000000  0.4536160000000 1.0
C      1  0.5049530000000  0.5257870000000  0.4531320000000 1.0
C      1  0.4229780000000  0.5749200000000  0.5129440000000 1.0
C      1  0.5410850000000  0.5839960000000  0.4251250000000 1.0
C      1  0.5986630000000  0.5368980000000  0.4700290000000 1.0
C      1  0.5136810000000  0.4691100000000  0.5387920000000 1.0
C      1  0.4097740000000  0.4927400000000  0.4206500000000 1.0
C      1  0.4772360000000  0.4359630000000  0.5073120000000 1.0
C      1  0.5173090000000  0.4184320000000  0.5661760000000 1.0
C      1  0.5361220000000  0.4371430000000  0.4631530000000 1.0
C      1  0.5249040000000  0.5790680000000  0.5338690000000 1.0
C      1  0.5990220000000  0.4246790000000  0.4366610000000 1.0
C      1  0.4794740000000  0.4739860000000  0.4628730000000 1.0
C      1  0.4244520000000  0.4379370000000  0.5072730000000 1.0
C      1  0.5931070000000  0.5371840000000  0.5396930000000 1.0
C      1  0.5074220000000  0.4694220000000  0.4652530000000 1.0
C      1  0.5663780000000  0.4007510000000  0.4840990000000 1.0
C      1  0.4760980000000  0.4851180000000  0.5084270000000 1.0
C      1  0.4724700000000  0.5968430000000  0.5824270000000 1.0
C      1  0.4347650000000  0.5767620000000  0.5598400000000 1.0
C      1  0.5431110000000  0.3884420000000  0.4693850000000 1.0
C      1  0.4709620000000  0.5834370000000  0.3818530000000 1.0
C      1  0.5003140000000  0.3980740000000  0.5490430000000 1.0
C      1  0.5020310000000  0.5500290000000  0.4380410000000 1.0
C      1  0.5824590000000  0.4611030000000  0.5434020000000 1.0
C      1  0.5784480000000  0.5725490000000  0.5036380000000 1.0
C      1  0.4130440000000  0.4433280000000  0.4193560000000 1.0
C      1  0.5027610000000  0.5260920000000  0.3952240000000 1.0
C      1  0.4718100000000  0.6259620000000  0.4837460000000 1.0
C      1  0.5182000000000  0.4247390000000  0.4823860000000 1.0
C      1  0.4773580000000  0.3802360000000  0.5108950000000 1.0
C      1  0.4655700000000  0.4993510000000  0.6123660000000 1.0
C      1  0.4921920000000  0.6428450000000  0.4876970000000 1.0
C      1  0.3903170000000  0.4818130000000  0.5076900000000 1.0
C      1  0.6050520000000  0.5148180000000  0.4882010000000 1.0
C      1  0.4731670000000  0.3929030000000  0.5371240000000 1.0
C      1  0.5098780000000  0.5112050000000  0.5158240000000 1.0
C      1  0.5405710000000  0.4255510000000  0.5449140000000 1.0
C      1  0.5574000000000  0.5340100000000  0.5675380000000 1.0
C      1  0.5321450000000  0.5630190000000  0.5094350000000 1.0
C      1  0.5485680000000  0.5403440000000  0.4051980000000 1.0
C      1  0.5649340000000  0.4405890000000  0.5519400000000 1.0
C      1  0.4673760000000  0.6004830000000  0.4770670000000 1.0
C      1  0.4959090000000  0.5833410000000  0.5400880000000 1.0
C      1  0.4491060000000  0.4780020000000  0.5085300000000 1.0
C      1  0.5302960000000  0.5171800000000  0.4002940000000 1.0
C      1  0.4710360000000  0.5461990000000  0.5127640000000 1.0
C      1  0.5800950000000  0.4123720000000  0.4217860000000 1.0
C      1  0.5481380000000  0.5599150000000  0.5741650000000 1.0
C      1  0.4566750000000  0.4518260000000  0.4672420000000 1.0
C      1  0.5296320000000  0.5648870000000  0.4052740000000 1.0
C      1  0.4780780000000  0.5142610000000  0.3876870000000 1.0
C      1  0.5659830000000  0.3943360000000  0.5118910000000 1.0
C      1  0.3906370000000  0.5065300000000  0.4362730000000 1.0
C      1  0.3941110000000  0.5319590000000  0.5026310000000 1.0
C      1  0.4516990000000  0.5088960000000  0.3902900000000 1.0
C      1  0.5231370000000  0.4986660000000  0.5557730000000 1.0
C      1  0.5293650000000  0.4197760000000  0.4109530000000 1.0
C      1  0.4948210000000  0.5350950000000  0.5578490000000 1.0
C      1  0.4176420000000  0.4585390000000  0.5646690000000 1.0
C      1  0.5037320000000  0.4824890000000  0.5149320000000 1.0
C      1  0.4974110000000  0.5077250000000  0.5654320000000 1.0
C      1  0.5275290000000  0.5269650000000  0.4755090000000 1.0
C      1  0.5901140000000  0.5363260000000  0.4423600000000 1.0
C      1  0.4293970000000  0.5496710000000  0.5665610000000 1.0
C      1  0.5125290000000  0.3966190000000  0.4736590000000 1.0
C      1  0.4798600000000  0.5765740000000  0.4704700000000 1.0
C      1  0.4815960000000  0.5496920000000  0.4850270000000 1.0
C      1  0.4197200000000  0.5486930000000  0.4979680000000 1.0
C      1  0.5498800000000  0.5164760000000  0.4586530000000 1.0
C      1  0.4022630000000  0.4559160000000  0.5029410000000 1.0
C      1  0.3795740000000  0.5347590000000  0.5269620000000 1.0
C      1  0.6099050000000  0.4626160000000  0.4691860000000 1.0
C      1  0.4782790000000  0.4977060000000  0.4826120000000 1.0
C      1  0.4257250000000  0.5534950000000  0.4682320000000 1.0
C      1  0.5807700000000  0.4997060000000  0.5828480000000 1.0
C      1  0.5236960000000  0.4433560000000  0.5265600000000 1.0
C      1  0.5543610000000  0.4075060000000  0.4153770000000 1.0
C      1  0.4507700000000  0.4490020000000  0.4978080000000 1.0
C      1  0.5568390000000  0.4918020000000  0.5067780000000 1.0
C      1  0.3956460000000  0.4703550000000  0.5552700000000 1.0
C      1  0.4323360000000  0.4253190000000  0.4147480000000 1.0
C      1  0.4375030000000  0.5016290000000  0.4957740000000 1.0
C      1  0.3742670000000  0.5127530000000  0.5419420000000 1.0
C      1  0.4426970000000  0.5810330000000  0.5325980000000 1.0
C      1  0.5728370000000  0.4831350000000  0.5283770000000 1.0
C      1  0.4441410000000  0.4552980000000  0.5643950000000 1.0
C      1  0.5135400000000  0.5507610000000  0.4897010000000 1.0
C      1  0.5254050000000  0.5553420000000  0.5909770000000 1.0
C      1  0.5382490000000  0.6244300000000  0.4810220000000 1.0
C      1  0.5085620000000  0.4436350000000  0.5803170000000 1.0
C      1  0.5479220000000  0.4702380000000  0.4914020000000 1.0
C      1  0.5312870000000  0.4862710000000  0.6066580000000 1.0
C      1  0.4781060000000  0.5231430000000  0.4672340000000 1.0
C      1  0.5042790000000  0.3829620000000  0.5008890000000 1.0
C      1  0.5688700000000  0.5766080000000  0.4260310000000 1.0
C      1  0.5451770000000  0.3994470000000  0.5298860000000 1.0
C      1  0.6040560000000  0.5223600000000  0.5166610000000 1.0
C      1  0.4580880000000  0.4270910000000  0.4246930000000 1.0
C      1  0.4887730000000  0.4672420000000  0.4163690000000 1.0
C      1  0.5506400000000  0.5756490000000  0.5501750000000 1.0
C      1  0.4372670000000  0.5280420000000  0.5475810000000 1.0
C      1  0.5058830000000  0.4335260000000  0.5060600000000 1.0
C      1  0.5008530000000  0.5562090000000  0.5765430000000 1.0
C      1  0.5415660000000  0.5973280000000  0.4740590000000 1.0
C      1  0.5292190000000  0.5364680000000  0.6114810000000 1.0
C      1  0.5028710000000  0.5108410000000  0.6407860000000 1.0
C      1  0.4705550000000  0.5742720000000  0.5263570000000 1.0
C      1  0.4798250000000  0.4729350000000  0.6102140000000 1.0
C      1  0.5236820000000  0.4565800000000  0.4464390000000 1.0
C      1  0.3890690000000  0.5057930000000  0.4899270000000 1.0
C      1  0.5839380000000  0.5235490000000  0.5655280000000 1.0
C      1  0.4735790000000  0.4862440000000  0.4350170000000 1.0
C      1  0.4927480000000  0.5317410000000  0.5286350000000 1.0
C      1  0.5190890000000  0.3878770000000  0.5265860000000 1.0
C      1  0.5032130000000  0.4163890000000  0.4230920000000 1.0
C      1  0.4527820000000  0.5640860000000  0.4229550000000 1.0
C      1  0.4827820000000  0.4375640000000  0.4138840000000 1.0
C      1  0.5315830000000  0.4464530000000  0.4004370000000 1.0
C      1  0.6098320000000  0.4588490000000  0.5484760000000 1.0
C      1  0.3833590000000  0.5061320000000  0.4622340000000 1.0
C      1  0.4923290000000  0.4053640000000  0.4502340000000 1.0
C      1  0.5410000000000  0.5214070000000  0.5482680000000 1.0
C      1  0.4168050000000  0.4675940000000  0.4325510000000 1.0
C      1  0.5007430000000  0.5535460000000  0.4085780000000 1.0
C      1  0.4473000000000  0.4039400000000  0.5399320000000 1.0
C      1  0.4494410000000  0.5088510000000  0.5657880000000 1.0
C      1  0.5777640000000  0.4274650000000  0.4784690000000 1.0
C      1  0.5189280000000  0.6420880000000  0.4865400000000 1.0
END
