TITL C-599890-3321-473 7.16502980324954e-06 125000 -564.48162497934 0 0 94 (C1) n - 1
REM
REM in /home/nfs/bkarasulu/CARBON/AIRSS/Generating-Clusters/TERSOFF/Only-C1/FIRE-HFTN
REM
REM
REM
REM
REM
REM ./C.cell (11c1c37f851c82e70ff6c80c92926a4b)
REM AIRSS Version 0.9.1 bugfix July 2018 build 013d7b7c2542+ Fri, 06 Jul 2018 19:26:36 +0100
REM compiler GCC version 9.2.1 20190827 (Red Hat 9.2.1-1)
REM options -cpp -mtune=generic -march=x86-64 -g -O0 -fpre-include=/usr/include/finclude/math-vector-fortran.h
REM seed -301857591 1545706412 -697903846 1709533817 256744346 1315556872 1135288645 943641125 -798451743 -1688126014 -1785906228 1308909427 301629700 1978959065 1109724625 1146522731 1898555092 98532092 148311452 1557172615 -1722900601 954634672 888255789 1076115248 923934051 1667186797 -104201983 -1511020873 -305272857 -1028434551 349169327 1735737265 -1640379729
REM
CELL 1.54180   50.00000   50.00000   50.00000   90.00000   90.00000   90.00000
LATT -1
SFAC C  
C      1  0.5234700000000  0.4495800000000  0.4650690000000 1.0
C      1  0.5831450000000  0.4797470000000  0.5200870000000 1.0
C      1  0.4130640000000  0.4607800000000  0.4513100000000 1.0
C      1  0.4945990000000  0.5838770000000  0.5139060000000 1.0
C      1  0.5217190000000  0.4037440000000  0.5192900000000 1.0
C      1  0.5078470000000  0.4982010000000  0.4207200000000 1.0
C      1  0.5460600000000  0.5059230000000  0.5582730000000 1.0
C      1  0.4939800000000  0.5251270000000  0.5472320000000 1.0
C      1  0.4812350000000  0.4955280000000  0.4084850000000 1.0
C      1  0.5377560000000  0.5808610000000  0.4725890000000 1.0
C      1  0.5892780000000  0.5248440000000  0.5389360000000 1.0
C      1  0.4554240000000  0.4336940000000  0.4931710000000 1.0
C      1  0.5217190000000  0.5716700000000  0.5517010000000 1.0
C      1  0.4903130000000  0.4083200000000  0.4474010000000 1.0
C      1  0.4465450000000  0.4251580000000  0.5393950000000 1.0
C      1  0.4966420000000  0.4847250000000  0.5743380000000 1.0
C      1  0.5337350000000  0.5651420000000  0.5236790000000 1.0
C      1  0.4486920000000  0.4181270000000  0.4707990000000 1.0
C      1  0.5214210000000  0.6027990000000  0.4791480000000 1.0
C      1  0.5243080000000  0.5491000000000  0.5711860000000 1.0
C      1  0.5756310000000  0.5504480000000  0.4964740000000 1.0
C      1  0.5084870000000  0.5200540000000  0.4622410000000 1.0
C      1  0.4709090000000  0.4228030000000  0.5520550000000 1.0
C      1  0.5357190000000  0.5210280000000  0.4696470000000 1.0
C      1  0.4168920000000  0.4827910000000  0.4669160000000 1.0
C      1  0.4214650000000  0.5104580000000  0.4553620000000 1.0
C      1  0.5732600000000  0.4980180000000  0.4435330000000 1.0
C      1  0.4746500000000  0.4684220000000  0.4032280000000 1.0
C      1  0.5175640000000  0.5454790000000  0.4229490000000 1.0
C      1  0.5002550000000  0.5103280000000  0.5065720000000 1.0
C      1  0.4423870000000  0.4929660000000  0.5626890000000 1.0
C      1  0.5662590000000  0.4569840000000  0.5256780000000 1.0
C      1  0.4622650000000  0.4059370000000  0.4508930000000 1.0
C      1  0.4972210000000  0.5346550000000  0.5207330000000 1.0
C      1  0.4581200000000  0.5086000000000  0.4877260000000 1.0
C      1  0.4952540000000  0.5992880000000  0.4901670000000 1.0
C      1  0.4659860000000  0.5779000000000  0.5500240000000 1.0
C      1  0.4830660000000  0.4436470000000  0.4106310000000 1.0
C      1  0.5146300000000  0.3930550000000  0.4952260000000 1.0
C      1  0.4269170000000  0.4662430000000  0.5176900000000 1.0
C      1  0.5049800000000  0.4358930000000  0.4817070000000 1.0
C      1  0.5856340000000  0.5273810000000  0.5100760000000 1.0
C      1  0.5045170000000  0.4077140000000  0.4731740000000 1.0
C      1  0.4277090000000  0.5526700000000  0.5196400000000 1.0
C      1  0.4844580000000  0.5087590000000  0.5883660000000 1.0
C      1  0.4376200000000  0.4388200000000  0.5153740000000 1.0
C      1  0.5490150000000  0.5331520000000  0.5671230000000 1.0
C      1  0.5021530000000  0.4956130000000  0.4488030000000 1.0
C      1  0.4960740000000  0.4399490000000  0.5475550000000 1.0
C      1  0.4232360000000  0.5535300000000  0.4903470000000 1.0
C      1  0.5856950000000  0.4995750000000  0.4971730000000 1.0
C      1  0.4149350000000  0.4830620000000  0.4968940000000 1.0
C      1  0.5839060000000  0.4950760000000  0.4686620000000 1.0
C      1  0.4091410000000  0.5109610000000  0.5031620000000 1.0
C      1  0.4663580000000  0.5199600000000  0.4180850000000 1.0
C      1  0.4848120000000  0.4767750000000  0.4579520000000 1.0
C      1  0.4758980000000  0.4973160000000  0.5050390000000 1.0
C      1  0.5266810000000  0.4481890000000  0.5873190000000 1.0
C      1  0.4559000000000  0.5052800000000  0.5831080000000 1.0
C      1  0.4864880000000  0.5384510000000  0.4636550000000 1.0
C      1  0.5296160000000  0.4943550000000  0.5386170000000 1.0
C      1  0.4149680000000  0.5272160000000  0.5262580000000 1.0
C      1  0.4441540000000  0.4803800000000  0.5373080000000 1.0
C      1  0.5080240000000  0.5582250000000  0.5109510000000 1.0
C      1  0.5229250000000  0.4270880000000  0.5355280000000 1.0
C      1  0.4773870000000  0.5899570000000  0.4704420000000 1.0
C      1  0.5295020000000  0.5175550000000  0.4171870000000 1.0
C      1  0.4829870000000  0.4422930000000  0.4982370000000 1.0
C      1  0.5517910000000  0.5407150000000  0.4573830000000 1.0
C      1  0.5767930000000  0.5472380000000  0.4682400000000 1.0
C      1  0.4860730000000  0.4558060000000  0.5232940000000 1.0
C      1  0.4701170000000  0.4789090000000  0.5249490000000 1.0
C      1  0.5477860000000  0.4417050000000  0.5420560000000 1.0
C      1  0.4875950000000  0.5430130000000  0.4167320000000 1.0
C      1  0.4443000000000  0.5673680000000  0.5372330000000 1.0
C      1  0.5353320000000  0.5624470000000  0.4484100000000 1.0
C      1  0.5492820000000  0.4452530000000  0.5704010000000 1.0
C      1  0.5227230000000  0.4430700000000  0.4384420000000 1.0
C      1  0.5258530000000  0.4982360000000  0.5109400000000 1.0
C      1  0.5557940000000  0.5075360000000  0.4245640000000 1.0
C      1  0.4471260000000  0.5182800000000  0.4417770000000 1.0
C      1  0.5928920000000  0.4960310000000  0.5426600000000 1.0
C      1  0.4984220000000  0.5333470000000  0.5750950000000 1.0
C      1  0.5529960000000  0.5675970000000  0.5024820000000 1.0
C      1  0.5034310000000  0.4972240000000  0.5495930000000 1.0
C      1  0.5425210000000  0.5027650000000  0.4895800000000 1.0
C      1  0.5752240000000  0.5406870000000  0.5580350000000 1.0
C      1  0.4818910000000  0.5657640000000  0.4597050000000 1.0
C      1  0.5029430000000  0.4566910000000  0.5732780000000 1.0
C      1  0.4997780000000  0.4288110000000  0.4284080000000 1.0
C      1  0.5271450000000  0.4433490000000  0.6141130000000 1.0
C      1  0.4625890000000  0.5241960000000  0.4653810000000 1.0
C      1  0.4136150000000  0.5282550000000  0.4785120000000 1.0
C      1  0.4933300000000  0.5844610000000  0.5438480000000 1.0
END
