TITL C-599897-7526-27 -0.00218710078872427 125000 -504.332632565641 0 0 83 (C1) n - 1
REM
REM in /home/nfs/bkarasulu/CARBON/AIRSS/Generating-Clusters/TERSOFF/Only-C1/FIRE-HFTN
REM
REM
REM
REM
REM
REM ./C.cell (11c1c37f851c82e70ff6c80c92926a4b)
REM AIRSS Version 0.9.1 bugfix July 2018 build 013d7b7c2542+ Fri, 06 Jul 2018 19:26:36 +0100
REM compiler GCC version 9.2.1 20190827 (Red Hat 9.2.1-1)
REM options -cpp -mtune=generic -march=x86-64 -g -O0 -fpre-include=/usr/include/finclude/math-vector-fortran.h
REM seed 1638754885 2017567173 2061316395 1261151731 -1869536211 -427246142 1591923351 1645134837 968347682 2137559218 1434021376 1664067096 1414837208 -604465177 1277679251 1506152392 -1747441339 988337688 2099820669 1915606682 1206313520 1382652367 491878957 1261222233 1053974561 -732381701 -186883925 -1067065119 -1602354392 -1691315607 1805385962 1642308238 -2035618605
REM
CELL 1.54180   50.00000   50.00000   50.00000   90.00000   90.00000   90.00000
LATT -1
SFAC C  
C      1  0.4336290000000  0.6392260000000  0.4768070000000 1.0
C      1  0.5426990000000  0.4200590000000  0.5053250000000 1.0
C      1  0.5674580000000  0.4268180000000  0.4901110000000 1.0
C      1  0.5181010000000  0.5802320000000  0.5410250000000 1.0
C      1  0.4723320000000  0.6170750000000  0.5009900000000 1.0
C      1  0.4130840000000  0.4981870000000  0.4850400000000 1.0
C      1  0.4929360000000  0.5135750000000  0.4278490000000 1.0
C      1  0.4557480000000  0.5054120000000  0.5314780000000 1.0
C      1  0.5532890000000  0.6066430000000  0.4436160000000 1.0
C      1  0.5343850000000  0.4147900000000  0.5318210000000 1.0
C      1  0.4859710000000  0.5350580000000  0.5082570000000 1.0
C      1  0.4987980000000  0.4344730000000  0.5648750000000 1.0
C      1  0.5779340000000  0.4529860000000  0.4877300000000 1.0
C      1  0.6055330000000  0.4925470000000  0.4887220000000 1.0
C      1  0.4307920000000  0.4584030000000  0.5662930000000 1.0
C      1  0.4417140000000  0.5033290000000  0.4395540000000 1.0
C      1  0.5221710000000  0.4230400000000  0.4844580000000 1.0
C      1  0.5776240000000  0.4827810000000  0.5632180000000 1.0
C      1  0.5749110000000  0.4697800000000  0.4626030000000 1.0
C      1  0.5320590000000  0.4810980000000  0.4377880000000 1.0
C      1  0.5222780000000  0.5126830000000  0.4846630000000 1.0
C      1  0.4689710000000  0.4616470000000  0.5134350000000 1.0
C      1  0.5965040000000  0.4689370000000  0.5035550000000 1.0
C      1  0.4970700000000  0.5813650000000  0.5226510000000 1.0
C      1  0.5295840000000  0.5365250000000  0.5581640000000 1.0
C      1  0.4227610000000  0.5486960000000  0.5460150000000 1.0
C      1  0.4387710000000  0.4377670000000  0.4094010000000 1.0
C      1  0.4961040000000  0.5605630000000  0.5037830000000 1.0
C      1  0.5371360000000  0.5594550000000  0.5438080000000 1.0
C      1  0.5234530000000  0.4293660000000  0.4351000000000 1.0
C      1  0.5525880000000  0.4868130000000  0.4571360000000 1.0
C      1  0.4018370000000  0.4872660000000  0.5066230000000 1.0
C      1  0.3989280000000  0.4749890000000  0.5301560000000 1.0
C      1  0.5622430000000  0.4138240000000  0.4643680000000 1.0
C      1  0.5510760000000  0.5741930000000  0.4787190000000 1.0
C      1  0.4443590000000  0.5540320000000  0.5297550000000 1.0
C      1  0.5232000000000  0.4333110000000  0.5501120000000 1.0
C      1  0.4482200000000  0.5811470000000  0.5217870000000 1.0
C      1  0.5171800000000  0.5022730000000  0.4264060000000 1.0
C      1  0.5328130000000  0.4594610000000  0.5439420000000 1.0
C      1  0.5342690000000  0.4162270000000  0.4578930000000 1.0
C      1  0.4455990000000  0.4304520000000  0.4770610000000 1.0
C      1  0.5567840000000  0.4694710000000  0.5537050000000 1.0
C      1  0.4735490000000  0.5962680000000  0.5214230000000 1.0
C      1  0.4301090000000  0.4629340000000  0.4079680000000 1.0
C      1  0.5153220000000  0.4731020000000  0.5265530000000 1.0
C      1  0.5974500000000  0.4977290000000  0.5711560000000 1.0
C      1  0.5045480000000  0.4453090000000  0.4862990000000 1.0
C      1  0.5597410000000  0.5534650000000  0.4957020000000 1.0
C      1  0.4925900000000  0.4732620000000  0.6180120000000 1.0
C      1  0.4793810000000  0.4119280000000  0.4162620000000 1.0
C      1  0.5188740000000  0.6117670000000  0.4765010000000 1.0
C      1  0.6008990000000  0.4836090000000  0.4610390000000 1.0
C      1  0.4970280000000  0.4591050000000  0.5095460000000 1.0
C      1  0.4307610000000  0.5975400000000  0.5053880000000 1.0
C      1  0.5484160000000  0.5096330000000  0.4747570000000 1.0
C      1  0.4932170000000  0.4760890000000  0.5903070000000 1.0
C      1  0.5058300000000  0.4156900000000  0.4180600000000 1.0
C      1  0.5050540000000  0.4985330000000  0.5780950000000 1.0
C      1  0.4576250000000  0.4637300000000  0.5597490000000 1.0
C      1  0.5175050000000  0.4568630000000  0.4407130000000 1.0
C      1  0.4543920000000  0.4208480000000  0.4254190000000 1.0
C      1  0.4816700000000  0.4560230000000  0.5732730000000 1.0
C      1  0.4446240000000  0.6196900000000  0.4929140000000 1.0
C      1  0.4919210000000  0.4702750000000  0.6438920000000 1.0
C      1  0.5155750000000  0.5123350000000  0.5560210000000 1.0
C      1  0.5410310000000  0.5974940000000  0.4663880000000 1.0
C      1  0.4516400000000  0.4463830000000  0.4975420000000 1.0
C      1  0.4604040000000  0.4778500000000  0.5349050000000 1.0
C      1  0.4986420000000  0.4580610000000  0.4618600000000 1.0
C      1  0.5124200000000  0.5007840000000  0.5300860000000 1.0
C      1  0.5935570000000  0.5175470000000  0.4936820000000 1.0
C      1  0.4309560000000  0.4869370000000  0.4194380000000 1.0
C      1  0.4480020000000  0.4197130000000  0.4527960000000 1.0
C      1  0.4236220000000  0.6577670000000  0.4614690000000 1.0
C      1  0.4672770000000  0.5141780000000  0.4352030000000 1.0
C      1  0.4612880000000  0.5317030000000  0.5223260000000 1.0
C      1  0.4956440000000  0.6211760000000  0.4859210000000 1.0
C      1  0.4282080000000  0.5048800000000  0.4641270000000 1.0
C      1  0.4082200000000  0.4638970000000  0.5526790000000 1.0
C      1  0.5680210000000  0.5276010000000  0.4863970000000 1.0
C      1  0.5056280000000  0.5151130000000  0.5068490000000 1.0
C      1  0.5564620000000  0.5572100000000  0.5234860000000 1.0
END
