TITL C-599897-7526-499 5.00455584463551 125000 -1143.77524300104 0 0 188 (C1) n - 1
REM
REM in /home/nfs/bkarasulu/CARBON/AIRSS/Generating-Clusters/TERSOFF/Only-C1/FIRE-HFTN
REM
REM
REM
REM
REM
REM ./C.cell (11c1c37f851c82e70ff6c80c92926a4b)
REM AIRSS Version 0.9.1 bugfix July 2018 build 013d7b7c2542+ Fri, 06 Jul 2018 19:26:36 +0100
REM compiler GCC version 9.2.1 20190827 (Red Hat 9.2.1-1)
REM options -cpp -mtune=generic -march=x86-64 -g -O0 -fpre-include=/usr/include/finclude/math-vector-fortran.h
REM seed -1577809449 -2087502335 -682247281 -11863204 79543470 -196496944 -1529506871 532745694 1907691116 -426890462 -559690430 545869985 739524515 -1195035720 -1079258986 882565062 -1239896406 1875529893 1053673402 25138242 453319109 -17482558 -1771748702 1126659411 -1377640508 933139660 1490644926 -1362591788 1567940247 49979145 -2068256908 -2050319156 639339003
REM
CELL 1.54180   50.00000   50.00000   50.00000   90.00000   90.00000   90.00000
LATT -1
SFAC C  
C      1  0.5137480000000  0.6501880000000  0.4910310000000 1.0
C      1  0.4512510000000  0.4256150000000  0.4807070000000 1.0
C      1  0.4971010000000  0.5195070000000  0.3922060000000 1.0
C      1  0.6100030000000  0.4226470000000  0.4702090000000 1.0
C      1  0.4223400000000  0.4971750000000  0.5251740000000 1.0
C      1  0.4474630000000  0.4939160000000  0.5944570000000 1.0
C      1  0.5400730000000  0.4390850000000  0.5117490000000 1.0
C      1  0.4230440000000  0.4671770000000  0.4820760000000 1.0
C      1  0.3551580000000  0.4913040000000  0.4620900000000 1.0
C      1  0.5299850000000  0.5299920000000  0.5533760000000 1.0
C      1  0.4075540000000  0.4724070000000  0.4582310000000 1.0
C      1  0.4909190000000  0.3870480000000  0.3364860000000 1.0
C      1  0.5135840000000  0.4400590000000  0.6230210000000 1.0
C      1  0.4369510000000  0.4905370000000  0.5485330000000 1.0
C      1  0.5880850000000  0.5320160000000  0.4612560000000 1.0
C      1  0.4457420000000  0.5455120000000  0.4938850000000 1.0
C      1  0.3587270000000  0.6225970000000  0.4468020000000 1.0
C      1  0.5239820000000  0.4792980000000  0.3972950000000 1.0
C      1  0.5828010000000  0.5382770000000  0.5622450000000 1.0
C      1  0.4365560000000  0.5196880000000  0.6017850000000 1.0
C      1  0.5257550000000  0.4352820000000  0.4646590000000 1.0
C      1  0.5350200000000  0.5732380000000  0.4206530000000 1.0
C      1  0.5078000000000  0.4419040000000  0.5505890000000 1.0
C      1  0.5991820000000  0.5983970000000  0.4913070000000 1.0
C      1  0.5756150000000  0.5304840000000  0.5348440000000 1.0
C      1  0.4839190000000  0.4905980000000  0.5459950000000 1.0
C      1  0.6140580000000  0.4524830000000  0.4763420000000 1.0
C      1  0.5581640000000  0.4098730000000  0.4276940000000 1.0
C      1  0.5063330000000  0.4708480000000  0.4297200000000 1.0
C      1  0.4381460000000  0.4626170000000  0.5517890000000 1.0
C      1  0.3332910000000  0.4745000000000  0.4574730000000 1.0
C      1  0.4873230000000  0.4620610000000  0.5369440000000 1.0
C      1  0.5583320000000  0.3901610000000  0.5581160000000 1.0
C      1  0.6227350000000  0.6079400000000  0.4812270000000 1.0
C      1  0.4343540000000  0.6014880000000  0.4575920000000 1.0
C      1  0.5629730000000  0.4556830000000  0.5069790000000 1.0
C      1  0.4743430000000  0.5050850000000  0.4758220000000 1.0
C      1  0.5124830000000  0.5443910000000  0.4680300000000 1.0
C      1  0.3277150000000  0.4731720000000  0.5270860000000 1.0
C      1  0.5955800000000  0.4528220000000  0.5438250000000 1.0
C      1  0.4169770000000  0.5780700000000  0.5262710000000 1.0
C      1  0.4331310000000  0.4877930000000  0.4999620000000 1.0
C      1  0.6081070000000  0.4968650000000  0.5577550000000 1.0
C      1  0.5527750000000  0.4462700000000  0.4586670000000 1.0
C      1  0.3537350000000  0.4745720000000  0.5273840000000 1.0
C      1  0.6183000000000  0.4682100000000  0.5030040000000 1.0
C      1  0.5782220000000  0.5097620000000  0.6016030000000 1.0
C      1  0.4691290000000  0.4198850000000  0.5027340000000 1.0
C      1  0.4603880000000  0.4987880000000  0.5661900000000 1.0
C      1  0.5115950000000  0.3921200000000  0.5374870000000 1.0
C      1  0.3130540000000  0.4584550000000  0.4539740000000 1.0
C      1  0.5017240000000  0.5407460000000  0.5184700000000 1.0
C      1  0.5811800000000  0.3942430000000  0.5714120000000 1.0
C      1  0.4641260000000  0.4235800000000  0.4547580000000 1.0
C      1  0.5396400000000  0.5448450000000  0.4614120000000 1.0
C      1  0.4136410000000  0.4489130000000  0.5581040000000 1.0
C      1  0.4465060000000  0.5399710000000  0.5857220000000 1.0
C      1  0.5017530000000  0.4705930000000  0.5917900000000 1.0
C      1  0.6011400000000  0.4905620000000  0.4423570000000 1.0
C      1  0.4674510000000  0.5022730000000  0.4492880000000 1.0
C      1  0.5771400000000  0.5905360000000  0.4740630000000 1.0
C      1  0.5948970000000  0.5955610000000  0.5200830000000 1.0
C      1  0.4984060000000  0.4982890000000  0.5977710000000 1.0
C      1  0.5408970000000  0.4844330000000  0.4400530000000 1.0
C      1  0.5374910000000  0.3766920000000  0.4652860000000 1.0
C      1  0.4923970000000  0.5258130000000  0.5903900000000 1.0
C      1  0.3895240000000  0.5323400000000  0.5243560000000 1.0
C      1  0.4768860000000  0.5021850000000  0.4025340000000 1.0
C      1  0.3820290000000  0.5728990000000  0.4951910000000 1.0
C      1  0.5480260000000  0.4633870000000  0.4013090000000 1.0
C      1  0.4750250000000  0.5343590000000  0.5331060000000 1.0
C      1  0.4760640000000  0.5762720000000  0.5102200000000 1.0
C      1  0.5083900000000  0.5095120000000  0.5539000000000 1.0
C      1  0.3946250000000  0.5034040000000  0.5265410000000 1.0
C      1  0.3949620000000  0.5606730000000  0.5174500000000 1.0
C      1  0.4946990000000  0.4313020000000  0.5005850000000 1.0
C      1  0.6104060000000  0.4760500000000  0.5369060000000 1.0
C      1  0.4904200000000  0.4484230000000  0.6074340000000 1.0
C      1  0.3513840000000  0.5179960000000  0.4666940000000 1.0
C      1  0.6041240000000  0.4060200000000  0.4913480000000 1.0
C      1  0.4316130000000  0.4924580000000  0.4202690000000 1.0
C      1  0.6074240000000  0.5117660000000  0.4599510000000 1.0
C      1  0.5915290000000  0.4151510000000  0.5132300000000 1.0
C      1  0.5927040000000  0.5150170000000  0.5763040000000 1.0
C      1  0.4130990000000  0.4313940000000  0.5154660000000 1.0
C      1  0.4990810000000  0.4010000000000  0.3569400000000 1.0
C      1  0.5466090000000  0.5681480000000  0.4454580000000 1.0
C      1  0.4846170000000  0.4919450000000  0.4287810000000 1.0
C      1  0.4538340000000  0.6144850000000  0.5225750000000 1.0
C      1  0.5137670000000  0.5204710000000  0.5028340000000 1.0
C      1  0.5580760000000  0.5073130000000  0.4913000000000 1.0
C      1  0.5657190000000  0.4549030000000  0.5827180000000 1.0
C      1  0.5366900000000  0.3957960000000  0.4437930000000 1.0
C      1  0.4968850000000  0.6362320000000  0.5094330000000 1.0
C      1  0.5448150000000  0.5287420000000  0.4021120000000 1.0
C      1  0.4688320000000  0.6349510000000  0.5098550000000 1.0
C      1  0.4800440000000  0.5678470000000  0.4029730000000 1.0
C      1  0.5400510000000  0.4479950000000  0.6235060000000 1.0
C      1  0.4715970000000  0.5062390000000  0.5225710000000 1.0
C      1  0.5278430000000  0.5532610000000  0.4025400000000 1.0
C      1  0.4881200000000  0.4231320000000  0.4388460000000 1.0
C      1  0.4996480000000  0.5481370000000  0.3963670000000 1.0
C      1  0.5219250000000  0.4284330000000  0.4929780000000 1.0
C      1  0.5041740000000  0.4748300000000  0.4859670000000 1.0
C      1  0.4166600000000  0.4704410000000  0.4306900000000 1.0
C      1  0.5584710000000  0.5290510000000  0.6093440000000 1.0
C      1  0.5880480000000  0.4431650000000  0.5696050000000 1.0
C      1  0.5010590000000  0.5026270000000  0.4852250000000 1.0
C      1  0.3742200000000  0.6091990000000  0.4629140000000 1.0
C      1  0.4933280000000  0.4130060000000  0.5489200000000 1.0
C      1  0.5129650000000  0.3771010000000  0.5131980000000 1.0
C      1  0.5073810000000  0.4151510000000  0.3777390000000 1.0
C      1  0.5015030000000  0.5674830000000  0.5103610000000 1.0
C      1  0.4898020000000  0.5605120000000  0.4643470000000 1.0
C      1  0.5745280000000  0.5743660000000  0.4488310000000 1.0
C      1  0.5395850000000  0.5137760000000  0.5105700000000 1.0
C      1  0.5728650000000  0.5277930000000  0.4164980000000 1.0
C      1  0.4233890000000  0.5330040000000  0.4804710000000 1.0
C      1  0.5088850000000  0.5472040000000  0.5995230000000 1.0
C      1  0.5508620000000  0.5145110000000  0.5373380000000 1.0
C      1  0.5495970000000  0.4738760000000  0.4641340000000 1.0
C      1  0.4193550000000  0.6019860000000  0.4823810000000 1.0
C      1  0.3912350000000  0.5948830000000  0.4796590000000 1.0
C      1  0.5840780000000  0.4181240000000  0.4410570000000 1.0
C      1  0.5838650000000  0.4410980000000  0.5210380000000 1.0
C      1  0.4407180000000  0.5093680000000  0.4410980000000 1.0
C      1  0.5761240000000  0.4850710000000  0.6160390000000 1.0
C      1  0.5608890000000  0.4793310000000  0.4892990000000 1.0
C      1  0.5256120000000  0.3723030000000  0.4895220000000 1.0
C      1  0.5378600000000  0.5599490000000  0.5582580000000 1.0
C      1  0.5139220000000  0.4132750000000  0.4482260000000 1.0
C      1  0.5048500000000  0.5728180000000  0.5876570000000 1.0
C      1  0.4692600000000  0.5296820000000  0.5682840000000 1.0
C      1  0.4606340000000  0.4485150000000  0.5411560000000 1.0
C      1  0.4303380000000  0.4141510000000  0.5352800000000 1.0
C      1  0.5008150000000  0.5995900000000  0.5442560000000 1.0
C      1  0.5190010000000  0.4606210000000  0.5715230000000 1.0
C      1  0.4455600000000  0.4240830000000  0.5859210000000 1.0
C      1  0.5948180000000  0.4167780000000  0.5767390000000 1.0
C      1  0.5810360000000  0.5766620000000  0.5364650000000 1.0
C      1  0.5994480000000  0.4642000000000  0.4534270000000 1.0
C      1  0.5366250000000  0.6357070000000  0.4862790000000 1.0
C      1  0.5523060000000  0.5638860000000  0.5030930000000 1.0
C      1  0.4492770000000  0.4955150000000  0.3975150000000 1.0
C      1  0.4615910000000  0.4437920000000  0.6017790000000 1.0
C      1  0.5156340000000  0.5800680000000  0.5617960000000 1.0
C      1  0.5686870000000  0.5653920000000  0.5618920000000 1.0
C      1  0.4587510000000  0.4991670000000  0.4982610000000 1.0
C      1  0.4699220000000  0.6023490000000  0.5452430000000 1.0
C      1  0.3816670000000  0.4764670000000  0.5287660000000 1.0
C      1  0.4913830000000  0.5829250000000  0.4466670000000 1.0
C      1  0.5345560000000  0.4314450000000  0.5382910000000 1.0
C      1  0.4268240000000  0.4395260000000  0.4901600000000 1.0
C      1  0.5085850000000  0.4610940000000  0.4612200000000 1.0
C      1  0.4454280000000  0.5829530000000  0.4383570000000 1.0
C      1  0.5365810000000  0.6104970000000  0.5010570000000 1.0
C      1  0.5440880000000  0.4339960000000  0.4062770000000 1.0
C      1  0.5377190000000  0.4031610000000  0.5449760000000 1.0
C      1  0.4972770000000  0.4424440000000  0.4186180000000 1.0
C      1  0.5242570000000  0.5073590000000  0.3935300000000 1.0
C      1  0.5785910000000  0.4444530000000  0.4474650000000 1.0
C      1  0.4942660000000  0.4595380000000  0.5076290000000 1.0
C      1  0.5158180000000  0.4297790000000  0.3998150000000 1.0
C      1  0.5131370000000  0.6134730000000  0.5210380000000 1.0
C      1  0.5856580000000  0.5487570000000  0.4370780000000 1.0
C      1  0.4112370000000  0.4482670000000  0.4156390000000 1.0
C      1  0.4385040000000  0.5664710000000  0.5407690000000 1.0
C      1  0.5525810000000  0.5893370000000  0.4908110000000 1.0
C      1  0.3977020000000  0.4515240000000  0.5329790000000 1.0
C      1  0.4719630000000  0.5838880000000  0.4254170000000 1.0
C      1  0.4472850000000  0.4684470000000  0.6057660000000 1.0
C      1  0.4290220000000  0.6010630000000  0.5103810000000 1.0
C      1  0.4562840000000  0.5541460000000  0.5203960000000 1.0
C      1  0.4533920000000  0.5830750000000  0.5585470000000 1.0
C      1  0.5822410000000  0.4992470000000  0.4216430000000 1.0
C      1  0.4437590000000  0.5562240000000  0.4482740000000 1.0
C      1  0.5734570000000  0.5539970000000  0.5187380000000 1.0
C      1  0.4579200000000  0.4220260000000  0.5289890000000 1.0
C      1  0.5342150000000  0.5405190000000  0.6105640000000 1.0
C      1  0.4281400000000  0.5321970000000  0.4517050000000 1.0
C      1  0.5534480000000  0.4881050000000  0.5496500000000 1.0
C      1  0.5611370000000  0.4808330000000  0.4196010000000 1.0
C      1  0.4249110000000  0.4222920000000  0.5639910000000 1.0
C      1  0.3809230000000  0.4805090000000  0.4619280000000 1.0
C      1  0.5459950000000  0.4680910000000  0.5673860000000 1.0
C      1  0.5627570000000  0.4604500000000  0.6106170000000 1.0
C      1  0.5616820000000  0.5275350000000  0.4717090000000 1.0
C      1  0.4630030000000  0.5538760000000  0.4710760000000 1.0
END
