TITL C-599895-9959-308 -58790.0004642763 125000 -843.773400876478 0 0 138 (C1) n - 1
REM
REM in /home/nfs/bkarasulu/CARBON/AIRSS/Generating-Clusters/TERSOFF/Only-C1/FIRE-HFTN
REM
REM
REM
REM
REM
REM ./C.cell (11c1c37f851c82e70ff6c80c92926a4b)
REM AIRSS Version 0.9.1 bugfix July 2018 build 013d7b7c2542+ Fri, 06 Jul 2018 19:26:36 +0100
REM compiler GCC version 9.2.1 20190827 (Red Hat 9.2.1-1)
REM options -cpp -mtune=generic -march=x86-64 -g -O0 -fpre-include=/usr/include/finclude/math-vector-fortran.h
REM seed -1564580222 782060876 -1635710468 692351340 -1215090359 605722602 -604625106 -405870968 -1754447039 -1736845193 1474759718 1210595076 71351011 -102821808 1322537297 -2100215863 1163817325 1035935606 -1190109441 1066735927 1789714697 -1640087445 -1163969662 1968407769 1825118489 899256654 -1099106801 817287721 -1146397537 -1314608682 -2142858128 -148115151 -1505892924
REM
CELL 1.54180   50.00000   50.00000   50.00000   90.00000   90.00000   90.00000
LATT -1
SFAC C  
C      1  0.4598550000000  0.4583270000000  0.5828990000000 1.0
C      1  0.4248250000000  0.5420930000000  0.4295960000000 1.0
C      1  0.4863820000000  0.4666980000000  0.4516690000000 1.0
C      1  0.5210500000000  0.4797760000000  0.5882980000000 1.0
C      1  0.4753280000000  0.5144720000000  0.4454740000000 1.0
C      1  0.4809500000000  0.4248210000000  0.5274420000000 1.0
C      1  0.4991530000000  0.5213020000000  0.5810100000000 1.0
C      1  0.5434930000000  0.4292230000000  0.4573560000000 1.0
C      1  0.4849460000000  0.5477350000000  0.4913090000000 1.0
C      1  0.5077190000000  0.5889410000000  0.4638570000000 1.0
C      1  0.5092070000000  0.5077930000000  0.4943930000000 1.0
C      1  0.4471890000000  0.5052080000000  0.5815390000000 1.0
C      1  0.5451020000000  0.5195900000000  0.5929830000000 1.0
C      1  0.6041360000000  0.4299550000000  0.5379790000000 1.0
C      1  0.4981660000000  0.5234050000000  0.4310670000000 1.0
C      1  0.4902820000000  0.4058240000000  0.5083920000000 1.0
C      1  0.4886060000000  0.4080320000000  0.4785930000000 1.0
C      1  0.5221980000000  0.5314050000000  0.4470890000000 1.0
C      1  0.5131530000000  0.4821950000000  0.3914950000000 1.0
C      1  0.5660150000000  0.4073420000000  0.4898010000000 1.0
C      1  0.5920180000000  0.5573410000000  0.5297770000000 1.0
C      1  0.6306370000000  0.4307910000000  0.4966050000000 1.0
C      1  0.5332990000000  0.5632710000000  0.4069520000000 1.0
C      1  0.4927780000000  0.4279270000000  0.5536590000000 1.0
C      1  0.4421820000000  0.4393740000000  0.4623200000000 1.0
C      1  0.4079630000000  0.5744940000000  0.5070510000000 1.0
C      1  0.4696820000000  0.4955350000000  0.5327260000000 1.0
C      1  0.5817160000000  0.5380780000000  0.5484960000000 1.0
C      1  0.5418220000000  0.4452380000000  0.5029440000000 1.0
C      1  0.5217380000000  0.5635820000000  0.5848270000000 1.0
C      1  0.5382340000000  0.5900510000000  0.4991330000000 1.0
C      1  0.4904320000000  0.5943910000000  0.5158230000000 1.0
C      1  0.4465660000000  0.4877960000000  0.4724210000000 1.0
C      1  0.4077920000000  0.4185070000000  0.5680650000000 1.0
C      1  0.4322940000000  0.4882670000000  0.5625060000000 1.0
C      1  0.5909530000000  0.5288650000000  0.4454570000000 1.0
C      1  0.4153850000000  0.5636830000000  0.5768450000000 1.0
C      1  0.5697540000000  0.5438980000000  0.4362380000000 1.0
C      1  0.5355410000000  0.5887360000000  0.5457150000000 1.0
C      1  0.5425050000000  0.5710310000000  0.5669530000000 1.0
C      1  0.3874090000000  0.5275880000000  0.4974800000000 1.0
C      1  0.4380610000000  0.4904230000000  0.4117490000000 1.0
C      1  0.4828600000000  0.5788470000000  0.4551090000000 1.0
C      1  0.3890740000000  0.3767750000000  0.5939860000000 1.0
C      1  0.4690140000000  0.4242050000000  0.4592290000000 1.0
C      1  0.5402810000000  0.4373800000000  0.5658930000000 1.0
C      1  0.6137740000000  0.4836480000000  0.4559370000000 1.0
C      1  0.5216180000000  0.5357200000000  0.5900600000000 1.0
C      1  0.4776170000000  0.5235050000000  0.5358070000000 1.0
C      1  0.6263020000000  0.4292100000000  0.5230450000000 1.0
C      1  0.4694870000000  0.5383330000000  0.5131390000000 1.0
C      1  0.4573650000000  0.5790720000000  0.5529390000000 1.0
C      1  0.4420270000000  0.5591420000000  0.5688270000000 1.0
C      1  0.5200740000000  0.4196330000000  0.5567360000000 1.0
C      1  0.4332020000000  0.5785270000000  0.4693660000000 1.0
C      1  0.4371830000000  0.4611720000000  0.4812960000000 1.0
C      1  0.5255490000000  0.5115710000000  0.5182720000000 1.0
C      1  0.5249880000000  0.3956170000000  0.5420910000000 1.0
C      1  0.5607960000000  0.4252480000000  0.5127630000000 1.0
C      1  0.4584880000000  0.5325570000000  0.4594830000000 1.0
C      1  0.4215050000000  0.4608220000000  0.5052880000000 1.0
C      1  0.6011280000000  0.5080910000000  0.4635090000000 1.0
C      1  0.5794910000000  0.5807060000000  0.5234600000000 1.0
C      1  0.4190130000000  0.4873140000000  0.5157390000000 1.0
C      1  0.5423170000000  0.4044620000000  0.4714510000000 1.0
C      1  0.4258490000000  0.5633920000000  0.4472440000000 1.0
C      1  0.4845290000000  0.5439700000000  0.3876550000000 1.0
C      1  0.5488270000000  0.5433470000000  0.4882010000000 1.0
C      1  0.4921910000000  0.4799820000000  0.5241200000000 1.0
C      1  0.5579750000000  0.4988760000000  0.4714820000000 1.0
C      1  0.5392860000000  0.5848770000000  0.3594010000000 1.0
C      1  0.5330970000000  0.5761210000000  0.4551100000000 1.0
C      1  0.5344390000000  0.4384830000000  0.4324250000000 1.0
C      1  0.4988810000000  0.4638590000000  0.4762600000000 1.0
C      1  0.5825040000000  0.5003550000000  0.5154560000000 1.0
C      1  0.4642840000000  0.4805270000000  0.4020240000000 1.0
C      1  0.4028740000000  0.5351950000000  0.5428030000000 1.0
C      1  0.5084770000000  0.4303820000000  0.4254530000000 1.0
C      1  0.4193320000000  0.4400760000000  0.5545890000000 1.0
C      1  0.4692180000000  0.4529640000000  0.4104090000000 1.0
C      1  0.5765210000000  0.4349170000000  0.5362580000000 1.0
C      1  0.4429360000000  0.5170000000000  0.4794720000000 1.0
C      1  0.5422060000000  0.4668600000000  0.4312440000000 1.0
C      1  0.4881710000000  0.4952700000000  0.3944110000000 1.0
C      1  0.4269030000000  0.4459920000000  0.4383650000000 1.0
C      1  0.4165770000000  0.4418050000000  0.5259640000000 1.0
C      1  0.4681800000000  0.4879770000000  0.4522430000000 1.0
C      1  0.4230060000000  0.4684730000000  0.4232620000000 1.0
C      1  0.5812560000000  0.5096600000000  0.5435380000000 1.0
C      1  0.5206820000000  0.4851610000000  0.5316580000000 1.0
C      1  0.5660880000000  0.4835210000000  0.5633090000000 1.0
C      1  0.5664480000000  0.4775590000000  0.5181070000000 1.0
C      1  0.3978180000000  0.5035550000000  0.5050560000000 1.0
C      1  0.5465380000000  0.4927510000000  0.5832820000000 1.0
C      1  0.5636000000000  0.4525340000000  0.5568330000000 1.0
C      1  0.5101750000000  0.3886640000000  0.5201830000000 1.0
C      1  0.3959310000000  0.5497920000000  0.5642820000000 1.0
C      1  0.4427890000000  0.5302330000000  0.5051380000000 1.0
C      1  0.4299130000000  0.5179030000000  0.4173070000000 1.0
C      1  0.4920520000000  0.5222450000000  0.4032030000000 1.0
C      1  0.5833560000000  0.5038850000000  0.4861310000000 1.0
C      1  0.5528510000000  0.5906390000000  0.5232360000000 1.0
C      1  0.4402350000000  0.4920060000000  0.5352980000000 1.0
C      1  0.5426240000000  0.5336080000000  0.5144970000000 1.0
C      1  0.4337890000000  0.4598760000000  0.5694740000000 1.0
C      1  0.5496420000000  0.4751170000000  0.4589340000000 1.0
C      1  0.5469990000000  0.5705980000000  0.4800930000000 1.0
C      1  0.5093930000000  0.5959700000000  0.4927370000000 1.0
C      1  0.4779460000000  0.4385490000000  0.5749120000000 1.0
C      1  0.4986550000000  0.5798360000000  0.5860590000000 1.0
C      1  0.5444470000000  0.5229180000000  0.4674490000000 1.0
C      1  0.5038290000000  0.5304590000000  0.4806700000000 1.0
C      1  0.5643850000000  0.5528160000000  0.5657250000000 1.0
C      1  0.4606580000000  0.5864440000000  0.5222720000000 1.0
C      1  0.5359260000000  0.5741890000000  0.3829400000000 1.0
C      1  0.4617490000000  0.4419100000000  0.5194380000000 1.0
C      1  0.5146670000000  0.3961800000000  0.4702460000000 1.0
C      1  0.3906490000000  0.5545870000000  0.4996370000000 1.0
C      1  0.5388180000000  0.5545730000000  0.4343760000000 1.0
C      1  0.5457140000000  0.4514750000000  0.4752630000000 1.0
C      1  0.5402460000000  0.4674770000000  0.5202910000000 1.0
C      1  0.5084930000000  0.5957890000000  0.5390990000000 1.0
C      1  0.4348150000000  0.5823240000000  0.4990900000000 1.0
C      1  0.6131700000000  0.4568420000000  0.4599160000000 1.0
C      1  0.6122200000000  0.4328460000000  0.4751900000000 1.0
C      1  0.4232690000000  0.5337460000000  0.5251920000000 1.0
C      1  0.4827230000000  0.4413460000000  0.4356090000000 1.0
C      1  0.4727250000000  0.5628340000000  0.3740790000000 1.0
C      1  0.4800330000000  0.5309700000000  0.5628220000000 1.0
C      1  0.4686970000000  0.4853430000000  0.5903980000000 1.0
C      1  0.4538750000000  0.5333570000000  0.5747830000000 1.0
C      1  0.4956790000000  0.4827880000000  0.4956700000000 1.0
C      1  0.5909410000000  0.4136930000000  0.4765290000000 1.0
C      1  0.4776170000000  0.5884870000000  0.5715210000000 1.0
C      1  0.5346710000000  0.4795720000000  0.4075100000000 1.0
C      1  0.4709510000000  0.5568400000000  0.4677370000000 1.0
C      1  0.4960780000000  0.4937560000000  0.5888960000000 1.0
C      1  0.3982410000000  0.3975220000000  0.5811270000000 1.0
END
