TITL C-599897-7526-394 4.69834973225272e-05 125000 -158.913668181875 0 0 27 (C1) n - 1
REM
REM in /home/nfs/bkarasulu/CARBON/AIRSS/Generating-Clusters/TERSOFF/Only-C1/FIRE-HFTN
REM
REM
REM
REM
REM
REM ./C.cell (11c1c37f851c82e70ff6c80c92926a4b)
REM AIRSS Version 0.9.1 bugfix July 2018 build 013d7b7c2542+ Fri, 06 Jul 2018 19:26:36 +0100
REM compiler GCC version 9.2.1 20190827 (Red Hat 9.2.1-1)
REM options -cpp -mtune=generic -march=x86-64 -g -O0 -fpre-include=/usr/include/finclude/math-vector-fortran.h
REM seed 1561782176 1049920601 65802178 -1203066699 1508874936 389620612 -948535609 -928665865 2039251244 1468239709 -1300239160 -846629019 -1215150219 732575063 -1772258343 1541126398 -1284201147 -1350791711 -879410906 1543663069 -6002552 -796180597 1845485560 -408930609 1355166159 -13949588 1168202869 -1219449095 -853791986 -2118351392 -1573464495 -1688544016 1539827916
REM
CELL 1.54180   50.00000   50.00000   50.00000   90.00000   90.00000   90.00000
LATT -1
SFAC C  
C      1  0.5361960000000  0.4575530000000  0.5163220000000 1.0
C      1  0.5653090000000  0.5309530000000  0.5747430000000 1.0
C      1  0.4826920000000  0.4971550000000  0.5454070000000 1.0
C      1  0.4630180000000  0.4823050000000  0.5351920000000 1.0
C      1  0.4500870000000  0.4830410000000  0.4852680000000 1.0
C      1  0.5112250000000  0.4917040000000  0.4528710000000 1.0
C      1  0.4975680000000  0.5121370000000  0.4387490000000 1.0
C      1  0.4377040000000  0.5074870000000  0.4786680000000 1.0
C      1  0.4425650000000  0.5336660000000  0.4823610000000 1.0
C      1  0.4651300000000  0.5478540000000  0.4909880000000 1.0
C      1  0.5117080000000  0.4488700000000  0.4757220000000 1.0
C      1  0.5378010000000  0.4789760000000  0.5319520000000 1.0
C      1  0.5486900000000  0.5173850000000  0.5599480000000 1.0
C      1  0.4904210000000  0.5360900000000  0.4490770000000 1.0
C      1  0.4694710000000  0.4716950000000  0.4683430000000 1.0
C      1  0.5307780000000  0.5034220000000  0.5438130000000 1.0
C      1  0.4970640000000  0.4692350000000  0.4632540000000 1.0
C      1  0.5335170000000  0.5013160000000  0.4676770000000 1.0
C      1  0.5284940000000  0.4395700000000  0.4961900000000 1.0
C      1  0.4899770000000  0.5448180000000  0.4758130000000 1.0
C      1  0.5046660000000  0.5134960000000  0.5388280000000 1.0
C      1  0.4504940000000  0.4758890000000  0.5124930000000 1.0
C      1  0.5000250000000  0.5353270000000  0.5214670000000 1.0
C      1  0.5113630000000  0.5369940000000  0.4945350000000 1.0
C      1  0.5371300000000  0.4136500000000  0.4965210000000 1.0
C      1  0.5331220000000  0.5219090000000  0.4851760000000 1.0
C      1  0.4737890000000  0.5475020000000  0.5186210000000 1.0
END
