TITL C-599894-471-326 0.184212886935912 125000 -534.233741118899 0 0 88 (C1) n - 1
REM
REM in /home/nfs/bkarasulu/CARBON/AIRSS/Generating-Clusters/TERSOFF/Only-C1/FIRE-HFTN
REM
REM
REM
REM
REM
REM ./C.cell (11c1c37f851c82e70ff6c80c92926a4b)
REM AIRSS Version 0.9.1 bugfix July 2018 build 013d7b7c2542+ Fri, 06 Jul 2018 19:26:36 +0100
REM compiler GCC version 9.2.1 20190827 (Red Hat 9.2.1-1)
REM options -cpp -mtune=generic -march=x86-64 -g -O0 -fpre-include=/usr/include/finclude/math-vector-fortran.h
REM seed 618547679 -1596611981 1723728178 1894997788 1811579607 -530176980 1986884730 -645366644 -821238615 -1304854866 -2138018432 795535421 -1302209980 1818107800 -982276128 343304782 -1749317161 1571400734 -102322148 80064951 2059452097 821576598 477435654 -200468394 691591573 1573548385 -1091497724 -1605348585 906264301 1461985940 2131819820 2067212199 644553686
REM
CELL 1.54180   50.00000   50.00000   50.00000   90.00000   90.00000   90.00000
LATT -1
SFAC C  
C      1  0.5155140000000  0.5660770000000  0.5041580000000 1.0
C      1  0.3650380000000  0.5762030000000  0.5186040000000 1.0
C      1  0.3721330000000  0.5122900000000  0.4856980000000 1.0
C      1  0.5184370000000  0.4997320000000  0.5105020000000 1.0
C      1  0.3787070000000  0.5646960000000  0.4978450000000 1.0
C      1  0.4701240000000  0.5290360000000  0.5013660000000 1.0
C      1  0.4845380000000  0.5691540000000  0.4633580000000 1.0
C      1  0.5011380000000  0.5764900000000  0.5499840000000 1.0
C      1  0.4818950000000  0.4015920000000  0.5106570000000 1.0
C      1  0.5606280000000  0.4896560000000  0.4513250000000 1.0
C      1  0.5514130000000  0.5349510000000  0.4524130000000 1.0
C      1  0.4628800000000  0.4876320000000  0.5807670000000 1.0
C      1  0.5026940000000  0.4475690000000  0.5502690000000 1.0
C      1  0.4137930000000  0.6005990000000  0.4744270000000 1.0
C      1  0.4064890000000  0.4765280000000  0.4748940000000 1.0
C      1  0.4876530000000  0.5350790000000  0.4269660000000 1.0
C      1  0.5053370000000  0.4350510000000  0.4855680000000 1.0
C      1  0.4416490000000  0.5986020000000  0.4721190000000 1.0
C      1  0.5182870000000  0.4681080000000  0.4203160000000 1.0
C      1  0.5678950000000  0.4630770000000  0.5626650000000 1.0
C      1  0.5782960000000  0.4734540000000  0.4368270000000 1.0
C      1  0.5688240000000  0.4999060000000  0.5078830000000 1.0
C      1  0.4802870000000  0.4603300000000  0.4521240000000 1.0
C      1  0.3987810000000  0.5792470000000  0.4847240000000 1.0
C      1  0.5193680000000  0.5061800000000  0.6150460000000 1.0
C      1  0.5432640000000  0.4957000000000  0.4986360000000 1.0
C      1  0.5759250000000  0.5103140000000  0.5817060000000 1.0
C      1  0.4655690000000  0.5132160000000  0.5720930000000 1.0
C      1  0.6119550000000  0.5030110000000  0.4943960000000 1.0
C      1  0.4759990000000  0.4729260000000  0.4997700000000 1.0
C      1  0.5027290000000  0.4210480000000  0.5103050000000 1.0
C      1  0.5187930000000  0.4328150000000  0.5315990000000 1.0
C      1  0.5323230000000  0.5689530000000  0.5899820000000 1.0
C      1  0.5366350000000  0.4318980000000  0.4471970000000 1.0
C      1  0.5421120000000  0.4851230000000  0.4725770000000 1.0
C      1  0.5426340000000  0.5664980000000  0.5123630000000 1.0
C      1  0.4326890000000  0.4862010000000  0.4716100000000 1.0
C      1  0.4869880000000  0.4277330000000  0.4197040000000 1.0
C      1  0.5133150000000  0.4923970000000  0.5649640000000 1.0
C      1  0.6094250000000  0.4801730000000  0.5102200000000 1.0
C      1  0.4798630000000  0.4062440000000  0.4346710000000 1.0
C      1  0.4481780000000  0.5111420000000  0.5076830000000 1.0
C      1  0.5742920000000  0.5324830000000  0.4705340000000 1.0
C      1  0.5696410000000  0.5368070000000  0.5751420000000 1.0
C      1  0.4355500000000  0.5080210000000  0.4532250000000 1.0
C      1  0.4853620000000  0.4545120000000  0.4794370000000 1.0
C      1  0.5662870000000  0.4580360000000  0.5349830000000 1.0
C      1  0.5240380000000  0.4983640000000  0.4204070000000 1.0
C      1  0.5031470000000  0.5168490000000  0.4147960000000 1.0
C      1  0.5466810000000  0.5104930000000  0.4359310000000 1.0
C      1  0.5026840000000  0.4753870000000  0.5454740000000 1.0
C      1  0.5536700000000  0.5529560000000  0.5917460000000 1.0
C      1  0.5315610000000  0.5542210000000  0.4591270000000 1.0
C      1  0.5671240000000  0.4557800000000  0.4195260000000 1.0
C      1  0.5736510000000  0.4839080000000  0.5785040000000 1.0
C      1  0.4967430000000  0.5623400000000  0.5260420000000 1.0
C      1  0.4742980000000  0.3917060000000  0.4851670000000 1.0
C      1  0.3832640000000  0.4886220000000  0.4805450000000 1.0
C      1  0.4964450000000  0.4837220000000  0.5188750000000 1.0
C      1  0.4611310000000  0.5286560000000  0.5488470000000 1.0
C      1  0.4660460000000  0.4608450000000  0.5785330000000 1.0
C      1  0.4011150000000  0.6235620000000  0.4665690000000 1.0
C      1  0.5132450000000  0.5779950000000  0.5736780000000 1.0
C      1  0.4389730000000  0.5175120000000  0.5334240000000 1.0
C      1  0.5734970000000  0.5466270000000  0.5490590000000 1.0
C      1  0.4926150000000  0.4548240000000  0.4271080000000 1.0
C      1  0.5108110000000  0.5657690000000  0.4754410000000 1.0
C      1  0.5155190000000  0.4859870000000  0.4644250000000 1.0
C      1  0.4452950000000  0.5328770000000  0.4482340000000 1.0
C      1  0.5512800000000  0.4331500000000  0.4953690000000 1.0
C      1  0.4663280000000  0.5899170000000  0.4674520000000 1.0
C      1  0.4778160000000  0.5412650000000  0.5268110000000 1.0
C      1  0.5465910000000  0.4401330000000  0.5230640000000 1.0
C      1  0.3724950000000  0.5385210000000  0.4899890000000 1.0
C      1  0.5821970000000  0.4764130000000  0.5194030000000 1.0
C      1  0.4673490000000  0.4151680000000  0.5570850000000 1.0
C      1  0.4814890000000  0.5253390000000  0.4758060000000 1.0
C      1  0.5316450000000  0.4324290000000  0.4747070000000 1.0
C      1  0.5183260000000  0.5014670000000  0.5894120000000 1.0
C      1  0.5628660000000  0.5587460000000  0.5278360000000 1.0
C      1  0.5864880000000  0.5164920000000  0.4907700000000 1.0
C      1  0.4748620000000  0.3944040000000  0.4583480000000 1.0
C      1  0.4679690000000  0.3996540000000  0.5350320000000 1.0
C      1  0.4959300000000  0.5033190000000  0.4676820000000 1.0
C      1  0.4504900000000  0.4864610000000  0.4943340000000 1.0
C      1  0.4791710000000  0.4395060000000  0.5648320000000 1.0
C      1  0.4736560000000  0.5430720000000  0.4525880000000 1.0
C      1  0.5401740000000  0.4490500000000  0.4247190000000 1.0
END
