TITL C-599894-471-418 21.5424439387211 125000 -192.707487520121 0 0 34 (C1) n - 1
REM
REM in /home/nfs/bkarasulu/CARBON/AIRSS/Generating-Clusters/TERSOFF/Only-C1/FIRE-HFTN
REM
REM
REM
REM
REM
REM ./C.cell (11c1c37f851c82e70ff6c80c92926a4b)
REM AIRSS Version 0.9.1 bugfix July 2018 build 013d7b7c2542+ Fri, 06 Jul 2018 19:26:36 +0100
REM compiler GCC version 9.2.1 20190827 (Red Hat 9.2.1-1)
REM options -cpp -mtune=generic -march=x86-64 -g -O0 -fpre-include=/usr/include/finclude/math-vector-fortran.h
REM seed -1749760399 -558532535 -661415001 109748926 2025317097 -672801595 470834142 -108991718 -1701654459 1727857014 -1357278514 42306362 -1635407400 -1749187485 -510798880 -1471251021 -17550837 957245542 1759093654 1043294579 141188829 -1737499749 746435333 -249045449 -1160837317 973873768 -1372875999 -598779163 203816171 1011958188 -141657598 -905833071 -1557912114
REM
CELL 1.54180   50.00000   50.00000   50.00000   90.00000   90.00000   90.00000
LATT -1
SFAC C  
C      1  0.5656620000000  0.5238730000000  0.5537680000000 1.0
C      1  0.5315930000000  0.5940490000000  0.4912710000000 1.0
C      1  0.5489940000000  0.5495840000000  0.4838240000000 1.0
C      1  0.5015650000000  0.5537580000000  0.4836910000000 1.0
C      1  0.4321110000000  0.5438460000000  0.4529720000000 1.0
C      1  0.4443350000000  0.4537700000000  0.4808090000000 1.0
C      1  0.5316730000000  0.4643470000000  0.5081700000000 1.0
C      1  0.4615010000000  0.5137250000000  0.4307200000000 1.0
C      1  0.4708550000000  0.4501510000000  0.5220090000000 1.0
C      1  0.4457830000000  0.4266680000000  0.4409800000000 1.0
C      1  0.4023000000000  0.4736820000000  0.4942170000000 1.0
C      1  0.5439380000000  0.4798990000000  0.5567800000000 1.0
C      1  0.4909310000000  0.4689360000000  0.4822490000000 1.0
C      1  0.5000080000000  0.5270920000000  0.4896610000000 1.0
C      1  0.4821390000000  0.4484200000000  0.5460940000000 1.0
C      1  0.5164300000000  0.4786940000000  0.4882580000000 1.0
C      1  0.5619520000000  0.5510960000000  0.5100670000000 1.0
C      1  0.4311240000000  0.4972410000000  0.4637980000000 1.0
C      1  0.5514700000000  0.5984410000000  0.5094430000000 1.0
C      1  0.5438340000000  0.5233150000000  0.4733670000000 1.0
C      1  0.5594970000000  0.5011150000000  0.5675490000000 1.0
C      1  0.5236060000000  0.5082060000000  0.4903470000000 1.0
C      1  0.4416610000000  0.5185010000000  0.4489770000000 1.0
C      1  0.5566450000000  0.5291550000000  0.5273730000000 1.0
C      1  0.5394520000000  0.5084100000000  0.5174250000000 1.0
C      1  0.5250470000000  0.4638710000000  0.5698320000000 1.0
C      1  0.5411590000000  0.4815450000000  0.5286230000000 1.0
C      1  0.5013620000000  0.4527410000000  0.5641060000000 1.0
C      1  0.4273860000000  0.4086230000000  0.4810900000000 1.0
C      1  0.5261620000000  0.5678970000000  0.4817750000000 1.0
C      1  0.4390690000000  0.4292680000000  0.4674050000000 1.0
C      1  0.5666750000000  0.5777680000000  0.5187270000000 1.0
C      1  0.4686270000000  0.4573280000000  0.4949080000000 1.0
C      1  0.4254520000000  0.4749830000000  0.4797150000000 1.0
END
