TITL C-599894-471-1267 1130.4799406793 125000 -812.593822209128 0 0 135 (C1) n - 1
REM
REM in /home/nfs/bkarasulu/CARBON/AIRSS/Generating-Clusters/TERSOFF/Only-C1/FIRE-HFTN
REM
REM
REM
REM
REM
REM ./C.cell (11c1c37f851c82e70ff6c80c92926a4b)
REM AIRSS Version 0.9.1 bugfix July 2018 build 013d7b7c2542+ Fri, 06 Jul 2018 19:26:36 +0100
REM compiler GCC version 9.2.1 20190827 (Red Hat 9.2.1-1)
REM options -cpp -mtune=generic -march=x86-64 -g -O0 -fpre-include=/usr/include/finclude/math-vector-fortran.h
REM seed -119671995 1348174747 -999274636 -138768807 -1448572453 -383280743 1123287679 1563430040 -630730718 -331607230 926676998 -145950795 -1784796021 567788328 961998569 732153236 -148274582 -712570365 -2083373799 1042202300 -201219480 -308929991 -570728109 -995377802 -1310052946 -1997082479 1075933663 -69106571 -505298976 -613335522 -104597445 -2124523281 -42991243
REM
CELL 1.54180   50.00000   50.00000   50.00000   90.00000   90.00000   90.00000
LATT -1
SFAC C  
C      1  0.4535420000000  0.5473700000000  0.4265880000000 1.0
C      1  0.6084330000000  0.4880350000000  0.5097610000000 1.0
C      1  0.5744580000000  0.5880640000000  0.5463010000000 1.0
C      1  0.3872880000000  0.4846930000000  0.5170180000000 1.0
C      1  0.5225130000000  0.4697700000000  0.6066100000000 1.0
C      1  0.5209020000000  0.5028070000000  0.3768130000000 1.0
C      1  0.5378080000000  0.5072290000000  0.3970690000000 1.0
C      1  0.4863700000000  0.4086750000000  0.5787770000000 1.0
C      1  0.5010850000000  0.4566720000000  0.5663920000000 1.0
C      1  0.4928010000000  0.5868490000000  0.4996630000000 1.0
C      1  0.4695050000000  0.5049310000000  0.5256670000000 1.0
C      1  0.4113860000000  0.4915680000000  0.4450580000000 1.0
C      1  0.4469660000000  0.5884540000000  0.4957250000000 1.0
C      1  0.5445240000000  0.5621140000000  0.5147150000000 1.0
C      1  0.5786540000000  0.4784720000000  0.5553010000000 1.0
C      1  0.4812030000000  0.4266730000000  0.4017900000000 1.0
C      1  0.5035920000000  0.4148330000000  0.3885560000000 1.0
C      1  0.5025620000000  0.4218790000000  0.5963630000000 1.0
C      1  0.4084480000000  0.4767320000000  0.5506940000000 1.0
C      1  0.5875280000000  0.6368410000000  0.4704660000000 1.0
C      1  0.5446930000000  0.4827430000000  0.5177570000000 1.0
C      1  0.5853720000000  0.4752280000000  0.4296180000000 1.0
C      1  0.5647910000000  0.5701550000000  0.5662270000000 1.0
C      1  0.5106540000000  0.4962370000000  0.4816400000000 1.0
C      1  0.4077130000000  0.5225460000000  0.4855250000000 1.0
C      1  0.5849250000000  0.4449620000000  0.5184090000000 1.0
C      1  0.5385180000000  0.4665140000000  0.5390610000000 1.0
C      1  0.5032880000000  0.4705540000000  0.4727350000000 1.0
C      1  0.4829460000000  0.5230400000000  0.5108920000000 1.0
C      1  0.5040090000000  0.4527030000000  0.4947130000000 1.0
C      1  0.4235380000000  0.4651630000000  0.5310170000000 1.0
C      1  0.4580800000000  0.5633000000000  0.4504620000000 1.0
C      1  0.5820960000000  0.4895720000000  0.4530910000000 1.0
C      1  0.4503980000000  0.4992900000000  0.4712810000000 1.0
C      1  0.4544060000000  0.4577790000000  0.6042940000000 1.0
C      1  0.5632940000000  0.4268010000000  0.5127330000000 1.0
C      1  0.4296740000000  0.4997270000000  0.4244570000000 1.0
C      1  0.4806350000000  0.5708090000000  0.5216960000000 1.0
C      1  0.5881170000000  0.4608280000000  0.4080720000000 1.0
C      1  0.5530770000000  0.5660360000000  0.4239000000000 1.0
C      1  0.4331570000000  0.4847310000000  0.5134130000000 1.0
C      1  0.5116770000000  0.5717680000000  0.4849950000000 1.0
C      1  0.4015920000000  0.4661640000000  0.4527620000000 1.0
C      1  0.4535350000000  0.4843970000000  0.4246930000000 1.0
C      1  0.4822050000000  0.4769430000000  0.5610290000000 1.0
C      1  0.4753880000000  0.4051390000000  0.4772720000000 1.0
C      1  0.4949200000000  0.4589630000000  0.4473300000000 1.0
C      1  0.4737140000000  0.5134640000000  0.4582070000000 1.0
C      1  0.6116150000000  0.5036460000000  0.4868860000000 1.0
C      1  0.5632380000000  0.4838610000000  0.4730600000000 1.0
C      1  0.4698070000000  0.5463490000000  0.5039170000000 1.0
C      1  0.4877240000000  0.5604520000000  0.5701150000000 1.0
C      1  0.5661320000000  0.6220070000000  0.4691730000000 1.0
C      1  0.4490880000000  0.4338090000000  0.5570380000000 1.0
C      1  0.5000150000000  0.5640670000000  0.5438850000000 1.0
C      1  0.5148640000000  0.5092010000000  0.5520110000000 1.0
C      1  0.4955140000000  0.4610250000000  0.5198180000000 1.0
C      1  0.4530950000000  0.5266910000000  0.5816810000000 1.0
C      1  0.5129940000000  0.4967190000000  0.6110490000000 1.0
C      1  0.5477700000000  0.4273630000000  0.4887170000000 1.0
C      1  0.4348390000000  0.4492660000000  0.4850960000000 1.0
C      1  0.5632020000000  0.5831030000000  0.5206230000000 1.0
C      1  0.5002500000000  0.5403080000000  0.5885720000000 1.0
C      1  0.5757830000000  0.5534130000000  0.4335140000000 1.0
C      1  0.4808600000000  0.5194040000000  0.5839370000000 1.0
C      1  0.5267230000000  0.5265420000000  0.4455160000000 1.0
C      1  0.5679620000000  0.5221250000000  0.5044760000000 1.0
C      1  0.4409940000000  0.4523490000000  0.5790840000000 1.0
C      1  0.5279000000000  0.5562330000000  0.5388370000000 1.0
C      1  0.5062120000000  0.5202050000000  0.4962550000000 1.0
C      1  0.5539410000000  0.4290520000000  0.5589550000000 1.0
C      1  0.4314600000000  0.5348020000000  0.5335690000000 1.0
C      1  0.4400570000000  0.5011020000000  0.5898580000000 1.0
C      1  0.4726260000000  0.5432610000000  0.4055410000000 1.0
C      1  0.5452880000000  0.5497150000000  0.5619070000000 1.0
C      1  0.5442010000000  0.4169260000000  0.5340900000000 1.0
C      1  0.5278150000000  0.4235310000000  0.4281440000000 1.0
C      1  0.4850290000000  0.4105370000000  0.5280240000000 1.0
C      1  0.4461100000000  0.5588850000000  0.4833530000000 1.0
C      1  0.5106250000000  0.4486110000000  0.5915680000000 1.0
C      1  0.5470020000000  0.5234400000000  0.5762120000000 1.0
C      1  0.4586190000000  0.4861100000000  0.6098270000000 1.0
C      1  0.4219220000000  0.5067030000000  0.4670350000000 1.0
C      1  0.4844200000000  0.4955660000000  0.6194920000000 1.0
C      1  0.4463940000000  0.4764180000000  0.4888280000000 1.0
C      1  0.5361240000000  0.5137150000000  0.4227890000000 1.0
C      1  0.5925690000000  0.5364140000000  0.4475100000000 1.0
C      1  0.4187470000000  0.5482380000000  0.4863550000000 1.0
C      1  0.4251610000000  0.4787210000000  0.5744960000000 1.0
C      1  0.5709980000000  0.5065120000000  0.5653660000000 1.0
C      1  0.5239700000000  0.5883160000000  0.4658030000000 1.0
C      1  0.4627030000000  0.4043110000000  0.4509420000000 1.0
C      1  0.4725110000000  0.4156630000000  0.5547480000000 1.0
C      1  0.4927790000000  0.5008560000000  0.3779980000000 1.0
C      1  0.5891560000000  0.5238310000000  0.5506490000000 1.0
C      1  0.4519710000000  0.5815590000000  0.5260630000000 1.0
C      1  0.5453370000000  0.5374980000000  0.4658330000000 1.0
C      1  0.4778660000000  0.4168990000000  0.4294330000000 1.0
C      1  0.4989760000000  0.5305380000000  0.4541150000000 1.0
C      1  0.4568910000000  0.5540470000000  0.5689400000000 1.0
C      1  0.5581780000000  0.4577680000000  0.5581100000000 1.0
C      1  0.4364120000000  0.4399330000000  0.5319310000000 1.0
C      1  0.4061480000000  0.4534950000000  0.4782080000000 1.0
C      1  0.4722850000000  0.5976040000000  0.4813020000000 1.0
C      1  0.3910960000000  0.5098700000000  0.5052380000000 1.0
C      1  0.5866490000000  0.5288630000000  0.5243380000000 1.0
C      1  0.5049130000000  0.5441660000000  0.4796060000000 1.0
C      1  0.4928250000000  0.5018350000000  0.5666300000000 1.0
C      1  0.5070200000000  0.5856630000000  0.4419220000000 1.0
C      1  0.3886810000000  0.4621360000000  0.4999330000000 1.0
C      1  0.5032800000000  0.4288530000000  0.4443740000000 1.0
C      1  0.5024810000000  0.4137740000000  0.4709460000000 1.0
C      1  0.4797110000000  0.4552520000000  0.4001180000000 1.0
C      1  0.4415790000000  0.5598350000000  0.5445500000000 1.0
C      1  0.5151530000000  0.4129710000000  0.5219530000000 1.0
C      1  0.4440490000000  0.4304750000000  0.5057730000000 1.0
C      1  0.5137980000000  0.4546920000000  0.5411990000000 1.0
C      1  0.5991140000000  0.5114660000000  0.4612480000000 1.0
C      1  0.4763300000000  0.4678280000000  0.4260650000000 1.0
C      1  0.5589610000000  0.4958520000000  0.4982070000000 1.0
C      1  0.5241540000000  0.5220040000000  0.5963070000000 1.0
C      1  0.4665520000000  0.4123100000000  0.5038610000000 1.0
C      1  0.5925490000000  0.6077690000000  0.5512420000000 1.0
C      1  0.4324710000000  0.5283030000000  0.4229640000000 1.0
C      1  0.5450270000000  0.6060020000000  0.4686090000000 1.0
C      1  0.4797100000000  0.5242390000000  0.3876280000000 1.0
C      1  0.4773370000000  0.4789080000000  0.5324730000000 1.0
C      1  0.5272700000000  0.4149780000000  0.4021880000000 1.0
C      1  0.4414030000000  0.5092500000000  0.5255130000000 1.0
C      1  0.5938100000000  0.4711990000000  0.5290900000000 1.0
C      1  0.5180070000000  0.4259390000000  0.4927510000000 1.0
C      1  0.5268710000000  0.5755100000000  0.4226570000000 1.0
C      1  0.4825230000000  0.4743220000000  0.3794120000000 1.0
C      1  0.5521640000000  0.5429910000000  0.4936430000000 1.0
C      1  0.4776650000000  0.5858080000000  0.4527020000000 1.0
END
