TITL C-599896-8500-1124 0.00503172738957433 125000 -1164.02218494426 0 0 187 (C1) n - 1
REM
REM in /home/nfs/bkarasulu/CARBON/AIRSS/Generating-Clusters/TERSOFF/Only-C1/FIRE-HFTN
REM
REM
REM
REM
REM
REM ./C.cell (11c1c37f851c82e70ff6c80c92926a4b)
REM AIRSS Version 0.9.1 bugfix July 2018 build 013d7b7c2542+ Fri, 06 Jul 2018 19:26:36 +0100
REM compiler GCC version 9.2.1 20190827 (Red Hat 9.2.1-1)
REM options -cpp -mtune=generic -march=x86-64 -g -O0 -fpre-include=/usr/include/finclude/math-vector-fortran.h
REM seed -1703631849 -1034359710 556780317 -830142343 1448475082 -1974009565 -623559484 454318505 1110470647 1731154338 72369210 -188396854 995701510 690199200 1136775584 -2068198724 1635706291 1400732310 467392334 1809043653 -1299291647 -1298070431 74958728 873942903 554438632 -2064215186 -861907955 -432410699 -710019022 520905459 656682486 1008289215 -1936526222
REM
CELL 1.54180   50.00000   50.00000   50.00000   90.00000   90.00000   90.00000
LATT -1
SFAC C  
C      1  0.5106820000000  0.3784100000000  0.5776960000000 1.0
C      1  0.5344230000000  0.4190320000000  0.5575020000000 1.0
C      1  0.4605050000000  0.5748910000000  0.5024420000000 1.0
C      1  0.4467770000000  0.5471000000000  0.4181130000000 1.0
C      1  0.4782220000000  0.5657750000000  0.5277270000000 1.0
C      1  0.5077070000000  0.5711440000000  0.4475360000000 1.0
C      1  0.5244370000000  0.4149250000000  0.4192300000000 1.0
C      1  0.4644960000000  0.4819750000000  0.3733900000000 1.0
C      1  0.5671590000000  0.4672860000000  0.5242980000000 1.0
C      1  0.5001060000000  0.5870460000000  0.4249270000000 1.0
C      1  0.5606760000000  0.5134050000000  0.5121250000000 1.0
C      1  0.4481130000000  0.6054900000000  0.4643490000000 1.0
C      1  0.4045420000000  0.5438290000000  0.5677250000000 1.0
C      1  0.4253610000000  0.3379530000000  0.4523840000000 1.0
C      1  0.5021640000000  0.5347510000000  0.6058330000000 1.0
C      1  0.5927260000000  0.5804620000000  0.4883000000000 1.0
C      1  0.4706490000000  0.5379600000000  0.4311320000000 1.0
C      1  0.6142710000000  0.4768020000000  0.5163450000000 1.0
C      1  0.4902850000000  0.4765720000000  0.5584420000000 1.0
C      1  0.5637910000000  0.4841930000000  0.3908190000000 1.0
C      1  0.5125250000000  0.4042510000000  0.4449690000000 1.0
C      1  0.3971370000000  0.5011210000000  0.5487340000000 1.0
C      1  0.5962520000000  0.4793060000000  0.4356910000000 1.0
C      1  0.5087430000000  0.5374910000000  0.5579340000000 1.0
C      1  0.4010180000000  0.4960160000000  0.4451800000000 1.0
C      1  0.4004830000000  0.4847710000000  0.5241430000000 1.0
C      1  0.5193960000000  0.6497810000000  0.4706480000000 1.0
C      1  0.5208960000000  0.4811460000000  0.5226230000000 1.0
C      1  0.4533630000000  0.4762790000000  0.6170990000000 1.0
C      1  0.5222690000000  0.6740190000000  0.4615130000000 1.0
C      1  0.5345510000000  0.5677040000000  0.5856770000000 1.0
C      1  0.4334820000000  0.4086170000000  0.4351210000000 1.0
C      1  0.6225320000000  0.5567700000000  0.4602490000000 1.0
C      1  0.5154310000000  0.5950050000000  0.5431940000000 1.0
C      1  0.4247770000000  0.4712430000000  0.5771200000000 1.0
C      1  0.5173500000000  0.5354440000000  0.5105970000000 1.0
C      1  0.4345490000000  0.5862740000000  0.5177890000000 1.0
C      1  0.5463670000000  0.5838510000000  0.4936820000000 1.0
C      1  0.4741540000000  0.5840290000000  0.5729500000000 1.0
C      1  0.6172530000000  0.5199980000000  0.5409950000000 1.0
C      1  0.4862870000000  0.3697600000000  0.5862910000000 1.0
C      1  0.5637120000000  0.4743200000000  0.4751740000000 1.0
C      1  0.6171420000000  0.5054220000000  0.5153400000000 1.0
C      1  0.4682660000000  0.4821550000000  0.5403620000000 1.0
C      1  0.5007430000000  0.5454510000000  0.5309890000000 1.0
C      1  0.4874950000000  0.4250110000000  0.5513540000000 1.0
C      1  0.5806600000000  0.5659480000000  0.5648040000000 1.0
C      1  0.5456040000000  0.5078840000000  0.4514420000000 1.0
C      1  0.4381480000000  0.5378810000000  0.5307560000000 1.0
C      1  0.5992420000000  0.5747400000000  0.5432470000000 1.0
C      1  0.5306000000000  0.4125120000000  0.5273320000000 1.0
C      1  0.5495880000000  0.4413500000000  0.5686590000000 1.0
C      1  0.6351820000000  0.5417740000000  0.5439510000000 1.0
C      1  0.4881950000000  0.5877840000000  0.5473150000000 1.0
C      1  0.4277030000000  0.5619900000000  0.4667580000000 1.0
C      1  0.5789770000000  0.5660310000000  0.4392950000000 1.0
C      1  0.5178030000000  0.4076940000000  0.4993770000000 1.0
C      1  0.4077570000000  0.5240110000000  0.4401000000000 1.0
C      1  0.4971340000000  0.4484430000000  0.5591200000000 1.0
C      1  0.4625090000000  0.4221090000000  0.5385690000000 1.0
C      1  0.5698560000000  0.4993250000000  0.4890470000000 1.0
C      1  0.5492140000000  0.5091080000000  0.6107410000000 1.0
C      1  0.5972760000000  0.5700430000000  0.4616530000000 1.0
C      1  0.5938730000000  0.5816160000000  0.5156080000000 1.0
C      1  0.4082900000000  0.5706560000000  0.5594170000000 1.0
C      1  0.4090380000000  0.4815520000000  0.4213910000000 1.0
C      1  0.4455200000000  0.4534290000000  0.4506860000000 1.0
C      1  0.4388560000000  0.4822680000000  0.3845910000000 1.0
C      1  0.4505130000000  0.5499750000000  0.4836930000000 1.0
C      1  0.4067140000000  0.4829090000000  0.4706110000000 1.0
C      1  0.5228280000000  0.5130620000000  0.5587420000000 1.0
C      1  0.5120530000000  0.4616290000000  0.4714340000000 1.0
C      1  0.4884880000000  0.4026840000000  0.5006610000000 1.0
C      1  0.5487410000000  0.5134720000000  0.5677260000000 1.0
C      1  0.4163360000000  0.4981070000000  0.5720390000000 1.0
C      1  0.4403500000000  0.6312570000000  0.4597350000000 1.0
C      1  0.5139860000000  0.4895300000000  0.5478860000000 1.0
C      1  0.6458680000000  0.4633700000000  0.4219550000000 1.0
C      1  0.4450800000000  0.3517120000000  0.4640600000000 1.0
C      1  0.5608590000000  0.5596590000000  0.4170870000000 1.0
C      1  0.4705150000000  0.5068410000000  0.4627730000000 1.0
C      1  0.5084230000000  0.4397020000000  0.4107430000000 1.0
C      1  0.5379680000000  0.4855400000000  0.4336770000000 1.0
C      1  0.3923890000000  0.4891870000000  0.4959350000000 1.0
C      1  0.5726510000000  0.5047620000000  0.5569110000000 1.0
C      1  0.5482660000000  0.5679480000000  0.5167870000000 1.0
C      1  0.5220610000000  0.5930510000000  0.4081340000000 1.0
C      1  0.4834780000000  0.4073120000000  0.4394340000000 1.0
C      1  0.4068770000000  0.5450740000000  0.4585120000000 1.0
C      1  0.4757870000000  0.6183580000000  0.6142890000000 1.0
C      1  0.4727200000000  0.5886300000000  0.4175770000000 1.0
C      1  0.5036220000000  0.4916060000000  0.5020880000000 1.0
C      1  0.5031750000000  0.4914880000000  0.6253360000000 1.0
C      1  0.4758080000000  0.4952150000000  0.6115290000000 1.0
C      1  0.4471100000000  0.4835000000000  0.5231280000000 1.0
C      1  0.4673840000000  0.3869460000000  0.5958490000000 1.0
C      1  0.3667840000000  0.5358300000000  0.5330360000000 1.0
C      1  0.4592920000000  0.5589100000000  0.5728370000000 1.0
C      1  0.5793720000000  0.4633670000000  0.4536060000000 1.0
C      1  0.4589400000000  0.3758510000000  0.4662920000000 1.0
C      1  0.4566660000000  0.5522810000000  0.5451760000000 1.0
C      1  0.5372250000000  0.6059040000000  0.4820680000000 1.0
C      1  0.5677040000000  0.4946700000000  0.5323490000000 1.0
C      1  0.4067690000000  0.3442940000000  0.4340640000000 1.0
C      1  0.5698170000000  0.5298290000000  0.6025560000000 1.0
C      1  0.5681060000000  0.4580150000000  0.3975950000000 1.0
C      1  0.5100730000000  0.4402990000000  0.6166370000000 1.0
C      1  0.4413470000000  0.4590010000000  0.5977450000000 1.0
C      1  0.4512390000000  0.5370500000000  0.5900600000000 1.0
C      1  0.4833780000000  0.4862660000000  0.5841200000000 1.0
C      1  0.5884910000000  0.5147790000000  0.4747870000000 1.0
C      1  0.5504730000000  0.4138940000000  0.4088720000000 1.0
C      1  0.4882440000000  0.4978060000000  0.4423860000000 1.0
C      1  0.5024650000000  0.4482130000000  0.3829840000000 1.0
C      1  0.4865350000000  0.4667540000000  0.3716930000000 1.0
C      1  0.4370000000000  0.5834910000000  0.4500360000000 1.0
C      1  0.4744640000000  0.6021630000000  0.5939180000000 1.0
C      1  0.4921790000000  0.4678890000000  0.4912850000000 1.0
C      1  0.5673370000000  0.4355360000000  0.4155950000000 1.0
C      1  0.4258070000000  0.5001960000000  0.4037140000000 1.0
C      1  0.4150680000000  0.4533250000000  0.4149220000000 1.0
C      1  0.5119370000000  0.5166050000000  0.4905190000000 1.0
C      1  0.6264220000000  0.5671300000000  0.5474350000000 1.0
C      1  0.4730990000000  0.5257570000000  0.6061930000000 1.0
C      1  0.5158660000000  0.6237390000000  0.4798230000000 1.0
C      1  0.5179290000000  0.4060390000000  0.5785230000000 1.0
C      1  0.4821070000000  0.4324850000000  0.4252970000000 1.0
C      1  0.4342010000000  0.4729340000000  0.4680860000000 1.0
C      1  0.5882080000000  0.4478690000000  0.5959310000000 1.0
C      1  0.5548410000000  0.4814480000000  0.6019840000000 1.0
C      1  0.5481940000000  0.5329260000000  0.4101550000000 1.0
C      1  0.4906770000000  0.6139840000000  0.4869690000000 1.0
C      1  0.5702690000000  0.4378750000000  0.4444670000000 1.0
C      1  0.4248300000000  0.5255720000000  0.5815760000000 1.0
C      1  0.4419230000000  0.5292840000000  0.5046590000000 1.0
C      1  0.5008130000000  0.4214640000000  0.5978050000000 1.0
C      1  0.4177090000000  0.5851970000000  0.5387300000000 1.0
C      1  0.4237310000000  0.4688440000000  0.5290400000000 1.0
C      1  0.5864530000000  0.5409320000000  0.5796390000000 1.0
C      1  0.3598300000000  0.5262410000000  0.5088750000000 1.0
C      1  0.4254610000000  0.4539770000000  0.5530980000000 1.0
C      1  0.6307950000000  0.5363370000000  0.4760320000000 1.0
C      1  0.5852060000000  0.5047780000000  0.4272670000000 1.0
C      1  0.4470020000000  0.5019900000000  0.5023980000000 1.0
C      1  0.5937980000000  0.4588910000000  0.5192800000000 1.0
C      1  0.5391470000000  0.4616540000000  0.4834090000000 1.0
C      1  0.4515950000000  0.4332670000000  0.5867970000000 1.0
C      1  0.5255510000000  0.5232590000000  0.4657770000000 1.0
C      1  0.4267610000000  0.4559880000000  0.3885940000000 1.0
C      1  0.5108240000000  0.4644100000000  0.6284050000000 1.0
C      1  0.4284610000000  0.4371700000000  0.4345320000000 1.0
C      1  0.4665590000000  0.5352180000000  0.4607050000000 1.0
C      1  0.4260580000000  0.5267170000000  0.4164980000000 1.0
C      1  0.3698670000000  0.5064620000000  0.4936570000000 1.0
C      1  0.5408620000000  0.4632460000000  0.5127910000000 1.0
C      1  0.4718410000000  0.4152140000000  0.5966360000000 1.0
C      1  0.5632400000000  0.4572290000000  0.5886020000000 1.0
C      1  0.5961700000000  0.5197730000000  0.5613290000000 1.0
C      1  0.4724700000000  0.4536700000000  0.4415430000000 1.0
C      1  0.4763040000000  0.3808740000000  0.4878500000000 1.0
C      1  0.4025630000000  0.3678430000000  0.4218580000000 1.0
C      1  0.5121270000000  0.5503190000000  0.5838330000000 1.0
C      1  0.4141500000000  0.3918720000000  0.4233650000000 1.0
C      1  0.4927470000000  0.5194630000000  0.4226380000000 1.0
C      1  0.5551110000000  0.4204060000000  0.4625340000000 1.0
C      1  0.5741680000000  0.5175840000000  0.4499750000000 1.0
C      1  0.5406890000000  0.5816960000000  0.5409860000000 1.0
C      1  0.4477220000000  0.5760060000000  0.4241640000000 1.0
C      1  0.4523840000000  0.4921830000000  0.4772750000000 1.0
C      1  0.5459770000000  0.5389510000000  0.5141480000000 1.0
C      1  0.5465790000000  0.5818960000000  0.4060390000000 1.0
C      1  0.5206420000000  0.5140900000000  0.6176330000000 1.0
C      1  0.3867320000000  0.5279230000000  0.5509590000000 1.0
C      1  0.4579990000000  0.3964130000000  0.4462850000000 1.0
C      1  0.6134210000000  0.5182780000000  0.4889530000000 1.0
C      1  0.4427500000000  0.4312530000000  0.5576650000000 1.0
C      1  0.5288900000000  0.4091390000000  0.4699890000000 1.0
C      1  0.5190940000000  0.4652150000000  0.4257190000000 1.0
C      1  0.4703930000000  0.4229800000000  0.5107130000000 1.0
C      1  0.5191880000000  0.5455050000000  0.4483200000000 1.0
C      1  0.5195180000000  0.5319440000000  0.4212800000000 1.0
C      1  0.5667650000000  0.5090810000000  0.4048720000000 1.0
C      1  0.4741160000000  0.4483220000000  0.4991480000000 1.0
C      1  0.4675780000000  0.5986790000000  0.4845320000000 1.0
C      1  0.6219390000000  0.4712600000000  0.4285950000000 1.0
C      1  0.5533810000000  0.5746610000000  0.5654540000000 1.0
C      1  0.4972480000000  0.4700670000000  0.4458940000000 1.0
END
