TITL C-599892-9790-45 116.678332180073 125000 -1071.94392251649 0 0 174 (C1) n - 1
REM
REM in /home/nfs/bkarasulu/CARBON/AIRSS/Generating-Clusters/TERSOFF/Only-C1/FIRE-HFTN
REM
REM
REM
REM
REM
REM ./C.cell (11c1c37f851c82e70ff6c80c92926a4b)
REM AIRSS Version 0.9.1 bugfix July 2018 build 013d7b7c2542+ Fri, 06 Jul 2018 19:26:36 +0100
REM compiler GCC version 9.2.1 20190827 (Red Hat 9.2.1-1)
REM options -cpp -mtune=generic -march=x86-64 -g -O0 -fpre-include=/usr/include/finclude/math-vector-fortran.h
REM seed 314479942 -1114314107 663289955 1271903336 -222906361 -187763395 811293929 1655696807 -292566853 -1021367024 389233565 -533183766 1647453687 1260774624 965454424 1707537666 -419781789 -1307827525 -1111055343 -374456728 369837067 -1182351472 -665852799 -1799071374 738326904 2105724644 1801202601 -1649547107 -912282021 -1904762259 -750719933 2069942920 1044186989
REM
CELL 1.54180   50.00000   50.00000   50.00000   90.00000   90.00000   90.00000
LATT -1
SFAC C  
C      1  0.3848080000000  0.5801760000000  0.4976790000000 1.0
C      1  0.5516020000000  0.5206010000000  0.5931940000000 1.0
C      1  0.4796600000000  0.5296050000000  0.3995900000000 1.0
C      1  0.4138340000000  0.4870810000000  0.4348920000000 1.0
C      1  0.5007980000000  0.4801570000000  0.5721660000000 1.0
C      1  0.5457060000000  0.4327830000000  0.4838910000000 1.0
C      1  0.4277550000000  0.4388740000000  0.4995480000000 1.0
C      1  0.4800220000000  0.4809750000000  0.5524400000000 1.0
C      1  0.5358380000000  0.5709460000000  0.5024630000000 1.0
C      1  0.4615190000000  0.6197150000000  0.5470150000000 1.0
C      1  0.5870730000000  0.5770720000000  0.5748270000000 1.0
C      1  0.4389680000000  0.5825270000000  0.4351140000000 1.0
C      1  0.4738210000000  0.4573980000000  0.5388380000000 1.0
C      1  0.5861450000000  0.4160130000000  0.4360080000000 1.0
C      1  0.4560130000000  0.5031240000000  0.4493400000000 1.0
C      1  0.4371640000000  0.4972750000000  0.5875280000000 1.0
C      1  0.5695630000000  0.5379000000000  0.4854630000000 1.0
C      1  0.4403790000000  0.5104690000000  0.5628950000000 1.0
C      1  0.4802050000000  0.5634870000000  0.4641160000000 1.0
C      1  0.5711400000000  0.5896680000000  0.4550920000000 1.0
C      1  0.4954200000000  0.4388620000000  0.6329060000000 1.0
C      1  0.5095980000000  0.4583530000000  0.3962980000000 1.0
C      1  0.4958580000000  0.5191620000000  0.6008050000000 1.0
C      1  0.4479200000000  0.3881170000000  0.4929010000000 1.0
C      1  0.5447230000000  0.5506190000000  0.5897750000000 1.0
C      1  0.5229010000000  0.4347110000000  0.5814440000000 1.0
C      1  0.3959860000000  0.5059360000000  0.4467130000000 1.0
C      1  0.4990290000000  0.5470840000000  0.6028060000000 1.0
C      1  0.5136700000000  0.5085650000000  0.4792780000000 1.0
C      1  0.5581690000000  0.4109020000000  0.4312920000000 1.0
C      1  0.5803170000000  0.4301050000000  0.5152920000000 1.0
C      1  0.5426770000000  0.3899990000000  0.4441180000000 1.0
C      1  0.5663950000000  0.5583890000000  0.5716040000000 1.0
C      1  0.5048250000000  0.3859840000000  0.4804840000000 1.0
C      1  0.4762640000000  0.4042660000000  0.5710830000000 1.0
C      1  0.4783530000000  0.3698320000000  0.5238800000000 1.0
C      1  0.4656030000000  0.4986990000000  0.4959390000000 1.0
C      1  0.5086960000000  0.5231880000000  0.5513610000000 1.0
C      1  0.5391510000000  0.5964390000000  0.4910970000000 1.0
C      1  0.5723770000000  0.5044910000000  0.6053480000000 1.0
C      1  0.5645150000000  0.4201310000000  0.5620700000000 1.0
C      1  0.5469370000000  0.4046050000000  0.4877720000000 1.0
C      1  0.4457330000000  0.5912860000000  0.5107320000000 1.0
C      1  0.5064470000000  0.4572210000000  0.5885020000000 1.0
C      1  0.4502290000000  0.4888180000000  0.4033120000000 1.0
C      1  0.4965190000000  0.4844690000000  0.4338230000000 1.0
C      1  0.4384880000000  0.3989530000000  0.5357980000000 1.0
C      1  0.4538760000000  0.4355460000000  0.4027780000000 1.0
C      1  0.4229680000000  0.5194410000000  0.4828490000000 1.0
C      1  0.5172450000000  0.5615250000000  0.5862190000000 1.0
C      1  0.5530830000000  0.4390320000000  0.5809000000000 1.0
C      1  0.4915020000000  0.4568990000000  0.6128700000000 1.0
C      1  0.6016460000000  0.5455780000000  0.4469230000000 1.0
C      1  0.5068320000000  0.5078230000000  0.5765590000000 1.0
C      1  0.6048640000000  0.4185450000000  0.5151470000000 1.0
C      1  0.5596700000000  0.5538940000000  0.5061470000000 1.0
C      1  0.4845650000000  0.5770560000000  0.5410420000000 1.0
C      1  0.5822570000000  0.6038590000000  0.5765460000000 1.0
C      1  0.6131220000000  0.5665430000000  0.5759180000000 1.0
C      1  0.5454820000000  0.5489580000000  0.4353190000000 1.0
C      1  0.5098980000000  0.4822760000000  0.5167710000000 1.0
C      1  0.4527460000000  0.4196150000000  0.4268530000000 1.0
C      1  0.4605360000000  0.5504650000000  0.4032280000000 1.0
C      1  0.5115150000000  0.5364880000000  0.4813260000000 1.0
C      1  0.4181790000000  0.5243900000000  0.5525680000000 1.0
C      1  0.5913930000000  0.4952940000000  0.5087530000000 1.0
C      1  0.5951350000000  0.4888550000000  0.5393990000000 1.0
C      1  0.4220610000000  0.4161310000000  0.5178510000000 1.0
C      1  0.5721950000000  0.4630440000000  0.5776370000000 1.0
C      1  0.6245960000000  0.5174750000000  0.5704330000000 1.0
C      1  0.4390390000000  0.4496920000000  0.5893330000000 1.0
C      1  0.5265830000000  0.5328870000000  0.5302870000000 1.0
C      1  0.5321490000000  0.4398790000000  0.3946770000000 1.0
C      1  0.4070090000000  0.5747370000000  0.4817770000000 1.0
C      1  0.5882700000000  0.5080500000000  0.4198370000000 1.0
C      1  0.5556860000000  0.5404500000000  0.4607680000000 1.0
C      1  0.4598990000000  0.5765030000000  0.4153600000000 1.0
C      1  0.5655550000000  0.5506970000000  0.4153200000000 1.0
C      1  0.4652080000000  0.5066540000000  0.5493040000000 1.0
C      1  0.4523900000000  0.3797690000000  0.5197800000000 1.0
C      1  0.5137460000000  0.4290890000000  0.5291220000000 1.0
C      1  0.6038370000000  0.3950710000000  0.4362660000000 1.0
C      1  0.4469630000000  0.5938930000000  0.4610420000000 1.0
C      1  0.5372740000000  0.5042020000000  0.4097910000000 1.0
C      1  0.4521220000000  0.5180980000000  0.4747200000000 1.0
C      1  0.4318770000000  0.5888720000000  0.4854550000000 1.0
C      1  0.4840480000000  0.5921650000000  0.4128200000000 1.0
C      1  0.4051910000000  0.5566880000000  0.4590300000000 1.0
C      1  0.4473230000000  0.4744130000000  0.6003410000000 1.0
C      1  0.5064180000000  0.5386020000000  0.4064330000000 1.0
C      1  0.4220340000000  0.4586060000000  0.4300890000000 1.0
C      1  0.5068640000000  0.4600690000000  0.4251320000000 1.0
C      1  0.4776730000000  0.5142510000000  0.6456750000000 1.0
C      1  0.5435490000000  0.4328070000000  0.4208180000000 1.0
C      1  0.4045120000000  0.5152040000000  0.5287940000000 1.0
C      1  0.3425940000000  0.5993600000000  0.5233250000000 1.0
C      1  0.4344550000000  0.4608990000000  0.5166030000000 1.0
C      1  0.4639540000000  0.5956990000000  0.5327990000000 1.0
C      1  0.4823750000000  0.4294800000000  0.4973850000000 1.0
C      1  0.4615510000000  0.5454700000000  0.4739220000000 1.0
C      1  0.3635800000000  0.5898940000000  0.5101910000000 1.0
C      1  0.4814330000000  0.5286180000000  0.5404950000000 1.0
C      1  0.5957980000000  0.4425490000000  0.4403610000000 1.0
C      1  0.4336240000000  0.4347240000000  0.4448450000000 1.0
C      1  0.3985510000000  0.5673290000000  0.4116940000000 1.0
C      1  0.5266120000000  0.5239340000000  0.3926950000000 1.0
C      1  0.5047310000000  0.4075210000000  0.5666340000000 1.0
C      1  0.5315390000000  0.4729360000000  0.5315810000000 1.0
C      1  0.5220470000000  0.4403450000000  0.4685850000000 1.0
C      1  0.4827470000000  0.3967520000000  0.4641050000000 1.0
C      1  0.4042340000000  0.5441250000000  0.5677100000000 1.0
C      1  0.5913640000000  0.5184470000000  0.4888710000000 1.0
C      1  0.4817440000000  0.5040040000000  0.6205870000000 1.0
C      1  0.5118070000000  0.4021530000000  0.5379960000000 1.0
C      1  0.4386510000000  0.5008660000000  0.4272460000000 1.0
C      1  0.4192950000000  0.5057660000000  0.5072070000000 1.0
C      1  0.5881860000000  0.4854910000000  0.5897220000000 1.0
C      1  0.5539520000000  0.5395620000000  0.5291790000000 1.0
C      1  0.4498460000000  0.4099540000000  0.5602150000000 1.0
C      1  0.4138030000000  0.5685560000000  0.4343190000000 1.0
C      1  0.5645370000000  0.4973580000000  0.4089790000000 1.0
C      1  0.5316050000000  0.3883280000000  0.4706180000000 1.0
C      1  0.3764990000000  0.5201400000000  0.5280520000000 1.0
C      1  0.5725230000000  0.4730330000000  0.5494640000000 1.0
C      1  0.4406530000000  0.4610180000000  0.4051910000000 1.0
C      1  0.5485660000000  0.4887590000000  0.5478360000000 1.0
C      1  0.4410680000000  0.4869560000000  0.5086640000000 1.0
C      1  0.4951610000000  0.4950660000000  0.4967230000000 1.0
C      1  0.4966820000000  0.6088820000000  0.4644020000000 1.0
C      1  0.5040630000000  0.5510920000000  0.4576890000000 1.0
C      1  0.5443560000000  0.5981480000000  0.4625110000000 1.0
C      1  0.4745750000000  0.4821010000000  0.4506440000000 1.0
C      1  0.5089090000000  0.5998910000000  0.4213840000000 1.0
C      1  0.5367180000000  0.4444220000000  0.5313330000000 1.0
C      1  0.5925280000000  0.5722250000000  0.4544590000000 1.0
C      1  0.3220540000000  0.6080000000000  0.5368560000000 1.0
C      1  0.5468520000000  0.4746030000000  0.4532470000000 1.0
C      1  0.4597230000000  0.6419980000000  0.5604090000000 1.0
C      1  0.5309730000000  0.4979450000000  0.4589460000000 1.0
C      1  0.5168070000000  0.5490680000000  0.4322780000000 1.0
C      1  0.6065010000000  0.4966870000000  0.5663740000000 1.0
C      1  0.3635700000000  0.5369240000000  0.5451690000000 1.0
C      1  0.5200450000000  0.6047390000000  0.4475610000000 1.0
C      1  0.4720280000000  0.4777160000000  0.6143510000000 1.0
C      1  0.3776840000000  0.5494950000000  0.5648050000000 1.0
C      1  0.5694210000000  0.4461370000000  0.4940170000000 1.0
C      1  0.4460000000000  0.4524910000000  0.5411620000000 1.0
C      1  0.6011700000000  0.4963860000000  0.4432630000000 1.0
C      1  0.4749720000000  0.5912320000000  0.4651000000000 1.0
C      1  0.5121490000000  0.5502520000000  0.5085800000000 1.0
C      1  0.5307320000000  0.4508220000000  0.4419220000000 1.0
C      1  0.4947920000000  0.4448060000000  0.4760700000000 1.0
C      1  0.4745130000000  0.5004360000000  0.3925480000000 1.0
C      1  0.5610550000000  0.4287970000000  0.5356320000000 1.0
C      1  0.4044800000000  0.5280950000000  0.4631870000000 1.0
C      1  0.4722140000000  0.4586400000000  0.4654830000000 1.0
C      1  0.5792860000000  0.4724420000000  0.4947590000000 1.0
C      1  0.5194630000000  0.5016130000000  0.4328320000000 1.0
C      1  0.4438860000000  0.4353000000000  0.4727770000000 1.0
C      1  0.4405680000000  0.4368590000000  0.5643560000000 1.0
C      1  0.5386210000000  0.6190360000000  0.5065360000000 1.0
C      1  0.5535170000000  0.5123090000000  0.5643500000000 1.0
C      1  0.5035090000000  0.5762260000000  0.5642170000000 1.0
C      1  0.6028230000000  0.4682330000000  0.4446070000000 1.0
C      1  0.6047770000000  0.5189950000000  0.4624450000000 1.0
C      1  0.6269200000000  0.5437770000000  0.5741220000000 1.0
C      1  0.4885850000000  0.4394030000000  0.5226300000000 1.0
C      1  0.4860180000000  0.5532660000000  0.5247180000000 1.0
C      1  0.4626280000000  0.4116750000000  0.4821260000000 1.0
C      1  0.4726860000000  0.4019020000000  0.4374190000000 1.0
C      1  0.5019740000000  0.3837520000000  0.5163450000000 1.0
C      1  0.5665040000000  0.5361400000000  0.5531340000000 1.0
C      1  0.4943130000000  0.4799120000000  0.3838830000000 1.0
C      1  0.5898680000000  0.5369230000000  0.4210220000000 1.0
END
