TITL C-599897-7526-831 -0.00224765913004972 125000 -414.763232679978 0 0 68 (C1) n - 1
REM
REM in /home/nfs/bkarasulu/CARBON/AIRSS/Generating-Clusters/TERSOFF/Only-C1/FIRE-HFTN
REM
REM
REM
REM
REM
REM ./C.cell (11c1c37f851c82e70ff6c80c92926a4b)
REM AIRSS Version 0.9.1 bugfix July 2018 build 013d7b7c2542+ Fri, 06 Jul 2018 19:26:36 +0100
REM compiler GCC version 9.2.1 20190827 (Red Hat 9.2.1-1)
REM options -cpp -mtune=generic -march=x86-64 -g -O0 -fpre-include=/usr/include/finclude/math-vector-fortran.h
REM seed 1720759359 -359388821 -263785244 -2009501843 2066846210 1873264034 -1143908725 -1411499817 -2123029047 -611824077 1467734118 -626027491 1397841999 1184459839 2028017447 -324544740 -1355714989 -1240255542 917117101 1733984314 1396844757 -370106423 -417201530 -1750539472 1146403843 -1834560122 -392051566 747546517 529051636 757672408 -1894372202 -1054650917 1980168631
REM
CELL 1.54180   50.00000   50.00000   50.00000   90.00000   90.00000   90.00000
LATT -1
SFAC C  
C      1  0.4700160000000  0.5329670000000  0.4016440000000 1.0
C      1  0.4621220000000  0.5560860000000  0.5226710000000 1.0
C      1  0.5291240000000  0.4782430000000  0.4413830000000 1.0
C      1  0.5441660000000  0.4970880000000  0.5498490000000 1.0
C      1  0.5437000000000  0.4998560000000  0.4517260000000 1.0
C      1  0.5359540000000  0.5419040000000  0.5713380000000 1.0
C      1  0.4774160000000  0.4512380000000  0.4765220000000 1.0
C      1  0.5278890000000  0.5150120000000  0.5669250000000 1.0
C      1  0.5559060000000  0.5110310000000  0.5263630000000 1.0
C      1  0.4735790000000  0.4690180000000  0.5525650000000 1.0
C      1  0.4595180000000  0.4828840000000  0.4430440000000 1.0
C      1  0.4632620000000  0.4698790000000  0.4180640000000 1.0
C      1  0.4895550000000  0.4357030000000  0.3957610000000 1.0
C      1  0.4956730000000  0.4284240000000  0.5377380000000 1.0
C      1  0.5831780000000  0.4450090000000  0.5077780000000 1.0
C      1  0.4084470000000  0.4817710000000  0.4949560000000 1.0
C      1  0.4931830000000  0.5606390000000  0.5578950000000 1.0
C      1  0.4575910000000  0.5113990000000  0.4998480000000 1.0
C      1  0.5144170000000  0.5075340000000  0.5060610000000 1.0
C      1  0.5447170000000  0.5231720000000  0.4360610000000 1.0
C      1  0.5631530000000  0.3839260000000  0.5419250000000 1.0
C      1  0.5372240000000  0.4679590000000  0.5495420000000 1.0
C      1  0.4357390000000  0.5557020000000  0.5324910000000 1.0
C      1  0.5527050000000  0.5615290000000  0.5166000000000 1.0
C      1  0.5018330000000  0.5480800000000  0.4368110000000 1.0
C      1  0.5911590000000  0.4646020000000  0.4916500000000 1.0
C      1  0.4434030000000  0.4700680000000  0.3992450000000 1.0
C      1  0.5381770000000  0.4493970000000  0.5263810000000 1.0
C      1  0.4505690000000  0.4853790000000  0.5086080000000 1.0
C      1  0.5617780000000  0.4340260000000  0.5219350000000 1.0
C      1  0.4299610000000  0.5328790000000  0.5490480000000 1.0
C      1  0.4853340000000  0.4032560000000  0.5377920000000 1.0
C      1  0.5111050000000  0.4652200000000  0.4268870000000 1.0
C      1  0.5122180000000  0.4392480000000  0.5164910000000 1.0
C      1  0.5452050000000  0.5675970000000  0.4890670000000 1.0
C      1  0.4792820000000  0.5303480000000  0.4279970000000 1.0
C      1  0.4904370000000  0.4915890000000  0.5488340000000 1.0
C      1  0.4122940000000  0.5135420000000  0.5373260000000 1.0
C      1  0.4032350000000  0.4980180000000  0.5167240000000 1.0
C      1  0.4988730000000  0.5123740000000  0.5656610000000 1.0
C      1  0.5223060000000  0.5627960000000  0.5580370000000 1.0
C      1  0.5420480000000  0.5051470000000  0.5016720000000 1.0
C      1  0.4620950000000  0.5351300000000  0.3769130000000 1.0
C      1  0.5177980000000  0.4573960000000  0.5686700000000 1.0
C      1  0.4881290000000  0.4567290000000  0.4132350000000 1.0
C      1  0.5308410000000  0.5723620000000  0.5322790000000 1.0
C      1  0.5804920000000  0.4859360000000  0.4797600000000 1.0
C      1  0.4661270000000  0.5108390000000  0.4459160000000 1.0
C      1  0.4348810000000  0.4732810000000  0.4871420000000 1.0
C      1  0.4895930000000  0.5362440000000  0.4773260000000 1.0
C      1  0.4663940000000  0.5196980000000  0.4725590000000 1.0
C      1  0.5163480000000  0.5731720000000  0.4849590000000 1.0
C      1  0.4718290000000  0.5300390000000  0.5164390000000 1.0
C      1  0.5634180000000  0.4080330000000  0.5320300000000 1.0
C      1  0.5275570000000  0.5417090000000  0.4269380000000 1.0
C      1  0.5019620000000  0.5577450000000  0.4644880000000 1.0
C      1  0.4838270000000  0.5717070000000  0.5318460000000 1.0
C      1  0.4810460000000  0.5353800000000  0.5676390000000 1.0
C      1  0.5032140000000  0.4897490000000  0.5238750000000 1.0
C      1  0.4980240000000  0.5297230000000  0.5032910000000 1.0
C      1  0.4523340000000  0.5299410000000  0.5675410000000 1.0
C      1  0.5553980000000  0.4983600000000  0.4775480000000 1.0
C      1  0.5655350000000  0.5379700000000  0.5260030000000 1.0
C      1  0.5069850000000  0.5780040000000  0.5141710000000 1.0
C      1  0.4547640000000  0.4664480000000  0.4668140000000 1.0
C      1  0.4532520000000  0.4707330000000  0.5329290000000 1.0
C      1  0.4920990000000  0.4475400000000  0.5587670000000 1.0
C      1  0.4986030000000  0.4445950000000  0.4920080000000 1.0
END
