TITL C-599897-7526-900 0.0875405372313891 125000 -660.190598950781 0 0 108 (C1) n - 1
REM
REM in /home/nfs/bkarasulu/CARBON/AIRSS/Generating-Clusters/TERSOFF/Only-C1/FIRE-HFTN
REM
REM
REM
REM
REM
REM ./C.cell (11c1c37f851c82e70ff6c80c92926a4b)
REM AIRSS Version 0.9.1 bugfix July 2018 build 013d7b7c2542+ Fri, 06 Jul 2018 19:26:36 +0100
REM compiler GCC version 9.2.1 20190827 (Red Hat 9.2.1-1)
REM options -cpp -mtune=generic -march=x86-64 -g -O0 -fpre-include=/usr/include/finclude/math-vector-fortran.h
REM seed -873453442 1985163247 264003324 -1836239187 2133611934 -1992916445 826608686 -205077968 -187709749 1336906612 797998793 -430206785 41252717 594873593 1478756701 831232044 -1912010005 223174877 -957941497 1225825925 1442543939 937231003 -1888198723 -1268985076 1435526569 -570845261 -1712491254 1031569797 1317569530 1207740493 -1307764599 -982462902 1946958937
REM
CELL 1.54180   50.00000   50.00000   50.00000   90.00000   90.00000   90.00000
LATT -1
SFAC C  
C      1  0.4470060000000  0.5667850000000  0.5691140000000 1.0
C      1  0.4531930000000  0.5235870000000  0.4113340000000 1.0
C      1  0.5185440000000  0.5744560000000  0.5369490000000 1.0
C      1  0.4741510000000  0.4507670000000  0.4426980000000 1.0
C      1  0.5481770000000  0.5761900000000  0.5449290000000 1.0
C      1  0.5588630000000  0.4342430000000  0.4227930000000 1.0
C      1  0.4844020000000  0.5447900000000  0.5200550000000 1.0
C      1  0.4813730000000  0.5494230000000  0.5488300000000 1.0
C      1  0.4271100000000  0.4885020000000  0.5567590000000 1.0
C      1  0.5591830000000  0.4245590000000  0.4883030000000 1.0
C      1  0.4957470000000  0.5682090000000  0.4648030000000 1.0
C      1  0.4452920000000  0.5804910000000  0.5425450000000 1.0
C      1  0.5195970000000  0.5265330000000  0.5546970000000 1.0
C      1  0.5017650000000  0.4014660000000  0.4408170000000 1.0
C      1  0.5735980000000  0.4903380000000  0.4925650000000 1.0
C      1  0.4875800000000  0.4073920000000  0.5176320000000 1.0
C      1  0.4975610000000  0.4768450000000  0.3778650000000 1.0
C      1  0.5585510000000  0.4691360000000  0.5359370000000 1.0
C      1  0.4187830000000  0.4299270000000  0.5231630000000 1.0
C      1  0.4688620000000  0.6075420000000  0.5857330000000 1.0
C      1  0.4663050000000  0.4752800000000  0.5257630000000 1.0
C      1  0.4394990000000  0.4141570000000  0.5291830000000 1.0
C      1  0.5099650000000  0.6004970000000  0.5259320000000 1.0
C      1  0.5670660000000  0.4795500000000  0.4102630000000 1.0
C      1  0.5714540000000  0.4885280000000  0.5506740000000 1.0
C      1  0.4327490000000  0.4993010000000  0.5818130000000 1.0
C      1  0.4226720000000  0.4972450000000  0.4392770000000 1.0
C      1  0.5219120000000  0.5397370000000  0.4336510000000 1.0
C      1  0.4727430000000  0.4180900000000  0.5632910000000 1.0
C      1  0.5135830000000  0.5512630000000  0.5163280000000 1.0
C      1  0.5084180000000  0.5556940000000  0.5616430000000 1.0
C      1  0.4325190000000  0.4556150000000  0.4633510000000 1.0
C      1  0.4199210000000  0.5242210000000  0.4921670000000 1.0
C      1  0.5440440000000  0.5588460000000  0.4777610000000 1.0
C      1  0.4061600000000  0.4769120000000  0.5044920000000 1.0
C      1  0.5208910000000  0.4936080000000  0.4795810000000 1.0
C      1  0.5438240000000  0.4916980000000  0.4153070000000 1.0
C      1  0.5742530000000  0.4537560000000  0.4125640000000 1.0
C      1  0.4561070000000  0.4145960000000  0.4757070000000 1.0
C      1  0.4529540000000  0.5858270000000  0.5895410000000 1.0
C      1  0.5338290000000  0.4312530000000  0.5465360000000 1.0
C      1  0.5070640000000  0.4987830000000  0.3649780000000 1.0
C      1  0.4983380000000  0.5004130000000  0.4963740000000 1.0
C      1  0.5277080000000  0.4834630000000  0.5744490000000 1.0
C      1  0.5615920000000  0.5238350000000  0.5792400000000 1.0
C      1  0.4699370000000  0.5776990000000  0.4740840000000 1.0
C      1  0.5157320000000  0.4921740000000  0.4185560000000 1.0
C      1  0.5856590000000  0.4641390000000  0.4973520000000 1.0
C      1  0.5741870000000  0.5339510000000  0.5539530000000 1.0
C      1  0.5556560000000  0.4955060000000  0.5744190000000 1.0
C      1  0.5286910000000  0.5628690000000  0.5845010000000 1.0
C      1  0.5139220000000  0.4643550000000  0.5174690000000 1.0
C      1  0.4497550000000  0.4726380000000  0.5479370000000 1.0
C      1  0.5313220000000  0.5407010000000  0.3842160000000 1.0
C      1  0.5448860000000  0.4894540000000  0.4936630000000 1.0
C      1  0.4412610000000  0.5424060000000  0.4900910000000 1.0
C      1  0.4793510000000  0.5127390000000  0.5801540000000 1.0
C      1  0.5608000000000  0.4403710000000  0.5339410000000 1.0
C      1  0.5344260000000  0.5491870000000  0.4098070000000 1.0
C      1  0.5256740000000  0.4541360000000  0.5666540000000 1.0
C      1  0.4916430000000  0.4804990000000  0.5157290000000 1.0
C      1  0.4640130000000  0.4930230000000  0.4667890000000 1.0
C      1  0.5461560000000  0.5833380000000  0.5728430000000 1.0
C      1  0.5788040000000  0.5163780000000  0.5056970000000 1.0
C      1  0.4181090000000  0.4962780000000  0.4879710000000 1.0
C      1  0.4721220000000  0.4406380000000  0.5778850000000 1.0
C      1  0.4809480000000  0.4053940000000  0.4881000000000 1.0
C      1  0.4907780000000  0.4457830000000  0.4196550000000 1.0
C      1  0.4853100000000  0.6090340000000  0.5372950000000 1.0
C      1  0.4836660000000  0.4739890000000  0.4561390000000 1.0
C      1  0.5332420000000  0.5329370000000  0.5287370000000 1.0
C      1  0.5286950000000  0.4496930000000  0.4591240000000 1.0
C      1  0.4639430000000  0.4669160000000  0.5735630000000 1.0
C      1  0.4623930000000  0.5963480000000  0.5248890000000 1.0
C      1  0.4755210000000  0.5114930000000  0.4854670000000 1.0
C      1  0.5136420000000  0.4195930000000  0.5260050000000 1.0
C      1  0.5095200000000  0.4242350000000  0.4253410000000 1.0
C      1  0.4464840000000  0.5617070000000  0.4700270000000 1.0
C      1  0.5044560000000  0.5174360000000  0.4270340000000 1.0
C      1  0.5168260000000  0.4393460000000  0.5050620000000 1.0
C      1  0.5381380000000  0.4781950000000  0.5190190000000 1.0
C      1  0.4607880000000  0.4927070000000  0.5877660000000 1.0
C      1  0.4631040000000  0.5421850000000  0.5683060000000 1.0
C      1  0.4660950000000  0.5332400000000  0.5008680000000 1.0
C      1  0.5420440000000  0.5859110000000  0.4886620000000 1.0
C      1  0.5263090000000  0.6036800000000  0.5024390000000 1.0
C      1  0.4067510000000  0.4523940000000  0.5151650000000 1.0
C      1  0.5746270000000  0.4384060000000  0.5076510000000 1.0
C      1  0.5567280000000  0.5496290000000  0.5380720000000 1.0
C      1  0.5002860000000  0.4704390000000  0.4055220000000 1.0
C      1  0.5646690000000  0.5396470000000  0.4900330000000 1.0
C      1  0.5338300000000  0.4353910000000  0.4350100000000 1.0
C      1  0.4301190000000  0.5125390000000  0.4187600000000 1.0
C      1  0.5202060000000  0.5221120000000  0.3681610000000 1.0
C      1  0.4337750000000  0.4858110000000  0.4644090000000 1.0
C      1  0.4820440000000  0.6172220000000  0.5641760000000 1.0
C      1  0.5821180000000  0.5121860000000  0.5359790000000 1.0
C      1  0.4655690000000  0.5943930000000  0.4967150000000 1.0
C      1  0.4787580000000  0.5244080000000  0.4183300000000 1.0
C      1  0.4344530000000  0.3975200000000  0.4766370000000 1.0
C      1  0.4662960000000  0.4100480000000  0.5369290000000 1.0
C      1  0.4540400000000  0.4376710000000  0.4584310000000 1.0
C      1  0.5074060000000  0.5054410000000  0.5706230000000 1.0
C      1  0.5334980000000  0.4350770000000  0.4827820000000 1.0
C      1  0.5444120000000  0.5408320000000  0.5945230000000 1.0
C      1  0.5123890000000  0.4734690000000  0.4613940000000 1.0
C      1  0.4980850000000  0.3957420000000  0.4672130000000 1.0
C      1  0.5210260000000  0.5539700000000  0.4588890000000 1.0
END
