TITL C-599890-3321-215 35.3633160872372 125000 -954.52779975418 0 0 159 (C1) n - 1
REM
REM in /home/nfs/bkarasulu/CARBON/AIRSS/Generating-Clusters/TERSOFF/Only-C1/FIRE-HFTN
REM
REM
REM
REM
REM
REM ./C.cell (11c1c37f851c82e70ff6c80c92926a4b)
REM AIRSS Version 0.9.1 bugfix July 2018 build 013d7b7c2542+ Fri, 06 Jul 2018 19:26:36 +0100
REM compiler GCC version 9.2.1 20190827 (Red Hat 9.2.1-1)
REM options -cpp -mtune=generic -march=x86-64 -g -O0 -fpre-include=/usr/include/finclude/math-vector-fortran.h
REM seed -728614429 -288076598 -1591991497 960758163 -1152342563 -491638033 -1043677406 -1352280582 -1956372502 -772767485 -1772993642 836978893 -759158173 1613492138 1917582577 -1376267983 84246126 -1612780237 1780528484 -2129285008 -1183781958 -1337002377 1496741480 -2102824702 -1089133619 -19382873 -144471998 -747799205 2099711107 -310863277 2085128283 2026659420 412966859
REM
CELL 1.54180   50.00000   50.00000   50.00000   90.00000   90.00000   90.00000
LATT -1
SFAC C  
C      1  0.5759370000000  0.5163490000000  0.4228710000000 1.0
C      1  0.5960250000000  0.5288080000000  0.5073860000000 1.0
C      1  0.5620850000000  0.4499800000000  0.5443990000000 1.0
C      1  0.5018620000000  0.5702100000000  0.5249370000000 1.0
C      1  0.4316840000000  0.5517790000000  0.5720540000000 1.0
C      1  0.5975210000000  0.5814040000000  0.4971050000000 1.0
C      1  0.4562690000000  0.5432110000000  0.5274430000000 1.0
C      1  0.4444580000000  0.4794730000000  0.4158740000000 1.0
C      1  0.5448770000000  0.5477630000000  0.5109010000000 1.0
C      1  0.4972170000000  0.5843940000000  0.5871790000000 1.0
C      1  0.4385870000000  0.4309100000000  0.5530100000000 1.0
C      1  0.4952840000000  0.4269300000000  0.4421740000000 1.0
C      1  0.5079350000000  0.5600530000000  0.4148740000000 1.0
C      1  0.4647450000000  0.4589820000000  0.4045480000000 1.0
C      1  0.4205500000000  0.5244910000000  0.5682940000000 1.0
C      1  0.6110960000000  0.6295120000000  0.3855050000000 1.0
C      1  0.5435440000000  0.5265260000000  0.4619810000000 1.0
C      1  0.6093460000000  0.4988820000000  0.4708600000000 1.0
C      1  0.4615390000000  0.5254460000000  0.4121240000000 1.0
C      1  0.5215570000000  0.5402580000000  0.4564910000000 1.0
C      1  0.6126090000000  0.5231940000000  0.5290600000000 1.0
C      1  0.5392700000000  0.4051420000000  0.4477440000000 1.0
C      1  0.5517750000000  0.5003650000000  0.4665060000000 1.0
C      1  0.4353630000000  0.5309180000000  0.5173310000000 1.0
C      1  0.6029890000000  0.6071400000000  0.4024490000000 1.0
C      1  0.5020760000000  0.5416280000000  0.4367290000000 1.0
C      1  0.4689710000000  0.5713320000000  0.4835970000000 1.0
C      1  0.5906810000000  0.5369740000000  0.4365760000000 1.0
C      1  0.4788550000000  0.4043890000000  0.4487860000000 1.0
C      1  0.4798000000000  0.3846990000000  0.5545940000000 1.0
C      1  0.4891450000000  0.3979260000000  0.5782470000000 1.0
C      1  0.4396640000000  0.4737440000000  0.4442040000000 1.0
C      1  0.3943090000000  0.4561670000000  0.5473770000000 1.0
C      1  0.4612940000000  0.5824850000000  0.4257140000000 1.0
C      1  0.5650720000000  0.3876800000000  0.5062070000000 1.0
C      1  0.5049110000000  0.5980140000000  0.5305210000000 1.0
C      1  0.5197200000000  0.4583360000000  0.4136810000000 1.0
C      1  0.5512580000000  0.4922410000000  0.4932090000000 1.0
C      1  0.3973990000000  0.5570920000000  0.5040730000000 1.0
C      1  0.4956340000000  0.4950830000000  0.4300260000000 1.0
C      1  0.3871140000000  0.4799150000000  0.5362550000000 1.0
C      1  0.4744870000000  0.5202270000000  0.4830390000000 1.0
C      1  0.4654240000000  0.5478280000000  0.3952910000000 1.0
C      1  0.4744030000000  0.5368920000000  0.5943100000000 1.0
C      1  0.5155050000000  0.4874630000000  0.4102020000000 1.0
C      1  0.6001740000000  0.5458170000000  0.4618220000000 1.0
C      1  0.4864310000000  0.4783290000000  0.5213420000000 1.0
C      1  0.5087790000000  0.5053500000000  0.6237510000000 1.0
C      1  0.5120820000000  0.4949630000000  0.5217590000000 1.0
C      1  0.4995800000000  0.4034330000000  0.5139690000000 1.0
C      1  0.4380910000000  0.5095080000000  0.4162910000000 1.0
C      1  0.4777460000000  0.5464350000000  0.4796140000000 1.0
C      1  0.4257900000000  0.4132280000000  0.5104820000000 1.0
C      1  0.5374350000000  0.4788160000000  0.5830420000000 1.0
C      1  0.4435490000000  0.5833540000000  0.4881960000000 1.0
C      1  0.6263840000000  0.6351390000000  0.4294350000000 1.0
C      1  0.5220080000000  0.4061260000000  0.4947720000000 1.0
C      1  0.5025380000000  0.5254370000000  0.5573020000000 1.0
C      1  0.4301350000000  0.5003200000000  0.4847630000000 1.0
C      1  0.4265790000000  0.4941170000000  0.4579700000000 1.0
C      1  0.4375020000000  0.4658450000000  0.5182880000000 1.0
C      1  0.4197020000000  0.5165030000000  0.4403510000000 1.0
C      1  0.4539380000000  0.4358680000000  0.4709000000000 1.0
C      1  0.5060600000000  0.5235050000000  0.5288030000000 1.0
C      1  0.5346490000000  0.5041360000000  0.3989220000000 1.0
C      1  0.4632570000000  0.4971940000000  0.5727690000000 1.0
C      1  0.5607250000000  0.4895880000000  0.5199830000000 1.0
C      1  0.4386400000000  0.5793860000000  0.4410570000000 1.0
C      1  0.4613090000000  0.5977310000000  0.5560580000000 1.0
C      1  0.5287680000000  0.5269940000000  0.5701750000000 1.0
C      1  0.5316230000000  0.3834040000000  0.5418990000000 1.0
C      1  0.4369790000000  0.5903850000000  0.5401420000000 1.0
C      1  0.5181380000000  0.5477670000000  0.5184430000000 1.0
C      1  0.4346280000000  0.4994990000000  0.5736230000000 1.0
C      1  0.4855110000000  0.4722360000000  0.4441070000000 1.0
C      1  0.5356190000000  0.5514020000000  0.4067320000000 1.0
C      1  0.5523990000000  0.3720390000000  0.5252160000000 1.0
C      1  0.4629010000000  0.6188780000000  0.5151970000000 1.0
C      1  0.6121370000000  0.6098680000000  0.4300650000000 1.0
C      1  0.4010610000000  0.5542330000000  0.5334040000000 1.0
C      1  0.6019040000000  0.5731850000000  0.4702580000000 1.0
C      1  0.6081230000000  0.5926760000000  0.4511880000000 1.0
C      1  0.5135290000000  0.5029650000000  0.6508210000000 1.0
C      1  0.5211260000000  0.5722410000000  0.5864710000000 1.0
C      1  0.5402020000000  0.5009720000000  0.5650300000000 1.0
C      1  0.4801710000000  0.6110850000000  0.5371840000000 1.0
C      1  0.4704950000000  0.4383940000000  0.4977010000000 1.0
C      1  0.5228300000000  0.4866940000000  0.6065650000000 1.0
C      1  0.6061170000000  0.6334550000000  0.3592170000000 1.0
C      1  0.4758560000000  0.5605790000000  0.5300620000000 1.0
C      1  0.5941070000000  0.4782500000000  0.4579250000000 1.0
C      1  0.4321590000000  0.4061860000000  0.5382670000000 1.0
C      1  0.4244290000000  0.4345730000000  0.4595470000000 1.0
C      1  0.3835830000000  0.4836660000000  0.4826960000000 1.0
C      1  0.4758980000000  0.4548790000000  0.6015550000000 1.0
C      1  0.5448440000000  0.4529480000000  0.5704060000000 1.0
C      1  0.6265060000000  0.5173630000000  0.5503180000000 1.0
C      1  0.5383640000000  0.4101260000000  0.5500130000000 1.0
C      1  0.5788160000000  0.5761350000000  0.5462060000000 1.0
C      1  0.5525540000000  0.4160970000000  0.5015150000000 1.0
C      1  0.5766010000000  0.4674080000000  0.5267070000000 1.0
C      1  0.5114310000000  0.4607550000000  0.4841850000000 1.0
C      1  0.5390220000000  0.5532760000000  0.5752450000000 1.0
C      1  0.4259840000000  0.5747160000000  0.4668250000000 1.0
C      1  0.5462010000000  0.4547000000000  0.4304390000000 1.0
C      1  0.4739210000000  0.4734550000000  0.5833140000000 1.0
C      1  0.5431680000000  0.4793740000000  0.4496870000000 1.0
C      1  0.4978980000000  0.3534760000000  0.5204070000000 1.0
C      1  0.4206590000000  0.5692340000000  0.5500130000000 1.0
C      1  0.4233870000000  0.4737120000000  0.5775870000000 1.0
C      1  0.4803460000000  0.5694410000000  0.4075890000000 1.0
C      1  0.4579940000000  0.4054790000000  0.4684020000000 1.0
C      1  0.4905450000000  0.4495920000000  0.4221420000000 1.0
C      1  0.5930820000000  0.4589790000000  0.5049800000000 1.0
C      1  0.5285800000000  0.6113980000000  0.5290210000000 1.0
C      1  0.4516680000000  0.3855840000000  0.5460680000000 1.0
C      1  0.5079540000000  0.4160380000000  0.5856740000000 1.0
C      1  0.6257850000000  0.6463160000000  0.4040600000000 1.0
C      1  0.4186840000000  0.4504230000000  0.5616240000000 1.0
C      1  0.5244570000000  0.3948210000000  0.4683330000000 1.0
C      1  0.4592630000000  0.4852230000000  0.5170060000000 1.0
C      1  0.5387910000000  0.4934230000000  0.5379680000000 1.0
C      1  0.4701340000000  0.5828670000000  0.5788770000000 1.0
C      1  0.5699080000000  0.5386900000000  0.5108770000000 1.0
C      1  0.5628050000000  0.5632310000000  0.5635010000000 1.0
C      1  0.5655420000000  0.4349020000000  0.4741800000000 1.0
C      1  0.3997530000000  0.5305220000000  0.4586350000000 1.0
C      1  0.4412230000000  0.5994370000000  0.5117500000000 1.0
C      1  0.4668630000000  0.4330310000000  0.5451920000000 1.0
C      1  0.4168000000000  0.5109550000000  0.5079420000000 1.0
C      1  0.4573390000000  0.5009460000000  0.4932270000000 1.0
C      1  0.5020480000000  0.3796170000000  0.5336010000000 1.0
C      1  0.5105280000000  0.4410570000000  0.4636800000000 1.0
C      1  0.4794320000000  0.5198440000000  0.5718440000000 1.0
C      1  0.3964610000000  0.4580030000000  0.4884890000000 1.0
C      1  0.5526150000000  0.4262870000000  0.5305640000000 1.0
C      1  0.4389090000000  0.3971040000000  0.4891120000000 1.0
C      1  0.5710600000000  0.4648060000000  0.4162330000000 1.0
C      1  0.5838350000000  0.4869610000000  0.4303480000000 1.0
C      1  0.5855920000000  0.4557060000000  0.4770310000000 1.0
C      1  0.5526010000000  0.4304200000000  0.4487470000000 1.0
C      1  0.4893120000000  0.4584120000000  0.5007480000000 1.0
C      1  0.3993040000000  0.4415320000000  0.4654090000000 1.0
C      1  0.5304960000000  0.4266130000000  0.5724440000000 1.0
C      1  0.5902750000000  0.5832480000000  0.5229300000000 1.0
C      1  0.6048390000000  0.5248450000000  0.4807220000000 1.0
C      1  0.5509920000000  0.5256260000000  0.4081560000000 1.0
C      1  0.3997180000000  0.5270020000000  0.5468860000000 1.0
C      1  0.4935640000000  0.3316330000000  0.5069010000000 1.0
C      1  0.4773960000000  0.4214070000000  0.5199750000000 1.0
C      1  0.4564600000000  0.5583230000000  0.5861780000000 1.0
C      1  0.4618890000000  0.4617120000000  0.4568270000000 1.0
C      1  0.4179480000000  0.4472440000000  0.5071030000000 1.0
C      1  0.3974940000000  0.5048630000000  0.5284170000000 1.0
C      1  0.4903020000000  0.5262090000000  0.6157500000000 1.0
C      1  0.5239100000000  0.4840520000000  0.4955510000000 1.0
C      1  0.4844520000000  0.5205240000000  0.4292490000000 1.0
C      1  0.4056630000000  0.5550140000000  0.4751090000000 1.0
C      1  0.3828110000000  0.5089930000000  0.4712140000000 1.0
END
