TITL C-599890-3321-107 7.48083421770802e-06 125000 -45.0061286939422 0 0 9 (Cs) n - 1
REM
REM in /home/nfs/bkarasulu/CARBON/AIRSS/Generating-Clusters/TERSOFF/Only-C1/FIRE-HFTN
REM
REM
REM
REM
REM
REM ./C.cell (11c1c37f851c82e70ff6c80c92926a4b)
REM AIRSS Version 0.9.1 bugfix July 2018 build 013d7b7c2542+ Fri, 06 Jul 2018 19:26:36 +0100
REM compiler GCC version 9.2.1 20190827 (Red Hat 9.2.1-1)
REM options -cpp -mtune=generic -march=x86-64 -g -O0 -fpre-include=/usr/include/finclude/math-vector-fortran.h
REM seed -163348088 1715401049 -363271404 -196705720 69060260 -244307324 463218954 822683000 1251521482 609319450 1092859580 399064488 -367721001 1943292867 -29852065 -1799806798 -1772451157 -698624086 -36551969 -561446502 1450333925 1597155390 1224397902 -381606511 266322650 1071458851 -1763956477 -1437061647 1474928360 -669361208 1888200965 -1748971915 -478811215
REM
CELL 1.54180   50.00000   50.00000   50.00000   90.00000   90.00000   90.00000
LATT -1
SFAC C  
C      1  0.5308520000000  0.4642270000000  0.4884630000000 1.0
C      1  0.5020330000000  0.5635830000000  0.5561350000000 1.0
C      1  0.5038920000000  0.5433300000000  0.5398250000000 1.0
C      1  0.4870670000000  0.4877700000000  0.4464950000000 1.0
C      1  0.4666320000000  0.4596290000000  0.4791110000000 1.0
C      1  0.5089520000000  0.4806260000000  0.4888920000000 1.0
C      1  0.4871770000000  0.4759200000000  0.4711890000000 1.0
C      1  0.5076140000000  0.5021760000000  0.5066480000000 1.0
C      1  0.5057810000000  0.5227390000000  0.5232420000000 1.0
END
