TITL C-599893-4344-28 0.0469489569793722 125000 -221.077168117271 0 0 38 (C1) n - 1
REM
REM in /home/nfs/bkarasulu/CARBON/AIRSS/Generating-Clusters/TERSOFF/Only-C1/FIRE-HFTN
REM
REM
REM
REM
REM
REM ./C.cell (11c1c37f851c82e70ff6c80c92926a4b)
REM AIRSS Version 0.9.1 bugfix July 2018 build 013d7b7c2542+ Fri, 06 Jul 2018 19:26:36 +0100
REM compiler GCC version 9.2.1 20190827 (Red Hat 9.2.1-1)
REM options -cpp -mtune=generic -march=x86-64 -g -O0 -fpre-include=/usr/include/finclude/math-vector-fortran.h
REM seed -548010579 1773241275 -910741503 989535327 -1843767186 1965980473 1996999088 293348442 942934080 86954599 -1663100863 1613840972 1776349332 -837590492 1106833124 -932356901 -263197711 1635111173 1791693168 -578186136 -19787469 -2022515569 -1990927561 -1525346779 -1535487376 -870593870 -1080333987 849259568 -1086499605 2145529276 1589074898 -1638561729 -73541131
REM
CELL 1.54180   50.00000   50.00000   50.00000   90.00000   90.00000   90.00000
LATT -1
SFAC C  
C      1  0.4796640000000  0.5610790000000  0.5545900000000 1.0
C      1  0.3817430000000  0.5453870000000  0.4907820000000 1.0
C      1  0.5479400000000  0.5016390000000  0.5680540000000 1.0
C      1  0.4793500000000  0.4673930000000  0.4759050000000 1.0
C      1  0.4464440000000  0.4600790000000  0.4316860000000 1.0
C      1  0.5665430000000  0.4297700000000  0.5516060000000 1.0
C      1  0.5028240000000  0.5489090000000  0.5503470000000 1.0
C      1  0.5611040000000  0.4796410000000  0.5557060000000 1.0
C      1  0.5686960000000  0.4446610000000  0.5056010000000 1.0
C      1  0.5040970000000  0.4541130000000  0.4803180000000 1.0
C      1  0.5717260000000  0.5330060000000  0.5417180000000 1.0
C      1  0.5504610000000  0.5558880000000  0.4265870000000 1.0
C      1  0.4225780000000  0.4745720000000  0.4334410000000 1.0
C      1  0.5421280000000  0.4834930000000  0.4902430000000 1.0
C      1  0.4514600000000  0.4440520000000  0.4101160000000 1.0
C      1  0.5398050000000  0.5274490000000  0.4694860000000 1.0
C      1  0.4031390000000  0.4909880000000  0.4408660000000 1.0
C      1  0.5451500000000  0.5418810000000  0.4479220000000 1.0
C      1  0.4073850000000  0.5687040000000  0.5298720000000 1.0
C      1  0.3811530000000  0.5279700000000  0.4707850000000 1.0
C      1  0.3887170000000  0.5092340000000  0.4536050000000 1.0
C      1  0.4544890000000  0.5691750000000  0.5525980000000 1.0
C      1  0.5468970000000  0.5270080000000  0.5547550000000 1.0
C      1  0.3907920000000  0.5595220000000  0.5113240000000 1.0
C      1  0.5837870000000  0.5124300000000  0.5283230000000 1.0
C      1  0.5378760000000  0.4626410000000  0.4466440000000 1.0
C      1  0.5233350000000  0.5332370000000  0.5400570000000 1.0
C      1  0.4695330000000  0.4848080000000  0.4945940000000 1.0
C      1  0.4295020000000  0.5719540000000  0.5441490000000 1.0
C      1  0.5046520000000  0.4295760000000  0.4924410000000 1.0
C      1  0.5344990000000  0.5110000000000  0.4914760000000 1.0
C      1  0.4650850000000  0.4622970000000  0.4524150000000 1.0
C      1  0.5697580000000  0.4259820000000  0.5250570000000 1.0
C      1  0.5625550000000  0.4722710000000  0.5067140000000 1.0
C      1  0.5222360000000  0.5220930000000  0.5141860000000 1.0
C      1  0.5722500000000  0.4863980000000  0.5295280000000 1.0
C      1  0.5624440000000  0.4530660000000  0.5645630000000 1.0
C      1  0.5282040000000  0.4666350000000  0.4719390000000 1.0
END
