TITL C-599891-72-111 0.134463070181902 125000 -307.886338939633 0 0 52 (C1) n - 1
REM
REM in /home/nfs/bkarasulu/CARBON/AIRSS/Generating-Clusters/TERSOFF/Only-C1/FIRE-HFTN
REM
REM
REM
REM
REM
REM ./C.cell (11c1c37f851c82e70ff6c80c92926a4b)
REM AIRSS Version 0.9.1 bugfix July 2018 build 013d7b7c2542+ Fri, 06 Jul 2018 19:26:36 +0100
REM compiler GCC version 9.2.1 20190827 (Red Hat 9.2.1-1)
REM options -cpp -mtune=generic -march=x86-64 -g -O0 -fpre-include=/usr/include/finclude/math-vector-fortran.h
REM seed 2054243276 1622770759 -810284966 -132970574 1417027844 480129999 1208343754 -1077984453 358323194 -1289217723 181577637 1806046007 -1835164784 -255177983 1724170290 1322532113 -2118662413 -235678847 1579621151 -1756283291 -176821887 -997526144 457720037 1655472671 -1389714894 256303330 1732675613 -475073041 1066334563 -1548744720 806992909 -1299250363 -492095021
REM
CELL 1.54180   50.00000   50.00000   50.00000   90.00000   90.00000   90.00000
LATT -1
SFAC C  
C      1  0.5993470000000  0.4604490000000  0.5524770000000 1.0
C      1  0.4249910000000  0.5342510000000  0.5765730000000 1.0
C      1  0.4705970000000  0.4555310000000  0.4359330000000 1.0
C      1  0.4089650000000  0.4715500000000  0.4839090000000 1.0
C      1  0.5400920000000  0.5226330000000  0.5487990000000 1.0
C      1  0.5488090000000  0.4732000000000  0.4374770000000 1.0
C      1  0.5409470000000  0.5189950000000  0.5225520000000 1.0
C      1  0.4809140000000  0.5040240000000  0.4480980000000 1.0
C      1  0.4391490000000  0.5033750000000  0.5154760000000 1.0
C      1  0.4115310000000  0.4630290000000  0.4322840000000 1.0
C      1  0.4721670000000  0.4218810000000  0.4898470000000 1.0
C      1  0.5353810000000  0.5123430000000  0.4959600000000 1.0
C      1  0.4925340000000  0.5478580000000  0.4649820000000 1.0
C      1  0.5855400000000  0.5463660000000  0.4656530000000 1.0
C      1  0.4958100000000  0.4626280000000  0.5027440000000 1.0
C      1  0.5921100000000  0.5901140000000  0.4372670000000 1.0
C      1  0.4784690000000  0.4480640000000  0.4853450000000 1.0
C      1  0.4654910000000  0.5340910000000  0.6084180000000 1.0
C      1  0.4368510000000  0.5062480000000  0.4580480000000 1.0
C      1  0.4301600000000  0.5290130000000  0.5243160000000 1.0
C      1  0.4650210000000  0.5021210000000  0.4224240000000 1.0
C      1  0.4306220000000  0.4674280000000  0.4135230000000 1.0
C      1  0.4412260000000  0.5349390000000  0.5976080000000 1.0
C      1  0.5538160000000  0.4905750000000  0.4562450000000 1.0
C      1  0.4740230000000  0.5637730000000  0.4759420000000 1.0
C      1  0.4919310000000  0.5319540000000  0.6069200000000 1.0
C      1  0.5151110000000  0.5290280000000  0.5942950000000 1.0
C      1  0.4525370000000  0.5642120000000  0.4917570000000 1.0
C      1  0.4400180000000  0.5158140000000  0.4315750000000 1.0
C      1  0.4978360000000  0.5202360000000  0.4641640000000 1.0
C      1  0.4049660000000  0.4640670000000  0.4583800000000 1.0
C      1  0.5813420000000  0.4413080000000  0.5620970000000 1.0
C      1  0.4671400000000  0.4992130000000  0.5153870000000 1.0
C      1  0.4584020000000  0.4735960000000  0.4168300000000 1.0
C      1  0.5562980000000  0.4393250000000  0.5497420000000 1.0
C      1  0.5889200000000  0.5684160000000  0.4513600000000 1.0
C      1  0.4915710000000  0.4908890000000  0.5039730000000 1.0
C      1  0.6088140000000  0.4801170000000  0.5374210000000 1.0
C      1  0.4603160000000  0.4903870000000  0.4658340000000 1.0
C      1  0.5880150000000  0.4250020000000  0.5829810000000 1.0
C      1  0.4207510000000  0.5321730000000  0.5504210000000 1.0
C      1  0.5315820000000  0.5258290000000  0.5737260000000 1.0
C      1  0.5084430000000  0.5080330000000  0.4881120000000 1.0
C      1  0.5808420000000  0.5231730000000  0.4804000000000 1.0
C      1  0.4211450000000  0.4848520000000  0.5038510000000 1.0
C      1  0.6090860000000  0.4987080000000  0.5185010000000 1.0
C      1  0.4361310000000  0.5512960000000  0.5083160000000 1.0
C      1  0.5997080000000  0.5136290000000  0.4986830000000 1.0
C      1  0.4675970000000  0.4624200000000  0.4636250000000 1.0
C      1  0.5564840000000  0.5088150000000  0.4772440000000 1.0
C      1  0.5349210000000  0.4427020000000  0.5344400000000 1.0
C      1  0.5155320000000  0.4503260000000  0.5180660000000 1.0
END
