TITL C-599897-7526-791 2.22321047702591e-05 125000 -564.910461332999 0 0 93 (C1) n - 1
REM
REM in /home/nfs/bkarasulu/CARBON/AIRSS/Generating-Clusters/TERSOFF/Only-C1/FIRE-HFTN
REM
REM
REM
REM
REM
REM ./C.cell (11c1c37f851c82e70ff6c80c92926a4b)
REM AIRSS Version 0.9.1 bugfix July 2018 build 013d7b7c2542+ Fri, 06 Jul 2018 19:26:36 +0100
REM compiler GCC version 9.2.1 20190827 (Red Hat 9.2.1-1)
REM options -cpp -mtune=generic -march=x86-64 -g -O0 -fpre-include=/usr/include/finclude/math-vector-fortran.h
REM seed 555755353 -543825756 -1254898564 -341618685 -2136886612 95751025 186969757 -575955874 793227974 -537065631 466014609 -966582894 -76941201 1954221117 -476728883 -672163257 1208811466 -402737607 -168905606 -2105924549 1410283755 1769384641 236046452 -567254139 1549642664 733684183 -1490052018 -500808693 589556565 1059993639 904618657 2044399886 2090632081
REM
CELL 1.54180   50.00000   50.00000   50.00000   90.00000   90.00000   90.00000
LATT -1
SFAC C  
C      1  0.3969630000000  0.4982050000000  0.4755490000000 1.0
C      1  0.5370090000000  0.4469760000000  0.5504560000000 1.0
C      1  0.4936910000000  0.5967050000000  0.5189570000000 1.0
C      1  0.5781080000000  0.5251060000000  0.4605130000000 1.0
C      1  0.4972270000000  0.5203940000000  0.4544200000000 1.0
C      1  0.5245590000000  0.5287110000000  0.5293470000000 1.0
C      1  0.5486880000000  0.4565290000000  0.4436670000000 1.0
C      1  0.5447040000000  0.5640770000000  0.5661500000000 1.0
C      1  0.4457540000000  0.4647240000000  0.4445510000000 1.0
C      1  0.4700200000000  0.4486850000000  0.4359260000000 1.0
C      1  0.4971180000000  0.4430860000000  0.5145140000000 1.0
C      1  0.4456430000000  0.5605440000000  0.5123130000000 1.0
C      1  0.4188970000000  0.4851280000000  0.5342970000000 1.0
C      1  0.4866980000000  0.5394720000000  0.4364640000000 1.0
C      1  0.4308440000000  0.4445760000000  0.5170410000000 1.0
C      1  0.5250810000000  0.5796280000000  0.5552770000000 1.0
C      1  0.5777920000000  0.5487290000000  0.4793400000000 1.0
C      1  0.5246830000000  0.4346770000000  0.5262010000000 1.0
C      1  0.5495300000000  0.5249560000000  0.4541090000000 1.0
C      1  0.5122790000000  0.4840440000000  0.5223040000000 1.0
C      1  0.4852320000000  0.5171620000000  0.5060950000000 1.0
C      1  0.4124540000000  0.5472420000000  0.4770100000000 1.0
C      1  0.5046890000000  0.5606350000000  0.4311660000000 1.0
C      1  0.5034150000000  0.4578760000000  0.4885230000000 1.0
C      1  0.4909340000000  0.4766980000000  0.4685810000000 1.0
C      1  0.5584780000000  0.4675800000000  0.5553720000000 1.0
C      1  0.4664130000000  0.4875100000000  0.4780970000000 1.0
C      1  0.4323400000000  0.5154780000000  0.4999010000000 1.0
C      1  0.4781810000000  0.4992920000000  0.5772250000000 1.0
C      1  0.4435750000000  0.5195720000000  0.4341510000000 1.0
C      1  0.4421820000000  0.4745070000000  0.5509820000000 1.0
C      1  0.4476810000000  0.5081090000000  0.4791780000000 1.0
C      1  0.5592150000000  0.5418850000000  0.5723910000000 1.0
C      1  0.4843610000000  0.5567310000000  0.5439080000000 1.0
C      1  0.5257330000000  0.4134940000000  0.4571910000000 1.0
C      1  0.4650230000000  0.4735070000000  0.5032910000000 1.0
C      1  0.4816450000000  0.4049250000000  0.5352990000000 1.0
C      1  0.4552780000000  0.4996460000000  0.5606860000000 1.0
C      1  0.5837020000000  0.5075220000000  0.5452570000000 1.0
C      1  0.3698270000000  0.5342560000000  0.4588740000000 1.0
C      1  0.5684330000000  0.5149140000000  0.5689530000000 1.0
C      1  0.5859730000000  0.5270220000000  0.5249780000000 1.0
C      1  0.5606160000000  0.5710990000000  0.4699460000000 1.0
C      1  0.4997150000000  0.4502810000000  0.4307000000000 1.0
C      1  0.5265340000000  0.4081930000000  0.5132220000000 1.0
C      1  0.5210030000000  0.3911350000000  0.4417720000000 1.0
C      1  0.5006850000000  0.4541150000000  0.5883030000000 1.0
C      1  0.5810870000000  0.4786990000000  0.5402580000000 1.0
C      1  0.4576790000000  0.5635250000000  0.4638340000000 1.0
C      1  0.4103470000000  0.4661590000000  0.5139630000000 1.0
C      1  0.5246980000000  0.4391030000000  0.4435960000000 1.0
C      1  0.5027010000000  0.5359840000000  0.5488450000000 1.0
C      1  0.3934410000000  0.5264420000000  0.4706870000000 1.0
C      1  0.4751820000000  0.4331540000000  0.5322880000000 1.0
C      1  0.4588040000000  0.5433470000000  0.4416080000000 1.0
C      1  0.5386270000000  0.5181160000000  0.4803440000000 1.0
C      1  0.5054580000000  0.4782580000000  0.4248290000000 1.0
C      1  0.5410250000000  0.4905190000000  0.4850920000000 1.0
C      1  0.5972380000000  0.4671330000000  0.5207610000000 1.0
C      1  0.5044810000000  0.3931260000000  0.5249400000000 1.0
C      1  0.5246350000000  0.4996250000000  0.5663770000000 1.0
C      1  0.5312600000000  0.4090520000000  0.4850060000000 1.0
C      1  0.5859420000000  0.4965970000000  0.4577150000000 1.0
C      1  0.5249570000000  0.4738480000000  0.4990210000000 1.0
C      1  0.5204330000000  0.4433440000000  0.5736950000000 1.0
C      1  0.5270400000000  0.5013100000000  0.5374270000000 1.0
C      1  0.5507950000000  0.4912770000000  0.5733050000000 1.0
C      1  0.4315750000000  0.4592440000000  0.4703650000000 1.0
C      1  0.5676780000000  0.4763180000000  0.4461950000000 1.0
C      1  0.4082800000000  0.4734280000000  0.4845480000000 1.0
C      1  0.4848170000000  0.5949310000000  0.4937210000000 1.0
C      1  0.4934530000000  0.5267830000000  0.4821900000000 1.0
C      1  0.4460980000000  0.5234110000000  0.5451880000000 1.0
C      1  0.4503120000000  0.4475190000000  0.5396540000000 1.0
C      1  0.6084850000000  0.4721830000000  0.4970960000000 1.0
C      1  0.6060290000000  0.4859700000000  0.4743590000000 1.0
C      1  0.5015210000000  0.4935130000000  0.4479940000000 1.0
C      1  0.5410970000000  0.5339550000000  0.5058350000000 1.0
C      1  0.5077250000000  0.5772510000000  0.4545000000000 1.0
C      1  0.4576700000000  0.5488880000000  0.5360420000000 1.0
C      1  0.4419740000000  0.4919630000000  0.4335320000000 1.0
C      1  0.5006920000000  0.5153800000000  0.5703140000000 1.0
C      1  0.5349840000000  0.5796910000000  0.4645650000000 1.0
C      1  0.4263510000000  0.5119750000000  0.5269220000000 1.0
C      1  0.4997010000000  0.5810450000000  0.5414680000000 1.0
C      1  0.5432660000000  0.5333280000000  0.4282570000000 1.0
C      1  0.4843210000000  0.4903370000000  0.5181190000000 1.0
C      1  0.5276770000000  0.5523280000000  0.4173200000000 1.0
C      1  0.4476200000000  0.4509970000000  0.4943420000000 1.0
C      1  0.4825270000000  0.5801040000000  0.4696480000000 1.0
C      1  0.4843450000000  0.4752620000000  0.5910280000000 1.0
C      1  0.4374640000000  0.5596690000000  0.4845340000000 1.0
C      1  0.5699090000000  0.5405710000000  0.5062260000000 1.0
END
