TITL C-599894-471-635 1.71533089259822 125000 -744.947925716436 0 0 123 (C1) n - 1
REM
REM in /home/nfs/bkarasulu/CARBON/AIRSS/Generating-Clusters/TERSOFF/Only-C1/FIRE-HFTN
REM
REM
REM
REM
REM
REM ./C.cell (11c1c37f851c82e70ff6c80c92926a4b)
REM AIRSS Version 0.9.1 bugfix July 2018 build 013d7b7c2542+ Fri, 06 Jul 2018 19:26:36 +0100
REM compiler GCC version 9.2.1 20190827 (Red Hat 9.2.1-1)
REM options -cpp -mtune=generic -march=x86-64 -g -O0 -fpre-include=/usr/include/finclude/math-vector-fortran.h
REM seed 1947775727 69746180 70139920 965110469 1154630597 -1059204975 897110859 1369636692 -1175386686 675674012 928385927 806284205 -197599443 -66639609 -1592976419 -42278565 -763978476 -1314193156 -581345176 -627282928 -1454364173 566635847 -1886337242 -117390522 1654836057 186177787 335419845 -106761455 2032991417 -1061463650 1847967247 1925385083 -1480269137
REM
CELL 1.54180   50.00000   50.00000   50.00000   90.00000   90.00000   90.00000
LATT -1
SFAC C  
C      1  0.4312100000000  0.6233510000000  0.4584790000000 1.0
C      1  0.5414810000000  0.6655990000000  0.5858100000000 1.0
C      1  0.5457840000000  0.5310280000000  0.4555030000000 1.0
C      1  0.5459780000000  0.4443860000000  0.5934540000000 1.0
C      1  0.5414390000000  0.6427140000000  0.5733400000000 1.0
C      1  0.4405480000000  0.3890070000000  0.5492550000000 1.0
C      1  0.4823790000000  0.4631990000000  0.4499480000000 1.0
C      1  0.4702680000000  0.5391320000000  0.5985440000000 1.0
C      1  0.4068660000000  0.4523000000000  0.5664510000000 1.0
C      1  0.4959640000000  0.4623260000000  0.6658900000000 1.0
C      1  0.5094150000000  0.6524810000000  0.3915090000000 1.0
C      1  0.4818530000000  0.5916130000000  0.4111590000000 1.0
C      1  0.5305590000000  0.5945340000000  0.5730120000000 1.0
C      1  0.4653510000000  0.5125240000000  0.5981570000000 1.0
C      1  0.5971790000000  0.5585570000000  0.4875660000000 1.0
C      1  0.5412070000000  0.6180070000000  0.5604830000000 1.0
C      1  0.4557650000000  0.3976930000000  0.5719480000000 1.0
C      1  0.5343680000000  0.4175150000000  0.4619330000000 1.0
C      1  0.5587370000000  0.4671920000000  0.4901600000000 1.0
C      1  0.3755910000000  0.4402540000000  0.5075630000000 1.0
C      1  0.3748600000000  0.4582460000000  0.5276470000000 1.0
C      1  0.4252500000000  0.6492350000000  0.4584280000000 1.0
C      1  0.4186870000000  0.4081250000000  0.5487980000000 1.0
C      1  0.5165970000000  0.4823150000000  0.4757880000000 1.0
C      1  0.3986770000000  0.4057110000000  0.5297700000000 1.0
C      1  0.4484760000000  0.3749660000000  0.4990890000000 1.0
C      1  0.6249090000000  0.3911040000000  0.4933170000000 1.0
C      1  0.4699980000000  0.5026400000000  0.4740350000000 1.0
C      1  0.5176650000000  0.5978440000000  0.6253700000000 1.0
C      1  0.5541730000000  0.5133840000000  0.4318460000000 1.0
C      1  0.4940460000000  0.3829180000000  0.4606910000000 1.0
C      1  0.5850490000000  0.4979840000000  0.5271430000000 1.0
C      1  0.4866050000000  0.5560410000000  0.5851390000000 1.0
C      1  0.4801270000000  0.4536480000000  0.3995090000000 1.0
C      1  0.5032980000000  0.4674920000000  0.3990010000000 1.0
C      1  0.5498490000000  0.5161540000000  0.4821970000000 1.0
C      1  0.4603870000000  0.3916950000000  0.4270450000000 1.0
C      1  0.4487280000000  0.4178240000000  0.4256390000000 1.0
C      1  0.4248280000000  0.4308430000000  0.5663700000000 1.0
C      1  0.4297010000000  0.4228770000000  0.4466500000000 1.0
C      1  0.5595650000000  0.4326280000000  0.4120370000000 1.0
C      1  0.5054830000000  0.5510140000000  0.5644850000000 1.0
C      1  0.5493770000000  0.5930460000000  0.5173100000000 1.0
C      1  0.4409200000000  0.6929220000000  0.4359940000000 1.0
C      1  0.5176460000000  0.3951560000000  0.4615550000000 1.0
C      1  0.5126820000000  0.6266960000000  0.3969060000000 1.0
C      1  0.4425000000000  0.5760450000000  0.4635510000000 1.0
C      1  0.4550570000000  0.5260700000000  0.4746420000000 1.0
C      1  0.5172250000000  0.4290860000000  0.5301420000000 1.0
C      1  0.5395120000000  0.4475540000000  0.4229690000000 1.0
C      1  0.4460430000000  0.5508110000000  0.4710860000000 1.0
C      1  0.4599200000000  0.7000120000000  0.4187930000000 1.0
C      1  0.4627500000000  0.6023700000000  0.4285150000000 1.0
C      1  0.5316390000000  0.4668490000000  0.6024200000000 1.0
C      1  0.5430050000000  0.5827590000000  0.4463640000000 1.0
C      1  0.5729060000000  0.5679480000000  0.4797090000000 1.0
C      1  0.5604070000000  0.5251930000000  0.5580230000000 1.0
C      1  0.5432870000000  0.4885180000000  0.4816780000000 1.0
C      1  0.4238790000000  0.4021030000000  0.4658290000000 1.0
C      1  0.4458300000000  0.3849040000000  0.4729540000000 1.0
C      1  0.4467740000000  0.4573830000000  0.5013360000000 1.0
C      1  0.5349260000000  0.5710430000000  0.5283460000000 1.0
C      1  0.5573790000000  0.5589850000000  0.4564660000000 1.0
C      1  0.5595340000000  0.4357890000000  0.5721010000000 1.0
C      1  0.3871050000000  0.4623360000000  0.5512370000000 1.0
C      1  0.5800950000000  0.4060910000000  0.4825230000000 1.0
C      1  0.5654470000000  0.5180580000000  0.5306080000000 1.0
C      1  0.5051240000000  0.4654450000000  0.6128210000000 1.0
C      1  0.4771500000000  0.4914910000000  0.5830900000000 1.0
C      1  0.4966720000000  0.5314880000000  0.4312770000000 1.0
C      1  0.5294160000000  0.5483670000000  0.5123350000000 1.0
C      1  0.5441950000000  0.4359090000000  0.5249460000000 1.0
C      1  0.5302620000000  0.5681430000000  0.5583670000000 1.0
C      1  0.5292680000000  0.4709590000000  0.4099810000000 1.0
C      1  0.5433960000000  0.4949630000000  0.4152290000000 1.0
C      1  0.5112450000000  0.4177870000000  0.5549900000000 1.0
C      1  0.4451980000000  0.6005860000000  0.4503230000000 1.0
C      1  0.5005530000000  0.4637470000000  0.6402780000000 1.0
C      1  0.4983490000000  0.6765350000000  0.3936730000000 1.0
C      1  0.4827980000000  0.4659100000000  0.5943370000000 1.0
C      1  0.4251700000000  0.4486750000000  0.4566890000000 1.0
C      1  0.4807170000000  0.6938790000000  0.4034050000000 1.0
C      1  0.4826600000000  0.5414760000000  0.4109860000000 1.0
C      1  0.4477470000000  0.3758220000000  0.5257950000000 1.0
C      1  0.4609470000000  0.4373310000000  0.4090930000000 1.0
C      1  0.4913590000000  0.5010580000000  0.5603180000000 1.0
C      1  0.5288350000000  0.5889670000000  0.4233630000000 1.0
C      1  0.5589570000000  0.5912030000000  0.4909810000000 1.0
C      1  0.5271040000000  0.4413140000000  0.4478260000000 1.0
C      1  0.4749650000000  0.4402550000000  0.5842930000000 1.0
C      1  0.4615920000000  0.4785410000000  0.4615980000000 1.0
C      1  0.5082090000000  0.6022670000000  0.4096660000000 1.0
C      1  0.5433460000000  0.4913710000000  0.5956390000000 1.0
C      1  0.5495000000000  0.5282610000000  0.5084770000000 1.0
C      1  0.4772750000000  0.5657540000000  0.4012100000000 1.0
C      1  0.5567800000000  0.5058480000000  0.5778930000000 1.0
C      1  0.4009230000000  0.4052580000000  0.4818250000000 1.0
C      1  0.4413560000000  0.4634590000000  0.4739650000000 1.0
C      1  0.4700810000000  0.4426530000000  0.5075720000000 1.0
C      1  0.5647730000000  0.4379870000000  0.5447670000000 1.0
C      1  0.4951260000000  0.4359310000000  0.5140260000000 1.0
C      1  0.3896130000000  0.4158710000000  0.5051980000000 1.0
C      1  0.4332000000000  0.4706580000000  0.5209310000000 1.0
C      1  0.5903630000000  0.4458100000000  0.5342530000000 1.0
C      1  0.5949130000000  0.4735100000000  0.5316520000000 1.0
C      1  0.5513590000000  0.6150590000000  0.5344170000000 1.0
C      1  0.5161040000000  0.5335430000000  0.4492880000000 1.0
C      1  0.5227540000000  0.5954960000000  0.5999160000000 1.0
C      1  0.6036500000000  0.4075270000000  0.4981720000000 1.0
C      1  0.4507900000000  0.4261970000000  0.5790090000000 1.0
C      1  0.4669840000000  0.3834250000000  0.4536750000000 1.0
C      1  0.5091380000000  0.4608610000000  0.4584150000000 1.0
C      1  0.5558070000000  0.4198840000000  0.4802820000000 1.0
C      1  0.5542740000000  0.5514980000000  0.5656880000000 1.0
C      1  0.4284710000000  0.6743710000000  0.4504110000000 1.0
C      1  0.5446640000000  0.6017680000000  0.4682430000000 1.0
C      1  0.6042870000000  0.4266300000000  0.5190180000000 1.0
C      1  0.5026680000000  0.5246710000000  0.5535820000000 1.0
C      1  0.4959850000000  0.4996660000000  0.4845200000000 1.0
C      1  0.5528300000000  0.4412570000000  0.4986150000000 1.0
C      1  0.4643190000000  0.3758900000000  0.4051860000000 1.0
C      1  0.4973500000000  0.4245650000000  0.5765670000000 1.0
C      1  0.5046850000000  0.5473750000000  0.5007080000000 1.0
END
