TITL C-599890-3321-501 9.19010470561503 125000 -473.713719349516 0 0 80 (C1) n - 1
REM
REM in /home/nfs/bkarasulu/CARBON/AIRSS/Generating-Clusters/TERSOFF/Only-C1/FIRE-HFTN
REM
REM
REM
REM
REM
REM ./C.cell (11c1c37f851c82e70ff6c80c92926a4b)
REM AIRSS Version 0.9.1 bugfix July 2018 build 013d7b7c2542+ Fri, 06 Jul 2018 19:26:36 +0100
REM compiler GCC version 9.2.1 20190827 (Red Hat 9.2.1-1)
REM options -cpp -mtune=generic -march=x86-64 -g -O0 -fpre-include=/usr/include/finclude/math-vector-fortran.h
REM seed -1786840557 -1924800944 1052770046 354514969 -1279810626 2105773031 751349389 -464644141 -1187149461 1125197253 545337696 -1219735301 -403973968 468294311 1216472916 -674029975 -1807704538 2021063634 -1727157248 1779225450 640219497 11430776 -295770651 1794994927 492195189 -1649380430 873650994 -1762653184 -1015888248 116506990 203236588 1537275138 -1125516722
REM
CELL 1.54180   50.00000   50.00000   50.00000   90.00000   90.00000   90.00000
LATT -1
SFAC C  
C      1  0.4781550000000  0.5307760000000  0.4550580000000 1.0
C      1  0.5463500000000  0.4515840000000  0.4616290000000 1.0
C      1  0.6418340000000  0.5859190000000  0.5800480000000 1.0
C      1  0.5590850000000  0.5319780000000  0.5387040000000 1.0
C      1  0.5178910000000  0.5208430000000  0.4936100000000 1.0
C      1  0.4402230000000  0.5012200000000  0.4440020000000 1.0
C      1  0.4947520000000  0.4652190000000  0.5406810000000 1.0
C      1  0.5222250000000  0.4362990000000  0.5015500000000 1.0
C      1  0.5007490000000  0.5637080000000  0.4821450000000 1.0
C      1  0.4383780000000  0.5037030000000  0.4157210000000 1.0
C      1  0.4764760000000  0.4838220000000  0.4734620000000 1.0
C      1  0.5563630000000  0.4149540000000  0.4302890000000 1.0
C      1  0.5032900000000  0.5030070000000  0.5091920000000 1.0
C      1  0.4610730000000  0.4597020000000  0.4646160000000 1.0
C      1  0.4205250000000  0.4947310000000  0.4633280000000 1.0
C      1  0.5623960000000  0.5194900000000  0.5132160000000 1.0
C      1  0.5373830000000  0.6035260000000  0.4826120000000 1.0
C      1  0.5115950000000  0.4652210000000  0.4164150000000 1.0
C      1  0.4785470000000  0.3983780000000  0.4814720000000 1.0
C      1  0.4596250000000  0.5527050000000  0.4538140000000 1.0
C      1  0.4329390000000  0.5851350000000  0.4801030000000 1.0
C      1  0.4906570000000  0.4267530000000  0.4403090000000 1.0
C      1  0.4421280000000  0.5167310000000  0.5536470000000 1.0
C      1  0.4855610000000  0.5168490000000  0.6228990000000 1.0
C      1  0.4911190000000  0.4037210000000  0.4568930000000 1.0
C      1  0.5633400000000  0.4743870000000  0.4594060000000 1.0
C      1  0.5398380000000  0.4343710000000  0.4398180000000 1.0
C      1  0.5781370000000  0.4975250000000  0.5047380000000 1.0
C      1  0.4542080000000  0.4379300000000  0.5254280000000 1.0
C      1  0.5509420000000  0.4931170000000  0.6165350000000 1.0
C      1  0.4389210000000  0.5076720000000  0.5268570000000 1.0
C      1  0.5185860000000  0.5849060000000  0.4814480000000 1.0
C      1  0.4589590000000  0.5189840000000  0.5097340000000 1.0
C      1  0.4829140000000  0.4421800000000  0.5296610000000 1.0
C      1  0.5048000000000  0.4723830000000  0.4735080000000 1.0
C      1  0.5767630000000  0.6381780000000  0.4861540000000 1.0
C      1  0.6012870000000  0.5593690000000  0.5596700000000 1.0
C      1  0.5015060000000  0.4242900000000  0.5159030000000 1.0
C      1  0.4266730000000  0.4844830000000  0.5152930000000 1.0
C      1  0.4667830000000  0.5049620000000  0.4543340000000 1.0
C      1  0.4675260000000  0.4424870000000  0.4448600000000 1.0
C      1  0.5051040000000  0.5363690000000  0.4678760000000 1.0
C      1  0.5553420000000  0.4925660000000  0.4391020000000 1.0
C      1  0.4356570000000  0.4590780000000  0.5240050000000 1.0
C      1  0.5319100000000  0.5076690000000  0.4322110000000 1.0
C      1  0.4506410000000  0.4057660000000  0.4878870000000 1.0
C      1  0.4630470000000  0.5071370000000  0.4022460000000 1.0
C      1  0.5137540000000  0.4398330000000  0.4290030000000 1.0
C      1  0.4897730000000  0.5060330000000  0.4041580000000 1.0
C      1  0.5097740000000  0.5440610000000  0.5475530000000 1.0
C      1  0.5289040000000  0.5316030000000  0.4482730000000 1.0
C      1  0.5118880000000  0.4937650000000  0.4165830000000 1.0
C      1  0.6217290000000  0.5727540000000  0.5699430000000 1.0
C      1  0.5345240000000  0.5315080000000  0.5539410000000 1.0
C      1  0.4880250000000  0.4736590000000  0.6049070000000 1.0
C      1  0.4479620000000  0.4110220000000  0.5167790000000 1.0
C      1  0.5351580000000  0.5169480000000  0.5779820000000 1.0
C      1  0.4817320000000  0.5446050000000  0.5432360000000 1.0
C      1  0.4160000000000  0.4878480000000  0.4890440000000 1.0
C      1  0.5781420000000  0.4826390000000  0.4821280000000 1.0
C      1  0.4684190000000  0.3918860000000  0.5268940000000 1.0
C      1  0.5302000000000  0.5024970000000  0.6013800000000 1.0
C      1  0.5515410000000  0.5372510000000  0.4662830000000 1.0
C      1  0.4141130000000  0.5028730000000  0.4021900000000 1.0
C      1  0.4709260000000  0.5448440000000  0.5164260000000 1.0
C      1  0.4626940000000  0.5331600000000  0.5614520000000 1.0
C      1  0.5079730000000  0.4868590000000  0.5316240000000 1.0
C      1  0.5808330000000  0.5460320000000  0.5494120000000 1.0
C      1  0.4912460000000  0.5421370000000  0.6308650000000 1.0
C      1  0.5454820000000  0.5284860000000  0.4928540000000 1.0
C      1  0.4909510000000  0.3985790000000  0.5087910000000 1.0
C      1  0.4603660000000  0.5025810000000  0.6258510000000 1.0
C      1  0.4768020000000  0.4998610000000  0.4989300000000 1.0
C      1  0.5571580000000  0.6210910000000  0.4843250000000 1.0
C      1  0.5036520000000  0.4978370000000  0.6091170000000 1.0
C      1  0.5252960000000  0.4543050000000  0.4804950000000 1.0
C      1  0.4541530000000  0.5685900000000  0.4767490000000 1.0
C      1  0.4751150000000  0.5639860000000  0.4957600000000 1.0
C      1  0.4624060000000  0.4771040000000  0.6150090000000 1.0
C      1  0.3911100000000  0.5019820000000  0.3899740000000 1.0
END
