TITL C-599891-72-546 1.50591832518505 125000 -159.170818450189 0 0 29 (C1) n - 1
REM
REM in /home/nfs/bkarasulu/CARBON/AIRSS/Generating-Clusters/TERSOFF/Only-C1/FIRE-HFTN
REM
REM
REM
REM
REM
REM ./C.cell (11c1c37f851c82e70ff6c80c92926a4b)
REM AIRSS Version 0.9.1 bugfix July 2018 build 013d7b7c2542+ Fri, 06 Jul 2018 19:26:36 +0100
REM compiler GCC version 9.2.1 20190827 (Red Hat 9.2.1-1)
REM options -cpp -mtune=generic -march=x86-64 -g -O0 -fpre-include=/usr/include/finclude/math-vector-fortran.h
REM seed -986021990 -1776494700 -575736346 -858667244 -1815923208 -796750260 -1120958060 895235120 -1218308006 30343626 899375346 1189497190 -294725011 240453174 -1835193205 1449315716 537199785 339266203 1524588727 1114934479 -308063362 300093730 -515646209 -1452998835 -597904796 -645448315 1663168684 1727618743 1493858876 920380346 -1214409361 -1028180188 1184443526
REM
CELL 1.54180   50.00000   50.00000   50.00000   90.00000   90.00000   90.00000
LATT -1
SFAC C  
C      1  0.4959760000000  0.5464690000000  0.4678050000000 1.0
C      1  0.5464710000000  0.4778480000000  0.5491440000000 1.0
C      1  0.5532750000000  0.5254710000000  0.5544060000000 1.0
C      1  0.4985800000000  0.4141930000000  0.5529210000000 1.0
C      1  0.4897130000000  0.5188280000000  0.5227910000000 1.0
C      1  0.4562700000000  0.5326440000000  0.4065730000000 1.0
C      1  0.4971190000000  0.3930460000000  0.5701820000000 1.0
C      1  0.4409090000000  0.5520800000000  0.3602120000000 1.0
C      1  0.5091230000000  0.5511010000000  0.4920480000000 1.0
C      1  0.4811740000000  0.5372210000000  0.4478830000000 1.0
C      1  0.5337370000000  0.4553070000000  0.5547720000000 1.0
C      1  0.4671820000000  0.4240170000000  0.5100430000000 1.0
C      1  0.4877670000000  0.5657730000000  0.5329440000000 1.0
C      1  0.4519990000000  0.4742110000000  0.4523280000000 1.0
C      1  0.4644270000000  0.5223260000000  0.4311900000000 1.0
C      1  0.5809070000000  0.5039920000000  0.4913870000000 1.0
C      1  0.5695450000000  0.5029340000000  0.5148170000000 1.0
C      1  0.5489290000000  0.5485020000000  0.5667560000000 1.0
C      1  0.5179600000000  0.4340780000000  0.5563360000000 1.0
C      1  0.5347290000000  0.5607130000000  0.4924790000000 1.0
C      1  0.4954480000000  0.5454270000000  0.5163400000000 1.0
C      1  0.4525090000000  0.4537610000000  0.4691850000000 1.0
C      1  0.4807260000000  0.4163780000000  0.5314980000000 1.0
C      1  0.4485270000000  0.5424410000000  0.3832050000000 1.0
C      1  0.5442300000000  0.5714220000000  0.5782530000000 1.0
C      1  0.4576210000000  0.4367050000000  0.4888230000000 1.0
C      1  0.4827100000000  0.4940440000000  0.5267810000000 1.0
C      1  0.5565090000000  0.5020700000000  0.5395090000000 1.0
C      1  0.4559290000000  0.4969990000000  0.4393900000000 1.0
END
