TITL C-599890-3321-582 183.945006911641 125000 -1214.45599646092 0 0 198 (C1) n - 1
REM
REM in /home/nfs/bkarasulu/CARBON/AIRSS/Generating-Clusters/TERSOFF/Only-C1/FIRE-HFTN
REM
REM
REM
REM
REM
REM ./C.cell (11c1c37f851c82e70ff6c80c92926a4b)
REM AIRSS Version 0.9.1 bugfix July 2018 build 013d7b7c2542+ Fri, 06 Jul 2018 19:26:36 +0100
REM compiler GCC version 9.2.1 20190827 (Red Hat 9.2.1-1)
REM options -cpp -mtune=generic -march=x86-64 -g -O0 -fpre-include=/usr/include/finclude/math-vector-fortran.h
REM seed -815981999 -1802312328 1103284538 -65807382 -64599518 1418862534 -782771399 121995395 -1218513527 -2138707500 -471274742 601691096 -562495975 -1307269862 -1889521831 2053470238 119024269 -582320464 532968834 1558496197 135587573 -1195591758 -987575391 1511151007 -1358545226 -873945898 -1368220437 -1551438528 -1017380670 -396215884 -909798848 -1074396758 -1115720284
REM
CELL 1.54180   50.00000   50.00000   50.00000   90.00000   90.00000   90.00000
LATT -1
SFAC C  
C      1  0.5401320000000  0.4725990000000  0.6154330000000 1.0
C      1  0.6081110000000  0.5531170000000  0.4559170000000 1.0
C      1  0.6245530000000  0.5323580000000  0.4509460000000 1.0
C      1  0.4172700000000  0.5234340000000  0.4676660000000 1.0
C      1  0.4540010000000  0.6199830000000  0.5304130000000 1.0
C      1  0.4844270000000  0.5198080000000  0.5248070000000 1.0
C      1  0.4783360000000  0.5208820000000  0.4952890000000 1.0
C      1  0.5672110000000  0.5016980000000  0.4466510000000 1.0
C      1  0.4831190000000  0.5003910000000  0.4506430000000 1.0
C      1  0.4258750000000  0.4933240000000  0.5162320000000 1.0
C      1  0.4871810000000  0.4406710000000  0.4107450000000 1.0
C      1  0.5484580000000  0.5217500000000  0.4422800000000 1.0
C      1  0.5701900000000  0.5552460000000  0.4048490000000 1.0
C      1  0.4096480000000  0.6043830000000  0.5167560000000 1.0
C      1  0.4856690000000  0.4707460000000  0.5063300000000 1.0
C      1  0.4865720000000  0.4547520000000  0.4823390000000 1.0
C      1  0.4295550000000  0.6223100000000  0.5189170000000 1.0
C      1  0.5808080000000  0.5271990000000  0.4053890000000 1.0
C      1  0.5765370000000  0.4266520000000  0.4228530000000 1.0
C      1  0.4903470000000  0.5604200000000  0.5538720000000 1.0
C      1  0.5533510000000  0.5588210000000  0.6005470000000 1.0
C      1  0.4640270000000  0.4719650000000  0.5575910000000 1.0
C      1  0.4629900000000  0.4491360000000  0.5770570000000 1.0
C      1  0.4759070000000  0.5408010000000  0.5951390000000 1.0
C      1  0.5879910000000  0.4498030000000  0.4155950000000 1.0
C      1  0.5814930000000  0.5535280000000  0.4595580000000 1.0
C      1  0.5379530000000  0.5673850000000  0.5213710000000 1.0
C      1  0.5111200000000  0.3970970000000  0.5630220000000 1.0
C      1  0.5834780000000  0.4768780000000  0.4097100000000 1.0
C      1  0.5288130000000  0.5142740000000  0.5087610000000 1.0
C      1  0.5983560000000  0.4404470000000  0.5576120000000 1.0
C      1  0.5284600000000  0.4187680000000  0.4187150000000 1.0
C      1  0.3816430000000  0.4718370000000  0.4841830000000 1.0
C      1  0.5220510000000  0.5218080000000  0.5858560000000 1.0
C      1  0.5010500000000  0.6033990000000  0.4268820000000 1.0
C      1  0.4374870000000  0.5139160000000  0.5547920000000 1.0
C      1  0.5095620000000  0.4121630000000  0.4777410000000 1.0
C      1  0.4699930000000  0.5698550000000  0.4716000000000 1.0
C      1  0.5420400000000  0.5839560000000  0.5451240000000 1.0
C      1  0.4078790000000  0.4290110000000  0.5082970000000 1.0
C      1  0.5520550000000  0.5108550000000  0.5817040000000 1.0
C      1  0.5637840000000  0.5125670000000  0.3851010000000 1.0
C      1  0.5562680000000  0.5453430000000  0.4549180000000 1.0
C      1  0.3874260000000  0.5032910000000  0.4385370000000 1.0
C      1  0.4767480000000  0.4361440000000  0.5328030000000 1.0
C      1  0.5814690000000  0.4239160000000  0.5706730000000 1.0
C      1  0.4852190000000  0.4565850000000  0.4343780000000 1.0
C      1  0.5135200000000  0.3819630000000  0.5142750000000 1.0
C      1  0.5684450000000  0.4081350000000  0.5133720000000 1.0
C      1  0.4920790000000  0.5890540000000  0.5508500000000 1.0
C      1  0.4340550000000  0.5696640000000  0.5756640000000 1.0
C      1  0.4392200000000  0.4669430000000  0.5158790000000 1.0
C      1  0.5262820000000  0.5925630000000  0.4185270000000 1.0
C      1  0.4627280000000  0.5956130000000  0.5445960000000 1.0
C      1  0.5987030000000  0.4501200000000  0.5304790000000 1.0
C      1  0.4381100000000  0.4191120000000  0.5551710000000 1.0
C      1  0.6141940000000  0.5060380000000  0.4510520000000 1.0
C      1  0.4747970000000  0.5990760000000  0.4325890000000 1.0
C      1  0.3890670000000  0.4823530000000  0.4190930000000 1.0
C      1  0.4365310000000  0.5664390000000  0.4335210000000 1.0
C      1  0.4893160000000  0.5467220000000  0.5304580000000 1.0
C      1  0.5538660000000  0.4618950000000  0.5399640000000 1.0
C      1  0.4667360000000  0.6041460000000  0.5933100000000 1.0
C      1  0.4615210000000  0.4709700000000  0.6176680000000 1.0
C      1  0.5691030000000  0.5854410000000  0.5529360000000 1.0
C      1  0.5749810000000  0.5915900000000  0.4816100000000 1.0
C      1  0.5610440000000  0.4846020000000  0.3913650000000 1.0
C      1  0.5645600000000  0.4840050000000  0.4678940000000 1.0
C      1  0.5221780000000  0.5032140000000  0.4834930000000 1.0
C      1  0.5311990000000  0.6118040000000  0.4737410000000 1.0
C      1  0.3934610000000  0.4453200000000  0.5283580000000 1.0
C      1  0.4432680000000  0.4554050000000  0.4532570000000 1.0
C      1  0.3928460000000  0.5123090000000  0.5451210000000 1.0
C      1  0.5728850000000  0.5786900000000  0.4205940000000 1.0
C      1  0.5391690000000  0.4624830000000  0.4400630000000 1.0
C      1  0.5247390000000  0.4831670000000  0.4233800000000 1.0
C      1  0.4036220000000  0.5783450000000  0.5222710000000 1.0
C      1  0.5299300000000  0.4174210000000  0.5724250000000 1.0
C      1  0.4949020000000  0.5578070000000  0.4589410000000 1.0
C      1  0.5590740000000  0.4036870000000  0.4606700000000 1.0
C      1  0.4484070000000  0.4861300000000  0.3914420000000 1.0
C      1  0.5346690000000  0.4550310000000  0.4905320000000 1.0
C      1  0.5239230000000  0.5747570000000  0.3948610000000 1.0
C      1  0.4708330000000  0.3852500000000  0.4868720000000 1.0
C      1  0.4872980000000  0.4632880000000  0.6259950000000 1.0
C      1  0.3835960000000  0.4705100000000  0.5142410000000 1.0
C      1  0.6107240000000  0.5028000000000  0.5073080000000 1.0
C      1  0.4039380000000  0.5392640000000  0.4879960000000 1.0
C      1  0.4838330000000  0.4020520000000  0.5706200000000 1.0
C      1  0.4617660000000  0.4204610000000  0.5726000000000 1.0
C      1  0.4286040000000  0.5351470000000  0.6100370000000 1.0
C      1  0.5265830000000  0.3956920000000  0.4930110000000 1.0
C      1  0.4855710000000  0.5209110000000  0.3997400000000 1.0
C      1  0.3957160000000  0.5527840000000  0.5122660000000 1.0
C      1  0.5417280000000  0.5383230000000  0.5188690000000 1.0
C      1  0.5059440000000  0.4758630000000  0.3807020000000 1.0
C      1  0.4328600000000  0.4618360000000  0.4269480000000 1.0
C      1  0.4030670000000  0.4561650000000  0.4730310000000 1.0
C      1  0.5169690000000  0.5923520000000  0.5895740000000 1.0
C      1  0.5115950000000  0.4399980000000  0.4817050000000 1.0
C      1  0.5605340000000  0.4715360000000  0.6344990000000 1.0
C      1  0.5390440000000  0.4804600000000  0.4784610000000 1.0
C      1  0.4705940000000  0.4522080000000  0.4583680000000 1.0
C      1  0.4316970000000  0.5408250000000  0.4221060000000 1.0
C      1  0.4269020000000  0.4719940000000  0.4696420000000 1.0
C      1  0.4292320000000  0.4088840000000  0.4665120000000 1.0
C      1  0.4714330000000  0.5624550000000  0.3880820000000 1.0
C      1  0.4606480000000  0.5449360000000  0.4897600000000 1.0
C      1  0.4061080000000  0.4612010000000  0.4178690000000 1.0
C      1  0.5417570000000  0.4633740000000  0.5660470000000 1.0
C      1  0.4972460000000  0.4814940000000  0.4345820000000 1.0
C      1  0.4580510000000  0.4986050000000  0.5654330000000 1.0
C      1  0.4978530000000  0.4152450000000  0.4213080000000 1.0
C      1  0.6063310000000  0.5228460000000  0.5522290000000 1.0
C      1  0.4579990000000  0.4983730000000  0.6115500000000 1.0
C      1  0.4113700000000  0.5070820000000  0.5660170000000 1.0
C      1  0.6100420000000  0.4227360000000  0.4916640000000 1.0
C      1  0.3757470000000  0.4935510000000  0.4646790000000 1.0
C      1  0.4948630000000  0.5086430000000  0.4752550000000 1.0
C      1  0.4930600000000  0.6041280000000  0.6000510000000 1.0
C      1  0.4823310000000  0.5964880000000  0.4830810000000 1.0
C      1  0.4567590000000  0.5810860000000  0.4463010000000 1.0
C      1  0.5192660000000  0.5945350000000  0.5602980000000 1.0
C      1  0.3973460000000  0.4934540000000  0.5239350000000 1.0
C      1  0.4502600000000  0.5934120000000  0.5725040000000 1.0
C      1  0.4139270000000  0.4916320000000  0.5897710000000 1.0
C      1  0.5889850000000  0.4745080000000  0.4771770000000 1.0
C      1  0.6017470000000  0.4802770000000  0.5278300000000 1.0
C      1  0.4346630000000  0.4999180000000  0.4663360000000 1.0
C      1  0.5212140000000  0.4432900000000  0.5646400000000 1.0
C      1  0.4122180000000  0.4424310000000  0.5588650000000 1.0
C      1  0.4864240000000  0.3749680000000  0.5084630000000 1.0
C      1  0.4377700000000  0.5192510000000  0.5262490000000 1.0
C      1  0.4112080000000  0.5646220000000  0.5574210000000 1.0
C      1  0.4871480000000  0.3987860000000  0.4670200000000 1.0
C      1  0.3926480000000  0.5394790000000  0.5383230000000 1.0
C      1  0.5802250000000  0.4710980000000  0.6515640000000 1.0
C      1  0.5573460000000  0.4113100000000  0.5641150000000 1.0
C      1  0.4453930000000  0.5461820000000  0.5148770000000 1.0
C      1  0.4774160000000  0.4042970000000  0.4406940000000 1.0
C      1  0.5542090000000  0.4006870000000  0.4886200000000 1.0
C      1  0.5593620000000  0.5272580000000  0.5371000000000 1.0
C      1  0.5257940000000  0.5672440000000  0.6001490000000 1.0
C      1  0.5454190000000  0.5567400000000  0.3879370000000 1.0
C      1  0.5046440000000  0.4446400000000  0.5407650000000 1.0
C      1  0.4500140000000  0.5708320000000  0.5291440000000 1.0
C      1  0.5343170000000  0.4402850000000  0.3986680000000 1.0
C      1  0.5891960000000  0.5766690000000  0.5000750000000 1.0
C      1  0.5184450000000  0.5778440000000  0.5040410000000 1.0
C      1  0.4343540000000  0.4381530000000  0.5129810000000 1.0
C      1  0.4658310000000  0.4654290000000  0.5281330000000 1.0
C      1  0.5457080000000  0.5316640000000  0.3736290000000 1.0
C      1  0.5915600000000  0.4277130000000  0.5118400000000 1.0
C      1  0.5465590000000  0.4808080000000  0.5888150000000 1.0
C      1  0.5000190000000  0.5059720000000  0.5450460000000 1.0
C      1  0.4457200000000  0.4560180000000  0.5988830000000 1.0
C      1  0.5981930000000  0.5587110000000  0.5212360000000 1.0
C      1  0.4459380000000  0.4870820000000  0.4196490000000 1.0
C      1  0.5893940000000  0.5661960000000  0.5489940000000 1.0
C      1  0.4855400000000  0.4554250000000  0.3858660000000 1.0
C      1  0.5106640000000  0.5997500000000  0.4882850000000 1.0
C      1  0.4469690000000  0.5510820000000  0.5945980000000 1.0
C      1  0.5062160000000  0.5285920000000  0.4181240000000 1.0
C      1  0.6095580000000  0.5302850000000  0.5220070000000 1.0
C      1  0.5917340000000  0.5437660000000  0.5680890000000 1.0
C      1  0.5013200000000  0.5069980000000  0.5733690000000 1.0
C      1  0.4090790000000  0.5250960000000  0.4386020000000 1.0
C      1  0.4080760000000  0.4276590000000  0.4788410000000 1.0
C      1  0.4509920000000  0.4223540000000  0.5296060000000 1.0
C      1  0.5517610000000  0.5929610000000  0.4337990000000 1.0
C      1  0.5536220000000  0.4134700000000  0.4343090000000 1.0
C      1  0.4948610000000  0.5023840000000  0.3801240000000 1.0
C      1  0.4968410000000  0.5611170000000  0.5083810000000 1.0
C      1  0.4970160000000  0.5717630000000  0.3846630000000 1.0
C      1  0.4611650000000  0.5381980000000  0.4005710000000 1.0
C      1  0.5023860000000  0.5496480000000  0.4352830000000 1.0
C      1  0.4599170000000  0.4652510000000  0.3782210000000 1.0
C      1  0.5138080000000  0.4654630000000  0.6228140000000 1.0
C      1  0.5922090000000  0.4969080000000  0.5508590000000 1.0
C      1  0.4300550000000  0.5067920000000  0.6096850000000 1.0
C      1  0.5324940000000  0.4714330000000  0.3950850000000 1.0
C      1  0.5545590000000  0.6002580000000  0.4621960000000 1.0
C      1  0.5911040000000  0.5016290000000  0.4282740000000 1.0
C      1  0.5257640000000  0.3868910000000  0.5392090000000 1.0
C      1  0.4745640000000  0.5095840000000  0.5876640000000 1.0
C      1  0.5097820000000  0.4688970000000  0.5230000000000 1.0
C      1  0.4476830000000  0.4082860000000  0.4422140000000 1.0
C      1  0.4428940000000  0.3903900000000  0.4848840000000 1.0
C      1  0.4549720000000  0.5012340000000  0.4443100000000 1.0
C      1  0.5690350000000  0.5380220000000  0.5880970000000 1.0
C      1  0.6096970000000  0.4943210000000  0.4786380000000 1.0
C      1  0.5541270000000  0.3984860000000  0.5378630000000 1.0
C      1  0.5202790000000  0.4946300000000  0.5290460000000 1.0
C      1  0.4194560000000  0.4628000000000  0.5861410000000 1.0
C      1  0.5284700000000  0.5128170000000  0.4248230000000 1.0
C      1  0.5650390000000  0.5060830000000  0.5543540000000 1.0
C      1  0.5491130000000  0.4525830000000  0.5149230000000 1.0
C      1  0.5073280000000  0.5451780000000  0.5973710000000 1.0
END
