TITL C-599894-471-792 1.65976493095274 125000 -920.2314648309 0 0 150 (C1) n - 1
REM
REM in /home/nfs/bkarasulu/CARBON/AIRSS/Generating-Clusters/TERSOFF/Only-C1/FIRE-HFTN
REM
REM
REM
REM
REM
REM ./C.cell (11c1c37f851c82e70ff6c80c92926a4b)
REM AIRSS Version 0.9.1 bugfix July 2018 build 013d7b7c2542+ Fri, 06 Jul 2018 19:26:36 +0100
REM compiler GCC version 9.2.1 20190827 (Red Hat 9.2.1-1)
REM options -cpp -mtune=generic -march=x86-64 -g -O0 -fpre-include=/usr/include/finclude/math-vector-fortran.h
REM seed -77536557 880746506 172491314 -2038196314 466208407 -328075249 801410916 -461666453 1400440903 2052299069 1873523826 1236158376 1036270122 538540868 -1945572020 98707468 -1908271670 -595355092 -1554274700 1681324189 -603559311 2030022728 -1707415706 -312057084 1829538690 -1191526385 1917686466 1624108056 -2110706007 532626438 -739768693 1896405079 1427285916
REM
CELL 1.54180   50.00000   50.00000   50.00000   90.00000   90.00000   90.00000
LATT -1
SFAC C  
C      1  0.4952800000000  0.4008000000000  0.4528820000000 1.0
C      1  0.5010710000000  0.5127600000000  0.5005900000000 1.0
C      1  0.5528100000000  0.5558580000000  0.4373600000000 1.0
C      1  0.5384470000000  0.5882610000000  0.5397870000000 1.0
C      1  0.4505390000000  0.6013650000000  0.5006860000000 1.0
C      1  0.6006780000000  0.4593420000000  0.5265320000000 1.0
C      1  0.4404790000000  0.4782900000000  0.4352270000000 1.0
C      1  0.5248240000000  0.4815920000000  0.4798660000000 1.0
C      1  0.4509690000000  0.4447620000000  0.6154320000000 1.0
C      1  0.5727590000000  0.4279530000000  0.4979520000000 1.0
C      1  0.4893010000000  0.5157940000000  0.4719280000000 1.0
C      1  0.5990310000000  0.5410650000000  0.5574250000000 1.0
C      1  0.4732390000000  0.5943740000000  0.4582760000000 1.0
C      1  0.4075180000000  0.5769350000000  0.4882930000000 1.0
C      1  0.3928470000000  0.5611110000000  0.4698360000000 1.0
C      1  0.3906630000000  0.4521620000000  0.4666130000000 1.0
C      1  0.2786780000000  0.4853260000000  0.5118220000000 1.0
C      1  0.5471280000000  0.3981840000000  0.5674430000000 1.0
C      1  0.5140530000000  0.5382180000000  0.5107710000000 1.0
C      1  0.4771180000000  0.4579240000000  0.4784700000000 1.0
C      1  0.4965230000000  0.5448260000000  0.4667890000000 1.0
C      1  0.5933190000000  0.4106170000000  0.3756300000000 1.0
C      1  0.5010370000000  0.3879550000000  0.4980510000000 1.0
C      1  0.5366290000000  0.5219900000000  0.5524460000000 1.0
C      1  0.4457230000000  0.5864150000000  0.4560420000000 1.0
C      1  0.5550420000000  0.4977010000000  0.4398240000000 1.0
C      1  0.5997590000000  0.4862500000000  0.5712240000000 1.0
C      1  0.5314720000000  0.4555410000000  0.6442190000000 1.0
C      1  0.5249960000000  0.4002860000000  0.4486320000000 1.0
C      1  0.6147840000000  0.4100520000000  0.3600900000000 1.0
C      1  0.4786250000000  0.4303510000000  0.4842420000000 1.0
C      1  0.5269540000000  0.3815480000000  0.4928640000000 1.0
C      1  0.5144330000000  0.4885680000000  0.5053670000000 1.0
C      1  0.4746970000000  0.4511260000000  0.5731420000000 1.0
C      1  0.5251200000000  0.4107760000000  0.5790830000000 1.0
C      1  0.5942850000000  0.5319020000000  0.4558120000000 1.0
C      1  0.4841430000000  0.5463670000000  0.5544070000000 1.0
C      1  0.4872020000000  0.4044200000000  0.4797810000000 1.0
C      1  0.4088990000000  0.4725880000000  0.5590220000000 1.0
C      1  0.5719160000000  0.4112740000000  0.3912390000000 1.0
C      1  0.5508900000000  0.4126080000000  0.4072900000000 1.0
C      1  0.4991930000000  0.5552350000000  0.4398340000000 1.0
C      1  0.5575260000000  0.5828580000000  0.4314250000000 1.0
C      1  0.4609950000000  0.4889080000000  0.3886350000000 1.0
C      1  0.5774540000000  0.5764740000000  0.4851980000000 1.0
C      1  0.5030980000000  0.4258410000000  0.4153660000000 1.0
C      1  0.5652170000000  0.5751440000000  0.5387150000000 1.0
C      1  0.4796110000000  0.4791150000000  0.3713180000000 1.0
C      1  0.5474140000000  0.4656820000000  0.4754710000000 1.0
C      1  0.4317310000000  0.5893400000000  0.4808510000000 1.0
C      1  0.6020950000000  0.4355930000000  0.5651480000000 1.0
C      1  0.5456190000000  0.5996310000000  0.4502720000000 1.0
C      1  0.5882490000000  0.4818670000000  0.5965500000000 1.0
C      1  0.5968640000000  0.5559740000000  0.4724110000000 1.0
C      1  0.5116950000000  0.4798580000000  0.5537830000000 1.0
C      1  0.5142200000000  0.5070410000000  0.5617400000000 1.0
C      1  0.5801210000000  0.4556600000000  0.4404440000000 1.0
C      1  0.4630000000000  0.4601130000000  0.5262620000000 1.0
C      1  0.4011550000000  0.4857600000000  0.5354440000000 1.0
C      1  0.4941080000000  0.6242760000000  0.4951130000000 1.0
C      1  0.3287790000000  0.4793020000000  0.4955960000000 1.0
C      1  0.4372000000000  0.5005240000000  0.4538280000000 1.0
C      1  0.4551530000000  0.4548940000000  0.5526140000000 1.0
C      1  0.4427370000000  0.5363360000000  0.5233180000000 1.0
C      1  0.5731070000000  0.5541950000000  0.5581970000000 1.0
C      1  0.4985890000000  0.4614750000000  0.3797660000000 1.0
C      1  0.5031810000000  0.3983170000000  0.5916060000000 1.0
C      1  0.4992180000000  0.4521450000000  0.4065030000000 1.0
C      1  0.5077350000000  0.4938620000000  0.4582710000000 1.0
C      1  0.5771140000000  0.5169490000000  0.4367870000000 1.0
C      1  0.4666490000000  0.5470690000000  0.5111810000000 1.0
C      1  0.3037310000000  0.4823120000000  0.5037070000000 1.0
C      1  0.5613010000000  0.4720370000000  0.4515060000000 1.0
C      1  0.4539440000000  0.4973400000000  0.4972530000000 1.0
C      1  0.4796960000000  0.4097230000000  0.5982400000000 1.0
C      1  0.5524090000000  0.5382740000000  0.5688060000000 1.0
C      1  0.4030600000000  0.5364460000000  0.4608480000000 1.0
C      1  0.5700910000000  0.4001790000000  0.5539710000000 1.0
C      1  0.5830740000000  0.5770940000000  0.5150920000000 1.0
C      1  0.4647070000000  0.4717700000000  0.5008860000000 1.0
C      1  0.5306970000000  0.5823850000000  0.4922240000000 1.0
C      1  0.6029110000000  0.5135560000000  0.5637480000000 1.0
C      1  0.5177100000000  0.5913290000000  0.5594170000000 1.0
C      1  0.3538630000000  0.4764410000000  0.4875910000000 1.0
C      1  0.5574610000000  0.5276290000000  0.4806990000000 1.0
C      1  0.6045170000000  0.4627800000000  0.5554750000000 1.0
C      1  0.5821520000000  0.5044500000000  0.5131080000000 1.0
C      1  0.4350770000000  0.5112020000000  0.5134070000000 1.0
C      1  0.5130710000000  0.5322870000000  0.4261940000000 1.0
C      1  0.4367290000000  0.5548110000000  0.5448880000000 1.0
C      1  0.5533890000000  0.5901160000000  0.4763940000000 1.0
C      1  0.4616770000000  0.5634700000000  0.5587590000000 1.0
C      1  0.5283130000000  0.5982580000000  0.5149960000000 1.0
C      1  0.6178780000000  0.5546440000000  0.5414610000000 1.0
C      1  0.6106620000000  0.5665020000000  0.5171830000000 1.0
C      1  0.5899610000000  0.4179040000000  0.5456770000000 1.0
C      1  0.4175540000000  0.4247010000000  0.5598760000000 1.0
C      1  0.5387330000000  0.5278180000000  0.5245740000000 1.0
C      1  0.5717710000000  0.4751790000000  0.6161930000000 1.0
C      1  0.6189480000000  0.5570350000000  0.4915340000000 1.0
C      1  0.5258100000000  0.5071490000000  0.4372500000000 1.0
C      1  0.4925140000000  0.5237020000000  0.5685670000000 1.0
C      1  0.6358970000000  0.4094980000000  0.3448060000000 1.0
C      1  0.5023790000000  0.4581180000000  0.5693980000000 1.0
C      1  0.4096590000000  0.4000360000000  0.5627680000000 1.0
C      1  0.5216580000000  0.4386050000000  0.5761170000000 1.0
C      1  0.3991540000000  0.4807250000000  0.5832640000000 1.0
C      1  0.4810090000000  0.4157500000000  0.4321690000000 1.0
C      1  0.5167780000000  0.6239610000000  0.5115290000000 1.0
C      1  0.4956110000000  0.5848520000000  0.4430200000000 1.0
C      1  0.4356060000000  0.4496140000000  0.4403150000000 1.0
C      1  0.4598130000000  0.5079850000000  0.4710510000000 1.0
C      1  0.4239130000000  0.5790360000000  0.5348900000000 1.0
C      1  0.3991030000000  0.4952670000000  0.4859370000000 1.0
C      1  0.2540380000000  0.4882900000000  0.5198030000000 1.0
C      1  0.3681010000000  0.5701060000000  0.4605290000000 1.0
C      1  0.4913570000000  0.6031850000000  0.5613870000000 1.0
C      1  0.5523280000000  0.4661930000000  0.6318010000000 1.0
C      1  0.5438010000000  0.5461750000000  0.4645370000000 1.0
C      1  0.5533000000000  0.4485120000000  0.4972700000000 1.0
C      1  0.4472050000000  0.5971050000000  0.5290520000000 1.0
C      1  0.4028740000000  0.5776480000000  0.5162020000000 1.0
C      1  0.4676610000000  0.4351870000000  0.5960300000000 1.0
C      1  0.3806380000000  0.4744830000000  0.4802470000000 1.0
C      1  0.5909540000000  0.4318680000000  0.5198480000000 1.0
C      1  0.4846460000000  0.4682980000000  0.4252160000000 1.0
C      1  0.4890260000000  0.6270410000000  0.5748670000000 1.0
C      1  0.5274630000000  0.6465650000000  0.5223630000000 1.0
C      1  0.4909560000000  0.5483900000000  0.5263570000000 1.0
C      1  0.5388500000000  0.4527010000000  0.5214010000000 1.0
C      1  0.4742680000000  0.6077980000000  0.4848230000000 1.0
C      1  0.5180520000000  0.6026210000000  0.4440080000000 1.0
C      1  0.5660730000000  0.5376320000000  0.4206310000000 1.0
C      1  0.4111960000000  0.4429770000000  0.4523840000000 1.0
C      1  0.4554080000000  0.4289520000000  0.4343930000000 1.0
C      1  0.4272860000000  0.4508360000000  0.5575580000000 1.0
C      1  0.4674810000000  0.5914460000000  0.5504840000000 1.0
C      1  0.4608920000000  0.4815550000000  0.4158410000000 1.0
C      1  0.3448930000000  0.5784890000000  0.4521450000000 1.0
C      1  0.5281100000000  0.4134000000000  0.4229870000000 1.0
C      1  0.5602160000000  0.5202720000000  0.5074390000000 1.0
C      1  0.5197300000000  0.5550640000000  0.4845540000000 1.0
C      1  0.4092910000000  0.4993930000000  0.5124600000000 1.0
C      1  0.5417330000000  0.3941880000000  0.4717350000000 1.0
C      1  0.4890020000000  0.4704490000000  0.4534210000000 1.0
C      1  0.4117240000000  0.5098950000000  0.4642650000000 1.0
C      1  0.5970680000000  0.4825750000000  0.5118050000000 1.0
C      1  0.5660640000000  0.4065130000000  0.4803980000000 1.0
C      1  0.5107200000000  0.4442600000000  0.6552490000000 1.0
C      1  0.5209000000000  0.4732960000000  0.5276910000000 1.0
END
