TITL C-599894-471-1272 52.1688710348954 125000 -388.613861261019 0 0 65 (C1) n - 1
REM
REM in /home/nfs/bkarasulu/CARBON/AIRSS/Generating-Clusters/TERSOFF/Only-C1/FIRE-HFTN
REM
REM
REM
REM
REM
REM ./C.cell (11c1c37f851c82e70ff6c80c92926a4b)
REM AIRSS Version 0.9.1 bugfix July 2018 build 013d7b7c2542+ Fri, 06 Jul 2018 19:26:36 +0100
REM compiler GCC version 9.2.1 20190827 (Red Hat 9.2.1-1)
REM options -cpp -mtune=generic -march=x86-64 -g -O0 -fpre-include=/usr/include/finclude/math-vector-fortran.h
REM seed -2129495477 -1266774429 -1401554707 -1769834977 -1183996124 2023033734 1236553719 913539482 1592600660 -192723064 -836734854 -1554221146 -1829903571 2133937943 818833785 1245838060 -1492442194 11958897 387803545 -543324351 -138375860 -628867058 206668119 2116687935 -42716025 -1215316049 97627059 789133750 833463786 2061610890 -1231249580 -1504979532 -788283245
REM
CELL 1.54180   50.00000   50.00000   50.00000   90.00000   90.00000   90.00000
LATT -1
SFAC C  
C      1  0.4530480000000  0.4412090000000  0.4831890000000 1.0
C      1  0.5705180000000  0.4581070000000  0.4082370000000 1.0
C      1  0.5076700000000  0.5379590000000  0.4408190000000 1.0
C      1  0.5247960000000  0.4346150000000  0.4631430000000 1.0
C      1  0.4836060000000  0.5779180000000  0.4817060000000 1.0
C      1  0.5071370000000  0.5269080000000  0.5420340000000 1.0
C      1  0.4933950000000  0.5263340000000  0.4883800000000 1.0
C      1  0.5790840000000  0.4831360000000  0.4056630000000 1.0
C      1  0.4598070000000  0.4557680000000  0.5288550000000 1.0
C      1  0.3753480000000  0.4019590000000  0.5341340000000 1.0
C      1  0.4973340000000  0.4404360000000  0.4599900000000 1.0
C      1  0.5385050000000  0.5537180000000  0.4778460000000 1.0
C      1  0.5333290000000  0.5446520000000  0.4508060000000 1.0
C      1  0.4687550000000  0.5474030000000  0.6118000000000 1.0
C      1  0.5543670000000  0.5840050000000  0.3938960000000 1.0
C      1  0.5552160000000  0.5826230000000  0.5289690000000 1.0
C      1  0.5358780000000  0.4368830000000  0.4890060000000 1.0
C      1  0.5361150000000  0.4957570000000  0.5758750000000 1.0
C      1  0.5263260000000  0.5432260000000  0.5271980000000 1.0
C      1  0.4435770000000  0.4410690000000  0.5101860000000 1.0
C      1  0.5636090000000  0.4637620000000  0.5509540000000 1.0
C      1  0.4857810000000  0.4626650000000  0.5191790000000 1.0
C      1  0.5591770000000  0.5895120000000  0.5033590000000 1.0
C      1  0.5411390000000  0.4308960000000  0.4408410000000 1.0
C      1  0.4718280000000  0.5629340000000  0.6325110000000 1.0
C      1  0.5830110000000  0.5220180000000  0.4847200000000 1.0
C      1  0.4769790000000  0.4535780000000  0.4741010000000 1.0
C      1  0.5192670000000  0.5115130000000  0.5626250000000 1.0
C      1  0.5368750000000  0.5657610000000  0.5420160000000 1.0
C      1  0.3338460000000  0.3582270000000  0.4807540000000 1.0
C      1  0.4858600000000  0.4735650000000  0.4926450000000 1.0
C      1  0.4511070000000  0.4686030000000  0.5520850000000 1.0
C      1  0.4546250000000  0.4909100000000  0.5663040000000 1.0
C      1  0.4430350000000  0.5277230000000  0.4730480000000 1.0
C      1  0.5437560000000  0.5819510000000  0.4811570000000 1.0
C      1  0.4205100000000  0.4275580000000  0.5177550000000 1.0
C      1  0.5569840000000  0.4393030000000  0.4212540000000 1.0
C      1  0.5607210000000  0.5167630000000  0.5010740000000 1.0
C      1  0.4933010000000  0.4997220000000  0.4872770000000 1.0
C      1  0.3669430000000  0.4039800000000  0.5600840000000 1.0
C      1  0.5350050000000  0.4489590000000  0.5143690000000 1.0
C      1  0.3472220000000  0.3723620000000  0.4981010000000 1.0
C      1  0.5586500000000  0.4911260000000  0.5117840000000 1.0
C      1  0.5764890000000  0.5273870000000  0.4342230000000 1.0
C      1  0.4813030000000  0.5332060000000  0.4388440000000 1.0
C      1  0.4440240000000  0.5284300000000  0.4999610000000 1.0
C      1  0.5401510000000  0.5368420000000  0.5019540000000 1.0
C      1  0.3985550000000  0.4150940000000  0.5257260000000 1.0
C      1  0.4662630000000  0.5164530000000  0.5673020000000 1.0
C      1  0.5099010000000  0.4510490000000  0.5272090000000 1.0
C      1  0.4868560000000  0.5523560000000  0.4887220000000 1.0
C      1  0.5250200000000  0.5999910000000  0.4703250000000 1.0
C      1  0.4779310000000  0.5264180000000  0.5428100000000 1.0
C      1  0.5290160000000  0.5711050000000  0.5676750000000 1.0
C      1  0.4982110000000  0.5983410000000  0.4722660000000 1.0
C      1  0.4571790000000  0.5294640000000  0.4501850000000 1.0
C      1  0.5893380000000  0.5256250000000  0.4590740000000 1.0
C      1  0.5552210000000  0.4662480000000  0.5241850000000 1.0
C      1  0.5549120000000  0.5457550000000  0.4319550000000 1.0
C      1  0.5546070000000  0.4766820000000  0.5727240000000 1.0
C      1  0.4587810000000  0.5306000000000  0.5223550000000 1.0
C      1  0.3608320000000  0.3867330000000  0.5157140000000 1.0
C      1  0.5811640000000  0.5080680000000  0.4146190000000 1.0
C      1  0.4662380000000  0.5318600000000  0.5904950000000 1.0
C      1  0.5549690000000  0.5652170000000  0.4119430000000 1.0
END
