TITL C-599890-3321-814 25903.6057392731 125000 -302.583503799959 0 0 53 (C1) n - 1
REM
REM in /home/nfs/bkarasulu/CARBON/AIRSS/Generating-Clusters/TERSOFF/Only-C1/FIRE-HFTN
REM
REM
REM
REM
REM
REM ./C.cell (11c1c37f851c82e70ff6c80c92926a4b)
REM AIRSS Version 0.9.1 bugfix July 2018 build 013d7b7c2542+ Fri, 06 Jul 2018 19:26:36 +0100
REM compiler GCC version 9.2.1 20190827 (Red Hat 9.2.1-1)
REM options -cpp -mtune=generic -march=x86-64 -g -O0 -fpre-include=/usr/include/finclude/math-vector-fortran.h
REM seed -340293354 -1171970698 2012572172 -2091742084 -1628420067 1769277276 1235195069 -1793447132 1740349135 -615530072 -6692488 1221153304 -860459346 1852095677 -1561765319 -1585302410 48674777 292842121 82236830 -2106508260 -479705286 -724720240 1953213762 -223833597 -1364430727 -1730912979 -2032391400 -1650639214 1203687830 -1966581267 1039165048 -673417532 696070644
REM
CELL 1.54180   50.00000   50.00000   50.00000   90.00000   90.00000   90.00000
LATT -1
SFAC C  
C      1  0.5356960000000  0.4682940000000  0.5226710000000 1.0
C      1  0.4386510000000  0.5217930000000  0.5190700000000 1.0
C      1  0.4791070000000  0.4080290000000  0.5019290000000 1.0
C      1  0.5324010000000  0.4958920000000  0.4314650000000 1.0
C      1  0.4828910000000  0.4916190000000  0.5090900000000 1.0
C      1  0.4707260000000  0.5237470000000  0.5638420000000 1.0
C      1  0.5746090000000  0.5059330000000  0.5686590000000 1.0
C      1  0.4480200000000  0.5455530000000  0.5043250000000 1.0
C      1  0.5073970000000  0.4310250000000  0.4296260000000 1.0
C      1  0.4886250000000  0.5210590000000  0.4454880000000 1.0
C      1  0.5153760000000  0.5685400000000  0.5220740000000 1.0
C      1  0.4501460000000  0.5477280000000  0.4735710000000 1.0
C      1  0.4549590000000  0.4997560000000  0.4696240000000 1.0
C      1  0.5113820000000  0.5019590000000  0.4689910000000 1.0
C      1  0.4997450000000  0.5054860000000  0.5253770000000 1.0
C      1  0.5058120000000  0.4816350000000  0.4266700000000 1.0
C      1  0.5581820000000  0.5090200000000  0.5034830000000 1.0
C      1  0.4662850000000  0.4183540000000  0.4806200000000 1.0
C      1  0.5163450000000  0.5311340000000  0.5681160000000 1.0
C      1  0.5236600000000  0.5609100000000  0.4720640000000 1.0
C      1  0.5961340000000  0.5114040000000  0.5822900000000 1.0
C      1  0.4661490000000  0.5616940000000  0.5205410000000 1.0
C      1  0.4807770000000  0.4641320000000  0.5125850000000 1.0
C      1  0.4745960000000  0.5461660000000  0.4547920000000 1.0
C      1  0.5305440000000  0.4619990000000  0.4952550000000 1.0
C      1  0.4369620000000  0.4728080000000  0.5151890000000 1.0
C      1  0.4916430000000  0.5329840000000  0.4924780000000 1.0
C      1  0.5528490000000  0.4912490000000  0.5266380000000 1.0
C      1  0.5481960000000  0.5150670000000  0.4499320000000 1.0
C      1  0.4952050000000  0.4547310000000  0.4353220000000 1.0
C      1  0.4448960000000  0.4956470000000  0.5311280000000 1.0
C      1  0.5633820000000  0.5048300000000  0.4741110000000 1.0
C      1  0.4707770000000  0.4963420000000  0.5563810000000 1.0
C      1  0.4693660000000  0.4574180000000  0.4501890000000 1.0
C      1  0.4909610000000  0.5601850000000  0.5353890000000 1.0
C      1  0.5516080000000  0.5006250000000  0.5539100000000 1.0
C      1  0.5044380000000  0.4825700000000  0.5613000000000 1.0
C      1  0.4721400000000  0.5097790000000  0.4899550000000 1.0
C      1  0.4616640000000  0.4850520000000  0.4461790000000 1.0
C      1  0.5250260000000  0.5039780000000  0.5653700000000 1.0
C      1  0.5193550000000  0.4754030000000  0.4745780000000 1.0
C      1  0.4904180000000  0.4188370000000  0.5239300000000 1.0
C      1  0.5395290000000  0.5310580000000  0.5028820000000 1.0
C      1  0.4947580000000  0.5555280000000  0.4733740000000 1.0
C      1  0.5331070000000  0.5594620000000  0.5011090000000 1.0
C      1  0.4919940000000  0.5421380000000  0.5583010000000 1.0
C      1  0.5143050000000  0.4616050000000  0.5425630000000 1.0
C      1  0.4403130000000  0.4575850000000  0.4925090000000 1.0
C      1  0.5392240000000  0.5436350000000  0.4531730000000 1.0
C      1  0.4939060000000  0.4459070000000  0.5299320000000 1.0
C      1  0.5169470000000  0.5199450000000  0.4890700000000 1.0
C      1  0.4568910000000  0.4438560000000  0.4726160000000 1.0
C      1  0.4819270000000  0.4989170000000  0.4302750000000 1.0
END
