TITL C-599896-8500-1040 0.0040484897898867 125000 -511.200693002191 0 0 84 (C1) n - 1
REM
REM in /home/nfs/bkarasulu/CARBON/AIRSS/Generating-Clusters/TERSOFF/Only-C1/FIRE-HFTN
REM
REM
REM
REM
REM
REM ./C.cell (11c1c37f851c82e70ff6c80c92926a4b)
REM AIRSS Version 0.9.1 bugfix July 2018 build 013d7b7c2542+ Fri, 06 Jul 2018 19:26:36 +0100
REM compiler GCC version 9.2.1 20190827 (Red Hat 9.2.1-1)
REM options -cpp -mtune=generic -march=x86-64 -g -O0 -fpre-include=/usr/include/finclude/math-vector-fortran.h
REM seed -1532627518 -498392365 1556268695 302749166 1212745551 -419705779 -437119661 1435065357 -1816676078 1590827730 140589178 -786708835 -1082853181 -1391490499 -683016977 -628056173 -1998913259 -1069072100 22525396 1639571298 -1366155659 804474370 1977499533 733846545 159237323 81306675 -850098729 -1279142531 480915789 168142139 -100442859 858427317 1352222107
REM
CELL 1.54180   50.00000   50.00000   50.00000   90.00000   90.00000   90.00000
LATT -1
SFAC C  
C      1  0.3773790000000  0.4832780000000  0.5276720000000 1.0
C      1  0.5383430000000  0.4804790000000  0.5557080000000 1.0
C      1  0.5539290000000  0.5146850000000  0.5264180000000 1.0
C      1  0.5295770000000  0.5676560000000  0.4135660000000 1.0
C      1  0.4075840000000  0.5264310000000  0.4913730000000 1.0
C      1  0.4272920000000  0.5521080000000  0.5323190000000 1.0
C      1  0.4941250000000  0.5166250000000  0.5838240000000 1.0
C      1  0.5376720000000  0.5714480000000  0.4858170000000 1.0
C      1  0.5862220000000  0.4904890000000  0.4640580000000 1.0
C      1  0.5017010000000  0.5649600000000  0.4169490000000 1.0
C      1  0.4210180000000  0.5513340000000  0.5804730000000 1.0
C      1  0.4108010000000  0.5108600000000  0.5556420000000 1.0
C      1  0.4608790000000  0.4658710000000  0.4377250000000 1.0
C      1  0.5194740000000  0.4161190000000  0.5479590000000 1.0
C      1  0.5729020000000  0.5405490000000  0.4701080000000 1.0
C      1  0.4994210000000  0.4323440000000  0.4943930000000 1.0
C      1  0.5403760000000  0.4712770000000  0.5284350000000 1.0
C      1  0.5679540000000  0.4343260000000  0.4614050000000 1.0
C      1  0.5420380000000  0.4933810000000  0.5098500000000 1.0
C      1  0.4513520000000  0.4756530000000  0.4993960000000 1.0
C      1  0.5664080000000  0.4183260000000  0.5255360000000 1.0
C      1  0.4376270000000  0.4864070000000  0.4768380000000 1.0
C      1  0.5389990000000  0.4383350000000  0.4623450000000 1.0
C      1  0.4993220000000  0.4326470000000  0.5539270000000 1.0
C      1  0.4128030000000  0.5454550000000  0.5091970000000 1.0
C      1  0.5162240000000  0.5640130000000  0.5280960000000 1.0
C      1  0.4711300000000  0.5818050000000  0.5198190000000 1.0
C      1  0.5973060000000  0.4690730000000  0.4789430000000 1.0
C      1  0.4833840000000  0.5434260000000  0.4089800000000 1.0
C      1  0.5382910000000  0.5282250000000  0.5704580000000 1.0
C      1  0.3870720000000  0.5042920000000  0.5415210000000 1.0
C      1  0.4633970000000  0.4833550000000  0.5237840000000 1.0
C      1  0.4686490000000  0.5111670000000  0.5248030000000 1.0
C      1  0.3867220000000  0.4581090000000  0.5241650000000 1.0
C      1  0.5455080000000  0.5653080000000  0.4368280000000 1.0
C      1  0.5128450000000  0.4720640000000  0.4440990000000 1.0
C      1  0.5149700000000  0.4746480000000  0.5708010000000 1.0
C      1  0.5323890000000  0.4524870000000  0.4360900000000 1.0
C      1  0.4680670000000  0.5330490000000  0.4316100000000 1.0
C      1  0.5811330000000  0.4311590000000  0.5073820000000 1.0
C      1  0.4094010000000  0.4472140000000  0.5371920000000 1.0
C      1  0.5784560000000  0.5155630000000  0.4582460000000 1.0
C      1  0.4915080000000  0.5710770000000  0.4434930000000 1.0
C      1  0.5606680000000  0.5401700000000  0.5166900000000 1.0
C      1  0.5102980000000  0.5335740000000  0.5671910000000 1.0
C      1  0.5514220000000  0.5767410000000  0.3651470000000 1.0
C      1  0.5754720000000  0.4363030000000  0.4335280000000 1.0
C      1  0.4508680000000  0.4226490000000  0.5133750000000 1.0
C      1  0.5406580000000  0.5599270000000  0.5131760000000 1.0
C      1  0.4914340000000  0.5333620000000  0.4747550000000 1.0
C      1  0.4154160000000  0.5028570000000  0.4818800000000 1.0
C      1  0.5133610000000  0.5874130000000  0.4887210000000 1.0
C      1  0.4932940000000  0.4596460000000  0.5587190000000 1.0
C      1  0.5811100000000  0.5419790000000  0.4973510000000 1.0
C      1  0.4504590000000  0.5121830000000  0.4366670000000 1.0
C      1  0.5548490000000  0.4476510000000  0.4190020000000 1.0
C      1  0.5146390000000  0.4753830000000  0.4733190000000 1.0
C      1  0.4258660000000  0.4881670000000  0.5654760000000 1.0
C      1  0.4478020000000  0.4875490000000  0.4502590000000 1.0
C      1  0.4278720000000  0.4298840000000  0.5250340000000 1.0
C      1  0.5081020000000  0.4928010000000  0.5913510000000 1.0
C      1  0.4665890000000  0.5118290000000  0.5815240000000 1.0
C      1  0.5409270000000  0.5724400000000  0.3886110000000 1.0
C      1  0.4753900000000  0.4239890000000  0.5026980000000 1.0
C      1  0.5040640000000  0.5415530000000  0.5403960000000 1.0
C      1  0.4928440000000  0.5238860000000  0.5211390000000 1.0
C      1  0.6459450000000  0.4756440000000  0.5015360000000 1.0
C      1  0.5194760000000  0.4472300000000  0.4818070000000 1.0
C      1  0.4163940000000  0.4618490000000  0.5604840000000 1.0
C      1  0.4489010000000  0.5701780000000  0.5294540000000 1.0
C      1  0.4202370000000  0.5380770000000  0.5564570000000 1.0
C      1  0.5211180000000  0.4968410000000  0.4907840000000 1.0
C      1  0.5441080000000  0.4118850000000  0.5386440000000 1.0
C      1  0.4878400000000  0.4708070000000  0.4319710000000 1.0
C      1  0.5835830000000  0.4442140000000  0.4826670000000 1.0
C      1  0.6226440000000  0.4723350000000  0.4903450000000 1.0
C      1  0.4484540000000  0.4423640000000  0.4318670000000 1.0
C      1  0.4791030000000  0.5477030000000  0.4545560000000 1.0
C      1  0.4693430000000  0.4733590000000  0.5504850000000 1.0
C      1  0.5522480000000  0.5599080000000  0.4635740000000 1.0
C      1  0.5036730000000  0.5189900000000  0.4951350000000 1.0
C      1  0.5496110000000  0.5079380000000  0.5544140000000 1.0
C      1  0.4984040000000  0.5819810000000  0.5131510000000 1.0
C      1  0.4538610000000  0.4896860000000  0.5694160000000 1.0
END
