TITL C-599897-7526-892 0.36466164509908 125000 -1057.35780616406 0 0 172 (C1) n - 1
REM
REM in /home/nfs/bkarasulu/CARBON/AIRSS/Generating-Clusters/TERSOFF/Only-C1/FIRE-HFTN
REM
REM
REM
REM
REM
REM ./C.cell (11c1c37f851c82e70ff6c80c92926a4b)
REM AIRSS Version 0.9.1 bugfix July 2018 build 013d7b7c2542+ Fri, 06 Jul 2018 19:26:36 +0100
REM compiler GCC version 9.2.1 20190827 (Red Hat 9.2.1-1)
REM options -cpp -mtune=generic -march=x86-64 -g -O0 -fpre-include=/usr/include/finclude/math-vector-fortran.h
REM seed 1196120298 -1821123309 -1215947272 -1261597233 854898728 1945286096 -387872601 557409083 2024960971 -895755262 1374663102 1780188342 -1900828560 -37501736 -14194840 -261512369 -313699947 -364250007 -645479653 888691648 1900960118 -336441231 663773439 -524750250 -734299078 174531080 -1299733787 2094528769 -141697801 -1370106581 674377084 1388499679 1400715043
REM
CELL 1.54180   50.00000   50.00000   50.00000   90.00000   90.00000   90.00000
LATT -1
SFAC C  
C      1  0.5013390000000  0.4748770000000  0.5630030000000 1.0
C      1  0.4108990000000  0.5313390000000  0.5092510000000 1.0
C      1  0.5773080000000  0.5207030000000  0.4090900000000 1.0
C      1  0.4348180000000  0.5509080000000  0.6255970000000 1.0
C      1  0.5564710000000  0.5977200000000  0.5734880000000 1.0
C      1  0.4559780000000  0.4523990000000  0.5488070000000 1.0
C      1  0.5685960000000  0.5839820000000  0.5266850000000 1.0
C      1  0.4405360000000  0.5219650000000  0.5587430000000 1.0
C      1  0.4906840000000  0.4560250000000  0.3846270000000 1.0
C      1  0.4722620000000  0.5695250000000  0.4952020000000 1.0
C      1  0.4541770000000  0.4516950000000  0.4148370000000 1.0
C      1  0.5438450000000  0.4685570000000  0.5413680000000 1.0
C      1  0.5879540000000  0.5078430000000  0.5356540000000 1.0
C      1  0.4679520000000  0.4123800000000  0.4643880000000 1.0
C      1  0.4509880000000  0.5353830000000  0.4652360000000 1.0
C      1  0.4237780000000  0.5974720000000  0.4620890000000 1.0
C      1  0.4245120000000  0.5571670000000  0.6486980000000 1.0
C      1  0.5171110000000  0.4779580000000  0.5356490000000 1.0
C      1  0.5718840000000  0.4467980000000  0.4809670000000 1.0
C      1  0.5186530000000  0.5655160000000  0.4792090000000 1.0
C      1  0.5044790000000  0.5430490000000  0.6167680000000 1.0
C      1  0.5546440000000  0.3952760000000  0.5372690000000 1.0
C      1  0.5695950000000  0.5050850000000  0.5132370000000 1.0
C      1  0.5660410000000  0.5557100000000  0.5304560000000 1.0
C      1  0.5172110000000  0.6082350000000  0.4325680000000 1.0
C      1  0.5462410000000  0.5271540000000  0.4631700000000 1.0
C      1  0.4582070000000  0.4698520000000  0.4973630000000 1.0
C      1  0.6151980000000  0.5125230000000  0.4601780000000 1.0
C      1  0.5350940000000  0.5014210000000  0.6325820000000 1.0
C      1  0.4344840000000  0.5730810000000  0.4250100000000 1.0
C      1  0.4963570000000  0.5216210000000  0.5262590000000 1.0
C      1  0.5765650000000  0.4493690000000  0.5901570000000 1.0
C      1  0.4347470000000  0.5453930000000  0.5156570000000 1.0
C      1  0.5593410000000  0.5978420000000  0.5031040000000 1.0
C      1  0.4396430000000  0.5987430000000  0.4377160000000 1.0
C      1  0.5926070000000  0.4946730000000  0.4658690000000 1.0
C      1  0.5196540000000  0.3769670000000  0.4955560000000 1.0
C      1  0.4521070000000  0.5492860000000  0.4919780000000 1.0
C      1  0.5993070000000  0.4823300000000  0.5458630000000 1.0
C      1  0.4768450000000  0.5809400000000  0.5462690000000 1.0
C      1  0.4415410000000  0.5473550000000  0.5446960000000 1.0
C      1  0.3988250000000  0.5092150000000  0.4186060000000 1.0
C      1  0.5348590000000  0.4787110000000  0.4715580000000 1.0
C      1  0.5766340000000  0.4924130000000  0.4893460000000 1.0
C      1  0.4956980000000  0.3623040000000  0.4975430000000 1.0
C      1  0.4641400000000  0.6118810000000  0.4339410000000 1.0
C      1  0.4449060000000  0.3994590000000  0.4743510000000 1.0
C      1  0.5118360000000  0.5708540000000  0.5760400000000 1.0
C      1  0.5423540000000  0.5230610000000  0.5769810000000 1.0
C      1  0.4953210000000  0.5212210000000  0.3656550000000 1.0
C      1  0.4942470000000  0.4300620000000  0.3959650000000 1.0
C      1  0.5648690000000  0.5884480000000  0.4489580000000 1.0
C      1  0.4705830000000  0.4960440000000  0.4133410000000 1.0
C      1  0.4568790000000  0.5666640000000  0.5598710000000 1.0
C      1  0.4996350000000  0.5628890000000  0.4995350000000 1.0
C      1  0.5219780000000  0.4571660000000  0.4584980000000 1.0
C      1  0.4595270000000  0.4402710000000  0.6466160000000 1.0
C      1  0.5285280000000  0.5056320000000  0.4645450000000 1.0
C      1  0.3799550000000  0.5747330000000  0.4732240000000 1.0
C      1  0.5814680000000  0.4827330000000  0.4394530000000 1.0
C      1  0.4580010000000  0.5584600000000  0.4207440000000 1.0
C      1  0.3593400000000  0.5703920000000  0.4892870000000 1.0
C      1  0.4383070000000  0.6031400000000  0.4854880000000 1.0
C      1  0.4183160000000  0.4961020000000  0.4726100000000 1.0
C      1  0.4485850000000  0.4955620000000  0.4330170000000 1.0
C      1  0.4066370000000  0.4101070000000  0.5035160000000 1.0
C      1  0.5701860000000  0.4699210000000  0.6107660000000 1.0
C      1  0.4646240000000  0.4433870000000  0.5017960000000 1.0
C      1  0.4682590000000  0.4952800000000  0.4992280000000 1.0
C      1  0.4002960000000  0.5354540000000  0.4256310000000 1.0
C      1  0.5196500000000  0.5236210000000  0.6285340000000 1.0
C      1  0.4387380000000  0.5095400000000  0.4569830000000 1.0
C      1  0.5896640000000  0.4588160000000  0.5638780000000 1.0
C      1  0.4909180000000  0.5154010000000  0.4140700000000 1.0
C      1  0.5105400000000  0.6208910000000  0.5039500000000 1.0
C      1  0.5591500000000  0.4712340000000  0.4837410000000 1.0
C      1  0.5650330000000  0.4230850000000  0.5821300000000 1.0
C      1  0.4498440000000  0.3739240000000  0.4851000000000 1.0
C      1  0.6107420000000  0.4389750000000  0.5261910000000 1.0
C      1  0.3925750000000  0.4898540000000  0.5566100000000 1.0
C      1  0.4051920000000  0.5114580000000  0.4921870000000 1.0
C      1  0.4708750000000  0.5083560000000  0.5237690000000 1.0
C      1  0.6147110000000  0.5397080000000  0.4669640000000 1.0
C      1  0.5900370000000  0.4338510000000  0.5457050000000 1.0
C      1  0.5531000000000  0.5083850000000  0.3978560000000 1.0
C      1  0.4102580000000  0.4701400000000  0.5477940000000 1.0
C      1  0.5363280000000  0.6142190000000  0.5058730000000 1.0
C      1  0.5493530000000  0.4810720000000  0.4038460000000 1.0
C      1  0.4734110000000  0.4266000000000  0.4174230000000 1.0
C      1  0.6101430000000  0.4021080000000  0.4911300000000 1.0
C      1  0.4963520000000  0.5028920000000  0.5725780000000 1.0
C      1  0.5238510000000  0.4662240000000  0.5818660000000 1.0
C      1  0.5345060000000  0.5857170000000  0.5828140000000 1.0
C      1  0.4400100000000  0.5197060000000  0.5873410000000 1.0
C      1  0.4683620000000  0.3555160000000  0.4958080000000 1.0
C      1  0.4328990000000  0.4711050000000  0.4238570000000 1.0
C      1  0.4787390000000  0.4737360000000  0.4626820000000 1.0
C      1  0.5478070000000  0.4764640000000  0.5683910000000 1.0
C      1  0.4098550000000  0.5606170000000  0.4347120000000 1.0
C      1  0.4976800000000  0.4550740000000  0.6215190000000 1.0
C      1  0.4845660000000  0.6160590000000  0.4997680000000 1.0
C      1  0.4075820000000  0.4832490000000  0.4168070000000 1.0
C      1  0.5595060000000  0.5010550000000  0.5782680000000 1.0
C      1  0.4644230000000  0.5971370000000  0.4945090000000 1.0
C      1  0.4422300000000  0.4953830000000  0.6011210000000 1.0
C      1  0.5430960000000  0.5155330000000  0.5176690000000 1.0
C      1  0.5389900000000  0.5523550000000  0.4682310000000 1.0
C      1  0.5406140000000  0.5437160000000  0.5242280000000 1.0
C      1  0.5099810000000  0.5512670000000  0.5258650000000 1.0
C      1  0.4217840000000  0.4155350000000  0.4803650000000 1.0
C      1  0.5695780000000  0.4143380000000  0.5539270000000 1.0
C      1  0.4462460000000  0.5436990000000  0.6013710000000 1.0
C      1  0.4917360000000  0.5288030000000  0.4392600000000 1.0
C      1  0.4850210000000  0.5186750000000  0.3418520000000 1.0
C      1  0.5384250000000  0.3816220000000  0.5188900000000 1.0
C      1  0.4597860000000  0.3310440000000  0.5045480000000 1.0
C      1  0.4383710000000  0.4747650000000  0.5464310000000 1.0
C      1  0.5199750000000  0.4198960000000  0.4014150000000 1.0
C      1  0.3986140000000  0.4229550000000  0.5255240000000 1.0
C      1  0.4139170000000  0.4681050000000  0.4706650000000 1.0
C      1  0.4828520000000  0.4982990000000  0.4745780000000 1.0
C      1  0.3400270000000  0.5649660000000  0.5059360000000 1.0
C      1  0.4000760000000  0.4450580000000  0.5402910000000 1.0
C      1  0.4908770000000  0.6130700000000  0.4324980000000 1.0
C      1  0.5713070000000  0.5493290000000  0.4163840000000 1.0
C      1  0.5433720000000  0.4750160000000  0.6234360000000 1.0
C      1  0.5219220000000  0.4619330000000  0.6095440000000 1.0
C      1  0.4826950000000  0.4097590000000  0.4402380000000 1.0
C      1  0.5452250000000  0.5533010000000  0.4036040000000 1.0
C      1  0.5584320000000  0.4669270000000  0.4274490000000 1.0
C      1  0.4703530000000  0.4569600000000  0.6278150000000 1.0
C      1  0.5062750000000  0.5223240000000  0.3913430000000 1.0
C      1  0.5860610000000  0.4012600000000  0.4792010000000 1.0
C      1  0.6029110000000  0.5593580000000  0.4529420000000 1.0
C      1  0.4540640000000  0.4758970000000  0.6148810000000 1.0
C      1  0.3619540000000  0.5304160000000  0.5697930000000 1.0
C      1  0.4650960000000  0.5597020000000  0.5874540000000 1.0
C      1  0.5155810000000  0.5215050000000  0.5752890000000 1.0
C      1  0.5707620000000  0.5985650000000  0.5508020000000 1.0
C      1  0.4720520000000  0.4710800000000  0.3995460000000 1.0
C      1  0.5804490000000  0.5667930000000  0.4374450000000 1.0
C      1  0.6202700000000  0.4191180000000  0.5092260000000 1.0
C      1  0.4029320000000  0.5773520000000  0.4579660000000 1.0
C      1  0.5262320000000  0.4285340000000  0.5075890000000 1.0
C      1  0.5387560000000  0.4465630000000  0.4375490000000 1.0
C      1  0.4788510000000  0.4566740000000  0.5638710000000 1.0
C      1  0.5425180000000  0.6003260000000  0.4363610000000 1.0
C      1  0.5029260000000  0.5697890000000  0.5486760000000 1.0
C      1  0.6199830000000  0.5081380000000  0.4318830000000 1.0
C      1  0.5862780000000  0.5368450000000  0.5407400000000 1.0
C      1  0.3762160000000  0.5095090000000  0.5635460000000 1.0
C      1  0.5225330000000  0.3959280000000  0.4727700000000 1.0
C      1  0.5293710000000  0.4206550000000  0.4282330000000 1.0
C      1  0.5332250000000  0.5287520000000  0.3946840000000 1.0
C      1  0.4504690000000  0.5007510000000  0.5430910000000 1.0
C      1  0.5653090000000  0.4200090000000  0.4799070000000 1.0
C      1  0.5120820000000  0.4273650000000  0.5294970000000 1.0
C      1  0.4705880000000  0.5612610000000  0.3966920000000 1.0
C      1  0.5015690000000  0.5137120000000  0.4612390000000 1.0
C      1  0.5120030000000  0.4044860000000  0.4461410000000 1.0
C      1  0.5180920000000  0.5027490000000  0.5226450000000 1.0
C      1  0.5689710000000  0.5943310000000  0.4767020000000 1.0
C      1  0.5949670000000  0.5013120000000  0.4198490000000 1.0
C      1  0.4172850000000  0.4414440000000  0.4694600000000 1.0
C      1  0.4934480000000  0.5592650000000  0.5954410000000 1.0
C      1  0.4951390000000  0.4517430000000  0.4657650000000 1.0
C      1  0.5383170000000  0.4161640000000  0.4854280000000 1.0
C      1  0.4796440000000  0.4323080000000  0.4805900000000 1.0
C      1  0.5774230000000  0.4958240000000  0.5995850000000 1.0
C      1  0.4580880000000  0.4342290000000  0.5273540000000 1.0
C      1  0.6164390000000  0.4672280000000  0.5269140000000 1.0
C      1  0.4685220000000  0.5449550000000  0.4436970000000 1.0
END
