TITL C-599894-471-1097 -0.00637448536270689 125000 -1091.95259120189 0 0 177 (C1) n - 1
REM
REM in /home/nfs/bkarasulu/CARBON/AIRSS/Generating-Clusters/TERSOFF/Only-C1/FIRE-HFTN
REM
REM
REM
REM
REM
REM ./C.cell (11c1c37f851c82e70ff6c80c92926a4b)
REM AIRSS Version 0.9.1 bugfix July 2018 build 013d7b7c2542+ Fri, 06 Jul 2018 19:26:36 +0100
REM compiler GCC version 9.2.1 20190827 (Red Hat 9.2.1-1)
REM options -cpp -mtune=generic -march=x86-64 -g -O0 -fpre-include=/usr/include/finclude/math-vector-fortran.h
REM seed 1060005980 1980606507 -172656124 -984375585 -1240659947 324948550 396965932 312802447 305553863 -1815856488 973311799 1927539412 -1067308944 82978647 -1081617663 -1969713886 -1708649017 1021521123 1380807939 -953820474 -122243548 70203117 -2011799414 -1317280996 -481616533 186172155 -1960099664 1545574911 2013733734 -1855586056 332673556 -928260071 1575181462
REM
CELL 1.54180   50.00000   50.00000   50.00000   90.00000   90.00000   90.00000
LATT -1
SFAC C  
C      1  0.4975000000000  0.5788340000000  0.5030650000000 1.0
C      1  0.5409430000000  0.4557110000000  0.5901260000000 1.0
C      1  0.3848210000000  0.5001580000000  0.5269590000000 1.0
C      1  0.4499140000000  0.4200480000000  0.4474490000000 1.0
C      1  0.4683720000000  0.4454240000000  0.4088400000000 1.0
C      1  0.5567290000000  0.5135510000000  0.3810170000000 1.0
C      1  0.4920160000000  0.5026730000000  0.6121830000000 1.0
C      1  0.5544460000000  0.4940590000000  0.4010230000000 1.0
C      1  0.4479750000000  0.4472940000000  0.5387520000000 1.0
C      1  0.4353000000000  0.4846540000000  0.5644260000000 1.0
C      1  0.5666780000000  0.5202990000000  0.5964870000000 1.0
C      1  0.4704530000000  0.6276350000000  0.5320890000000 1.0
C      1  0.4612400000000  0.4637050000000  0.3875120000000 1.0
C      1  0.5013810000000  0.3822850000000  0.4502490000000 1.0
C      1  0.4780050000000  0.3844610000000  0.4667890000000 1.0
C      1  0.5180230000000  0.3944430000000  0.4991090000000 1.0
C      1  0.4017380000000  0.5623170000000  0.5108440000000 1.0
C      1  0.4556930000000  0.5640020000000  0.5166060000000 1.0
C      1  0.5565040000000  0.4714790000000  0.5229830000000 1.0
C      1  0.4544410000000  0.4459820000000  0.5087050000000 1.0
C      1  0.4437500000000  0.4727420000000  0.4997600000000 1.0
C      1  0.4727750000000  0.4258610000000  0.4928280000000 1.0
C      1  0.4414500000000  0.5164550000000  0.5315910000000 1.0
C      1  0.4103110000000  0.5171950000000  0.5848190000000 1.0
C      1  0.5281390000000  0.3851640000000  0.4458660000000 1.0
C      1  0.4698150000000  0.5763180000000  0.4941400000000 1.0
C      1  0.4309600000000  0.5254180000000  0.4197650000000 1.0
C      1  0.4196260000000  0.4780120000000  0.4146570000000 1.0
C      1  0.4075600000000  0.4937180000000  0.5991930000000 1.0
C      1  0.6043380000000  0.5469900000000  0.5158670000000 1.0
C      1  0.5168620000000  0.5202550000000  0.4462640000000 1.0
C      1  0.5266250000000  0.6040920000000  0.5438570000000 1.0
C      1  0.4966710000000  0.5412530000000  0.5369270000000 1.0
C      1  0.5137160000000  0.4409070000000  0.4383140000000 1.0
C      1  0.5310770000000  0.4785200000000  0.3999030000000 1.0
C      1  0.5724520000000  0.4279840000000  0.5289580000000 1.0
C      1  0.5381010000000  0.5303920000000  0.3713860000000 1.0
C      1  0.5330450000000  0.4911380000000  0.5575820000000 1.0
C      1  0.5661800000000  0.5171440000000  0.4427360000000 1.0
C      1  0.4932210000000  0.5263320000000  0.5132220000000 1.0
C      1  0.3977400000000  0.5231400000000  0.5402410000000 1.0
C      1  0.6006240000000  0.4856520000000  0.5580700000000 1.0
C      1  0.5525850000000  0.4157520000000  0.5493950000000 1.0
C      1  0.5601260000000  0.4430690000000  0.4260140000000 1.0
C      1  0.5121490000000  0.5345740000000  0.4932910000000 1.0
C      1  0.4919130000000  0.4567770000000  0.4251530000000 1.0
C      1  0.5836750000000  0.4748650000000  0.5157330000000 1.0
C      1  0.5754880000000  0.4064590000000  0.4477860000000 1.0
C      1  0.5804590000000  0.5557730000000  0.5030500000000 1.0
C      1  0.4529250000000  0.4936810000000  0.5184750000000 1.0
C      1  0.5468810000000  0.5868860000000  0.4836950000000 1.0
C      1  0.4947360000000  0.5787060000000  0.4069720000000 1.0
C      1  0.5861790000000  0.5379640000000  0.4446830000000 1.0
C      1  0.3885620000000  0.4446640000000  0.5076520000000 1.0
C      1  0.6120210000000  0.5300960000000  0.5357050000000 1.0
C      1  0.5021390000000  0.5658610000000  0.4326190000000 1.0
C      1  0.5022340000000  0.5370380000000  0.4293190000000 1.0
C      1  0.5728220000000  0.4037580000000  0.3967670000000 1.0
C      1  0.4824540000000  0.3902430000000  0.5566650000000 1.0
C      1  0.3976630000000  0.4504120000000  0.5337810000000 1.0
C      1  0.4391370000000  0.5560460000000  0.5780500000000 1.0
C      1  0.5521550000000  0.5915830000000  0.5468890000000 1.0
C      1  0.5068380000000  0.5001080000000  0.4631400000000 1.0
C      1  0.5259650000000  0.5452610000000  0.5980780000000 1.0
C      1  0.4990430000000  0.5273520000000  0.4019280000000 1.0
C      1  0.5177170000000  0.3842390000000  0.5267480000000 1.0
C      1  0.4766410000000  0.4695750000000  0.4476060000000 1.0
C      1  0.4048580000000  0.5524450000000  0.5376310000000 1.0
C      1  0.5546280000000  0.5253570000000  0.5291970000000 1.0
C      1  0.4546970000000  0.5413450000000  0.5955330000000 1.0
C      1  0.5522780000000  0.3920320000000  0.4606380000000 1.0
C      1  0.5409370000000  0.5665330000000  0.5874040000000 1.0
C      1  0.4471910000000  0.5376880000000  0.5136190000000 1.0
C      1  0.5505750000000  0.5769820000000  0.4566680000000 1.0
C      1  0.4595520000000  0.6080350000000  0.5504750000000 1.0
C      1  0.4225670000000  0.6100060000000  0.4961210000000 1.0
C      1  0.4832660000000  0.4530600000000  0.6114220000000 1.0
C      1  0.6211310000000  0.5027590000000  0.4571300000000 1.0
C      1  0.4350050000000  0.4875050000000  0.4759360000000 1.0
C      1  0.5323700000000  0.4522590000000  0.5215230000000 1.0
C      1  0.4767050000000  0.3632810000000  0.5146720000000 1.0
C      1  0.4591040000000  0.4702170000000  0.5563050000000 1.0
C      1  0.4990590000000  0.4813490000000  0.5206160000000 1.0
C      1  0.4580130000000  0.5062060000000  0.4728100000000 1.0
C      1  0.5192200000000  0.6164320000000  0.5180570000000 1.0
C      1  0.3808890000000  0.4933210000000  0.4986370000000 1.0
C      1  0.4205650000000  0.6064240000000  0.5227090000000 1.0
C      1  0.4304060000000  0.6153670000000  0.4478090000000 1.0
C      1  0.5009410000000  0.5395630000000  0.5864020000000 1.0
C      1  0.5181410000000  0.5707500000000  0.3905470000000 1.0
C      1  0.3780310000000  0.4652340000000  0.4931810000000 1.0
C      1  0.5257140000000  0.4895220000000  0.4816690000000 1.0
C      1  0.3833170000000  0.5366420000000  0.4756740000000 1.0
C      1  0.5686260000000  0.5725930000000  0.4135510000000 1.0
C      1  0.5789340000000  0.5267030000000  0.5711440000000 1.0
C      1  0.5663260000000  0.4331970000000  0.4979610000000 1.0
C      1  0.4488080000000  0.5768110000000  0.4726060000000 1.0
C      1  0.4246410000000  0.5681600000000  0.5554330000000 1.0
C      1  0.4336720000000  0.6012720000000  0.4715430000000 1.0
C      1  0.6173970000000  0.4760140000000  0.4574250000000 1.0
C      1  0.5961970000000  0.4269930000000  0.4567200000000 1.0
C      1  0.5405940000000  0.4412150000000  0.4472160000000 1.0
C      1  0.4802190000000  0.4932050000000  0.4617200000000 1.0
C      1  0.5107660000000  0.4190240000000  0.5858150000000 1.0
C      1  0.5052260000000  0.4985950000000  0.5622000000000 1.0
C      1  0.5616560000000  0.5409220000000  0.5527030000000 1.0
C      1  0.5696680000000  0.4164900000000  0.4204010000000 1.0
C      1  0.4936120000000  0.4371380000000  0.5466740000000 1.0
C      1  0.4319620000000  0.5485380000000  0.4041800000000 1.0
C      1  0.5488820000000  0.4752420000000  0.4756690000000 1.0
C      1  0.3891850000000  0.5090650000000  0.4769010000000 1.0
C      1  0.5689880000000  0.4927900000000  0.4258130000000 1.0
C      1  0.5158140000000  0.5427940000000  0.3832090000000 1.0
C      1  0.5426930000000  0.5256180000000  0.4565250000000 1.0
C      1  0.5041130000000  0.5878820000000  0.5518190000000 1.0
C      1  0.5209850000000  0.5957410000000  0.4962780000000 1.0
C      1  0.4323660000000  0.5493720000000  0.4686380000000 1.0
C      1  0.4038920000000  0.5544450000000  0.4838210000000 1.0
C      1  0.5607390000000  0.3830820000000  0.5129640000000 1.0
C      1  0.4873830000000  0.5013200000000  0.3993770000000 1.0
C      1  0.4999210000000  0.5684880000000  0.5313260000000 1.0
C      1  0.5744530000000  0.5646030000000  0.4414340000000 1.0
C      1  0.5072100000000  0.4585700000000  0.5353060000000 1.0
C      1  0.5595410000000  0.5365620000000  0.5035150000000 1.0
C      1  0.4136220000000  0.5029370000000  0.4630460000000 1.0
C      1  0.5783600000000  0.4652520000000  0.4313250000000 1.0
C      1  0.4196450000000  0.4713620000000  0.5860370000000 1.0
C      1  0.4459850000000  0.4360040000000  0.4247460000000 1.0
C      1  0.5006390000000  0.5272750000000  0.5608900000000 1.0
C      1  0.5976250000000  0.4392830000000  0.5386910000000 1.0
C      1  0.4203940000000  0.4406320000000  0.5484310000000 1.0
C      1  0.5369900000000  0.4292000000000  0.5780650000000 1.0
C      1  0.5406780000000  0.5775600000000  0.4085980000000 1.0
C      1  0.5517950000000  0.4751900000000  0.5727620000000 1.0
C      1  0.5019930000000  0.4187270000000  0.4959110000000 1.0
C      1  0.5996860000000  0.4556950000000  0.4489220000000 1.0
C      1  0.4606840000000  0.4921700000000  0.3940390000000 1.0
C      1  0.4227660000000  0.5118200000000  0.5553870000000 1.0
C      1  0.6026480000000  0.4677500000000  0.5358390000000 1.0
C      1  0.6015710000000  0.5144300000000  0.5571220000000 1.0
C      1  0.4337850000000  0.5951790000000  0.5454690000000 1.0
C      1  0.4236180000000  0.5270520000000  0.4472640000000 1.0
C      1  0.4280170000000  0.6287230000000  0.4255600000000 1.0
C      1  0.4799380000000  0.5007910000000  0.5167020000000 1.0
C      1  0.4228070000000  0.4521680000000  0.4218380000000 1.0
C      1  0.4642580000000  0.4100410000000  0.4693390000000 1.0
C      1  0.5211000000000  0.4388480000000  0.4991900000000 1.0
C      1  0.4732470000000  0.3661480000000  0.4880360000000 1.0
C      1  0.5461000000000  0.3891600000000  0.4885430000000 1.0
C      1  0.5796680000000  0.4772100000000  0.5749520000000 1.0
C      1  0.4317190000000  0.5693000000000  0.3884350000000 1.0
C      1  0.5289850000000  0.5774060000000  0.4370440000000 1.0
C      1  0.5395660000000  0.5343660000000  0.4838770000000 1.0
C      1  0.4798390000000  0.5288810000000  0.6029300000000 1.0
C      1  0.4827630000000  0.4806680000000  0.5705500000000 1.0
C      1  0.4933710000000  0.4150560000000  0.5638700000000 1.0
C      1  0.4974060000000  0.4301760000000  0.6083540000000 1.0
C      1  0.4806510000000  0.5960140000000  0.5652400000000 1.0
C      1  0.5398930000000  0.5216150000000  0.6072270000000 1.0
C      1  0.4366100000000  0.4999850000000  0.4080150000000 1.0
C      1  0.5705240000000  0.5963870000000  0.5260700000000 1.0
C      1  0.5042780000000  0.4788410000000  0.4073740000000 1.0
C      1  0.5698180000000  0.5824320000000  0.5015410000000 1.0
C      1  0.5317930000000  0.4717030000000  0.6129330000000 1.0
C      1  0.5221490000000  0.4994240000000  0.6152470000000 1.0
C      1  0.4498650000000  0.5306970000000  0.4856380000000 1.0
C      1  0.5429810000000  0.4977640000000  0.5294750000000 1.0
C      1  0.6114200000000  0.5274570000000  0.4517720000000 1.0
C      1  0.5540970000000  0.4471990000000  0.4732810000000 1.0
C      1  0.5220320000000  0.4941600000000  0.5090000000000 1.0
C      1  0.4946260000000  0.6314340000000  0.5198090000000 1.0
C      1  0.5445430000000  0.3900860000000  0.5369960000000 1.0
C      1  0.3863260000000  0.4756600000000  0.5424930000000 1.0
C      1  0.4922500000000  0.3753070000000  0.5350380000000 1.0
C      1  0.4168410000000  0.4444420000000  0.5771150000000 1.0
C      1  0.5531770000000  0.5670900000000  0.5617700000000 1.0
C      1  0.4815170000000  0.4786500000000  0.5995740000000 1.0
END
