TITL C-599893-4344-345 254.808782927512 125000 -559.394425238037 0 0 94 (C1) n - 1
REM
REM in /home/nfs/bkarasulu/CARBON/AIRSS/Generating-Clusters/TERSOFF/Only-C1/FIRE-HFTN
REM
REM
REM
REM
REM
REM ./C.cell (11c1c37f851c82e70ff6c80c92926a4b)
REM AIRSS Version 0.9.1 bugfix July 2018 build 013d7b7c2542+ Fri, 06 Jul 2018 19:26:36 +0100
REM compiler GCC version 9.2.1 20190827 (Red Hat 9.2.1-1)
REM options -cpp -mtune=generic -march=x86-64 -g -O0 -fpre-include=/usr/include/finclude/math-vector-fortran.h
REM seed -270084772 -1873032018 58028254 1629210134 146310868 1787325273 -322366545 -1326379189 -1064419282 -2096770649 -1888868625 -1855951878 529444020 757381044 1482688016 1737235705 1440291744 -337861295 968549058 714701685 1031643906 572174347 236326227 -1088977582 -1550419932 2068241296 692115565 -1957528160 -143934113 988722882 1477143927 -527649668 829572712
REM
CELL 1.54180   50.00000   50.00000   50.00000   90.00000   90.00000   90.00000
LATT -1
SFAC C  
C      1  0.5148960000000  0.5133140000000  0.4560040000000 1.0
C      1  0.4232470000000  0.4596850000000  0.5003830000000 1.0
C      1  0.4583590000000  0.5337930000000  0.4452640000000 1.0
C      1  0.5581600000000  0.6009110000000  0.4804390000000 1.0
C      1  0.5289830000000  0.4488040000000  0.4295210000000 1.0
C      1  0.5653080000000  0.4347800000000  0.4997860000000 1.0
C      1  0.5421940000000  0.5573400000000  0.5495120000000 1.0
C      1  0.4820990000000  0.5538330000000  0.4360750000000 1.0
C      1  0.4935210000000  0.5271700000000  0.5055300000000 1.0
C      1  0.5115170000000  0.5232950000000  0.5280130000000 1.0
C      1  0.5014140000000  0.4397930000000  0.4296030000000 1.0
C      1  0.5331400000000  0.4477570000000  0.5286210000000 1.0
C      1  0.5601370000000  0.4993470000000  0.5725000000000 1.0
C      1  0.5644440000000  0.5016720000000  0.4642180000000 1.0
C      1  0.4667430000000  0.5062220000000  0.4298200000000 1.0
C      1  0.5278490000000  0.5315390000000  0.4736300000000 1.0
C      1  0.4310800000000  0.5611870000000  0.5110310000000 1.0
C      1  0.5088010000000  0.5539040000000  0.3948670000000 1.0
C      1  0.5024710000000  0.3906920000000  0.5137850000000 1.0
C      1  0.5291040000000  0.5018150000000  0.5236500000000 1.0
C      1  0.4593080000000  0.5396980000000  0.4755480000000 1.0
C      1  0.5628610000000  0.4455860000000  0.4727060000000 1.0
C      1  0.4917410000000  0.5765320000000  0.4512190000000 1.0
C      1  0.5163500000000  0.4769020000000  0.5794270000000 1.0
C      1  0.5205180000000  0.5514970000000  0.5331280000000 1.0
C      1  0.5148830000000  0.5917230000000  0.4960310000000 1.0
C      1  0.5533720000000  0.4599670000000  0.5445810000000 1.0
C      1  0.4348840000000  0.4956680000000  0.5393620000000 1.0
C      1  0.5739300000000  0.4620620000000  0.5234720000000 1.0
C      1  0.4142770000000  0.5064390000000  0.4883860000000 1.0
C      1  0.4285040000000  0.5452070000000  0.5323590000000 1.0
C      1  0.4926200000000  0.4554410000000  0.5105140000000 1.0
C      1  0.5386310000000  0.6073240000000  0.5009800000000 1.0
C      1  0.4117130000000  0.4452310000000  0.4223210000000 1.0
C      1  0.4327860000000  0.4145570000000  0.5263220000000 1.0
C      1  0.4442980000000  0.5603700000000  0.4876520000000 1.0
C      1  0.5099490000000  0.5453200000000  0.4899420000000 1.0
C      1  0.5403790000000  0.5946310000000  0.4577260000000 1.0
C      1  0.4803730000000  0.4614290000000  0.5347100000000 1.0
C      1  0.4791160000000  0.4775150000000  0.4749460000000 1.0
C      1  0.4748400000000  0.3952190000000  0.5104430000000 1.0
C      1  0.5708410000000  0.5229930000000  0.5657490000000 1.0
C      1  0.4699680000000  0.5203230000000  0.4929970000000 1.0
C      1  0.4920800000000  0.4218530000000  0.4486470000000 1.0
C      1  0.5269770000000  0.4014430000000  0.5129080000000 1.0
C      1  0.4883000000000  0.4866560000000  0.5816160000000 1.0
C      1  0.4408070000000  0.4783820000000  0.5630090000000 1.0
C      1  0.4833840000000  0.4860290000000  0.4171930000000 1.0
C      1  0.4818150000000  0.4577840000000  0.4185700000000 1.0
C      1  0.4331510000000  0.4879030000000  0.5056780000000 1.0
C      1  0.5699900000000  0.4833080000000  0.5061840000000 1.0
C      1  0.4803630000000  0.4892100000000  0.5386030000000 1.0
C      1  0.5310820000000  0.4737990000000  0.4154280000000 1.0
C      1  0.5273850000000  0.4745680000000  0.4826030000000 1.0
C      1  0.5141840000000  0.5184760000000  0.4282180000000 1.0
C      1  0.4753950000000  0.5744750000000  0.5865170000000 1.0
C      1  0.4826850000000  0.5065040000000  0.5609660000000 1.0
C      1  0.5891190000000  0.5599680000000  0.5365460000000 1.0
C      1  0.4609320000000  0.4939040000000  0.4905200000000 1.0
C      1  0.4608620000000  0.4744850000000  0.5829600000000 1.0
C      1  0.4123410000000  0.4493140000000  0.4480590000000 1.0
C      1  0.5589240000000  0.4751190000000  0.4778670000000 1.0
C      1  0.4840090000000  0.5979200000000  0.5953830000000 1.0
C      1  0.4470430000000  0.3882640000000  0.4710020000000 1.0
C      1  0.4785310000000  0.4253710000000  0.4728970000000 1.0
C      1  0.5111780000000  0.4943750000000  0.4137890000000 1.0
C      1  0.6150000000000  0.5589780000000  0.5455580000000 1.0
C      1  0.4928130000000  0.6210320000000  0.6036270000000 1.0
C      1  0.5490260000000  0.4390190000000  0.4481170000000 1.0
C      1  0.5062420000000  0.4881750000000  0.4679140000000 1.0
C      1  0.4660740000000  0.4025920000000  0.4843670000000 1.0
C      1  0.5145720000000  0.5667150000000  0.5087380000000 1.0
C      1  0.5835070000000  0.5735260000000  0.5122790000000 1.0
C      1  0.4785330000000  0.4408720000000  0.5536650000000 1.0
C      1  0.4641100000000  0.5278970000000  0.5614840000000 1.0
C      1  0.5195550000000  0.4681980000000  0.5110330000000 1.0
C      1  0.4274250000000  0.5300430000000  0.4438200000000 1.0
C      1  0.5825420000000  0.5889170000000  0.4884230000000 1.0
C      1  0.4683460000000  0.5512580000000  0.5758980000000 1.0
C      1  0.5123690000000  0.5895120000000  0.4659980000000 1.0
C      1  0.5538890000000  0.5076160000000  0.5101010000000 1.0
C      1  0.4807480000000  0.4506060000000  0.4853610000000 1.0
C      1  0.5527660000000  0.5213900000000  0.4831510000000 1.0
C      1  0.5020600000000  0.5424060000000  0.4186790000000 1.0
C      1  0.4709470000000  0.4151520000000  0.5541150000000 1.0
C      1  0.5684340000000  0.5475230000000  0.5519240000000 1.0
C      1  0.6051210000000  0.5921320000000  0.4733060000000 1.0
C      1  0.4405330000000  0.5234490000000  0.5452170000000 1.0
C      1  0.4149780000000  0.4541970000000  0.4739650000000 1.0
C      1  0.5436440000000  0.4767020000000  0.5670020000000 1.0
C      1  0.4231290000000  0.4382410000000  0.5184170000000 1.0
C      1  0.5425530000000  0.4244640000000  0.5137390000000 1.0
C      1  0.4129200000000  0.5185460000000  0.4640740000000 1.0
C      1  0.4580200000000  0.4032430000000  0.5320900000000 1.0
END
