TITL C-599895-9959-1030 -34.5161056623286 125000 -887.298426623417 0 0 145 (C1) n - 1
REM
REM in /home/nfs/bkarasulu/CARBON/AIRSS/Generating-Clusters/TERSOFF/Only-C1/FIRE-HFTN
REM
REM
REM
REM
REM
REM ./C.cell (11c1c37f851c82e70ff6c80c92926a4b)
REM AIRSS Version 0.9.1 bugfix July 2018 build 013d7b7c2542+ Fri, 06 Jul 2018 19:26:36 +0100
REM compiler GCC version 9.2.1 20190827 (Red Hat 9.2.1-1)
REM options -cpp -mtune=generic -march=x86-64 -g -O0 -fpre-include=/usr/include/finclude/math-vector-fortran.h
REM seed 1840712179 -1626224317 293614951 1540855493 2002467338 -1647821322 2087762532 -1946939527 -446816159 -1757441926 643722866 217168793 -773401946 1054381617 1962595175 165670841 1917767843 1730540587 1498771301 -1296422223 965632256 -1384154061 -1763249410 -1020974664 -715368579 752254119 -822902230 -621928017 -1384868030 -439275746 -993354096 -1157405736 495743112
REM
CELL 1.54180   50.00000   50.00000   50.00000   90.00000   90.00000   90.00000
LATT -1
SFAC C  
C      1  0.4341640000000  0.5002820000000  0.3949280000000 1.0
C      1  0.6291870000000  0.4259830000000  0.5354250000000 1.0
C      1  0.4085370000000  0.3680580000000  0.4152240000000 1.0
C      1  0.5748930000000  0.3700200000000  0.4667860000000 1.0
C      1  0.4686300000000  0.5446300000000  0.5400810000000 1.0
C      1  0.5819940000000  0.4953700000000  0.4425560000000 1.0
C      1  0.5489330000000  0.4415240000000  0.6195810000000 1.0
C      1  0.4072210000000  0.4522160000000  0.5392220000000 1.0
C      1  0.4028360000000  0.4627700000000  0.4687130000000 1.0
C      1  0.4748390000000  0.5568450000000  0.4501100000000 1.0
C      1  0.4861280000000  0.4525980000000  0.6042150000000 1.0
C      1  0.5483920000000  0.4828220000000  0.5926830000000 1.0
C      1  0.4496340000000  0.4919680000000  0.5865230000000 1.0
C      1  0.4328360000000  0.5666140000000  0.5182150000000 1.0
C      1  0.4083600000000  0.5471920000000  0.5542050000000 1.0
C      1  0.6117760000000  0.4471320000000  0.5375020000000 1.0
C      1  0.3961010000000  0.4716010000000  0.5202850000000 1.0
C      1  0.5115780000000  0.5009120000000  0.5041570000000 1.0
C      1  0.4283710000000  0.3840750000000  0.4206270000000 1.0
C      1  0.6213340000000  0.4947670000000  0.4732490000000 1.0
C      1  0.4850890000000  0.5224970000000  0.6051870000000 1.0
C      1  0.4050640000000  0.5511390000000  0.4382120000000 1.0
C      1  0.5923890000000  0.4463570000000  0.5580620000000 1.0
C      1  0.5039790000000  0.3303250000000  0.4463430000000 1.0
C      1  0.4483420000000  0.4559030000000  0.4339960000000 1.0
C      1  0.4853830000000  0.5621430000000  0.4968920000000 1.0
C      1  0.4710370000000  0.5364490000000  0.4303490000000 1.0
C      1  0.4791130000000  0.5844460000000  0.4423110000000 1.0
C      1  0.5423920000000  0.3649630000000  0.4035070000000 1.0
C      1  0.3987810000000  0.4978140000000  0.5353110000000 1.0
C      1  0.5257380000000  0.4419300000000  0.5064000000000 1.0
C      1  0.4987730000000  0.5453920000000  0.5449780000000 1.0
C      1  0.5280310000000  0.5196760000000  0.4907780000000 1.0
C      1  0.5920400000000  0.5559060000000  0.4908790000000 1.0
C      1  0.4522330000000  0.6011060000000  0.5512380000000 1.0
C      1  0.4825070000000  0.6048380000000  0.4623240000000 1.0
C      1  0.5337840000000  0.5520340000000  0.4205370000000 1.0
C      1  0.5006400000000  0.4549120000000  0.5059450000000 1.0
C      1  0.4899010000000  0.5108770000000  0.5178850000000 1.0
C      1  0.3879530000000  0.5094550000000  0.4421740000000 1.0
C      1  0.4549990000000  0.4568630000000  0.5162180000000 1.0
C      1  0.4114270000000  0.5461420000000  0.5252610000000 1.0
C      1  0.4500480000000  0.4005880000000  0.4268080000000 1.0
C      1  0.4926120000000  0.4975080000000  0.5623470000000 1.0
C      1  0.5069500000000  0.5040270000000  0.4546890000000 1.0
C      1  0.4295060000000  0.4641970000000  0.4563690000000 1.0
C      1  0.4074440000000  0.5244650000000  0.4265930000000 1.0
C      1  0.6133760000000  0.5147270000000  0.5804560000000 1.0
C      1  0.5635550000000  0.5159060000000  0.4331100000000 1.0
C      1  0.4291380000000  0.5363210000000  0.5699850000000 1.0
C      1  0.3932140000000  0.4780780000000  0.4918420000000 1.0
C      1  0.5749400000000  0.5373420000000  0.4772060000000 1.0
C      1  0.5254700000000  0.5867010000000  0.4823470000000 1.0
C      1  0.6089500000000  0.5012670000000  0.4500150000000 1.0
C      1  0.3994360000000  0.5206890000000  0.5161100000000 1.0
C      1  0.5292930000000  0.4611590000000  0.4535580000000 1.0
C      1  0.4916990000000  0.5355360000000  0.4102980000000 1.0
C      1  0.5706560000000  0.5542510000000  0.5356530000000 1.0
C      1  0.5756230000000  0.4454360000000  0.5789650000000 1.0
C      1  0.5356290000000  0.6353320000000  0.5436590000000 1.0
C      1  0.4619600000000  0.5607250000000  0.5145460000000 1.0
C      1  0.5588080000000  0.3640170000000  0.3817040000000 1.0
C      1  0.4653890000000  0.6167110000000  0.4814990000000 1.0
C      1  0.4720700000000  0.4705600000000  0.4203860000000 1.0
C      1  0.4878210000000  0.6242810000000  0.5300050000000 1.0
C      1  0.4713410000000  0.6246600000000  0.5067560000000 1.0
C      1  0.4617900000000  0.4461100000000  0.5931500000000 1.0
C      1  0.5477290000000  0.3493150000000  0.4267480000000 1.0
C      1  0.5366880000000  0.5194680000000  0.5452450000000 1.0
C      1  0.4990790000000  0.5956380000000  0.5718760000000 1.0
C      1  0.5120370000000  0.5723420000000  0.5048610000000 1.0
C      1  0.4423930000000  0.4822500000000  0.4743170000000 1.0
C      1  0.4287700000000  0.5089730000000  0.5761550000000 1.0
C      1  0.4894500000000  0.5477240000000  0.4725250000000 1.0
C      1  0.5441300000000  0.5460500000000  0.5366540000000 1.0
C      1  0.4787690000000  0.4981420000000  0.5895140000000 1.0
C      1  0.4857110000000  0.4913090000000  0.4688720000000 1.0
C      1  0.4425580000000  0.4635140000000  0.5814040000000 1.0
C      1  0.5893600000000  0.5052190000000  0.5770170000000 1.0
C      1  0.5528500000000  0.4962710000000  0.5454060000000 1.0
C      1  0.5428050000000  0.6178420000000  0.5627200000000 1.0
C      1  0.4990550000000  0.4842260000000  0.4159070000000 1.0
C      1  0.5126100000000  0.5285300000000  0.6052360000000 1.0
C      1  0.5728070000000  0.4739400000000  0.4583310000000 1.0
C      1  0.5474780000000  0.4602410000000  0.5007730000000 1.0
C      1  0.4888610000000  0.4726100000000  0.5485370000000 1.0
C      1  0.5094650000000  0.5195030000000  0.5548040000000 1.0
C      1  0.5549470000000  0.4778400000000  0.5230020000000 1.0
C      1  0.5381840000000  0.5217540000000  0.4161030000000 1.0
C      1  0.5721170000000  0.5940970000000  0.4693710000000 1.0
C      1  0.5275560000000  0.4139300000000  0.5033460000000 1.0
C      1  0.4799490000000  0.3746500000000  0.4567850000000 1.0
C      1  0.4962780000000  0.3897040000000  0.4139120000000 1.0
C      1  0.4315950000000  0.5122010000000  0.4194060000000 1.0
C      1  0.5522660000000  0.4009680000000  0.5012440000000 1.0
C      1  0.6143030000000  0.4682730000000  0.5188520000000 1.0
C      1  0.4467810000000  0.4283340000000  0.4272150000000 1.0
C      1  0.4849640000000  0.3470470000000  0.4548830000000 1.0
C      1  0.5042720000000  0.3996630000000  0.4967510000000 1.0
C      1  0.5642070000000  0.4943880000000  0.5716380000000 1.0
C      1  0.4996000000000  0.4783440000000  0.4903920000000 1.0
C      1  0.4600270000000  0.4991420000000  0.4609730000000 1.0
C      1  0.4752800000000  0.3889890000000  0.4325420000000 1.0
C      1  0.5487110000000  0.5611310000000  0.4435770000000 1.0
C      1  0.5080550000000  0.5601120000000  0.4107700000000 1.0
C      1  0.3907860000000  0.5080880000000  0.4911030000000 1.0
C      1  0.5093540000000  0.6071070000000  0.4710260000000 1.0
C      1  0.5940150000000  0.5815650000000  0.4791270000000 1.0
C      1  0.5166770000000  0.5563530000000  0.5978410000000 1.0
C      1  0.5674430000000  0.5399920000000  0.4498690000000 1.0
C      1  0.5510570000000  0.4634740000000  0.4719420000000 1.0
C      1  0.4649690000000  0.5174290000000  0.5281870000000 1.0
C      1  0.5244230000000  0.4947810000000  0.6036500000000 1.0
C      1  0.4194920000000  0.4636760000000  0.5631430000000 1.0
C      1  0.4109700000000  0.4926250000000  0.5607860000000 1.0
C      1  0.4441280000000  0.5027280000000  0.5178710000000 1.0
C      1  0.5090910000000  0.5113990000000  0.4069310000000 1.0
C      1  0.5198310000000  0.5605050000000  0.5298050000000 1.0
C      1  0.4331610000000  0.5906190000000  0.5348260000000 1.0
C      1  0.4813920000000  0.4560010000000  0.5266760000000 1.0
C      1  0.5194450000000  0.3811710000000  0.4039930000000 1.0
C      1  0.3838120000000  0.5222050000000  0.4681270000000 1.0
C      1  0.5473440000000  0.5810630000000  0.4643430000000 1.0
C      1  0.5555110000000  0.5232480000000  0.4918330000000 1.0
C      1  0.6207010000000  0.4830410000000  0.4974110000000 1.0
C      1  0.5284370000000  0.5974400000000  0.5751440000000 1.0
C      1  0.5282420000000  0.3308920000000  0.4351660000000 1.0
C      1  0.4986300000000  0.4783410000000  0.6039090000000 1.0
C      1  0.4801340000000  0.6076590000000  0.5526090000000 1.0
C      1  0.4665220000000  0.5624520000000  0.5867020000000 1.0
C      1  0.4537070000000  0.5151420000000  0.4374210000000 1.0
C      1  0.5570420000000  0.4558550000000  0.5978380000000 1.0
C      1  0.4868880000000  0.3881840000000  0.4802530000000 1.0
C      1  0.5378650000000  0.5745510000000  0.5901590000000 1.0
C      1  0.4540790000000  0.5486740000000  0.5659030000000 1.0
C      1  0.4924090000000  0.5722850000000  0.5888660000000 1.0
C      1  0.5677890000000  0.3570620000000  0.4446640000000 1.0
C      1  0.4948090000000  0.5841740000000  0.4182350000000 1.0
C      1  0.5691310000000  0.3856380000000  0.4875330000000 1.0
C      1  0.5123160000000  0.6379320000000  0.5306790000000 1.0
C      1  0.3913220000000  0.5498030000000  0.4623830000000 1.0
C      1  0.5161610000000  0.4812250000000  0.4391590000000 1.0
C      1  0.4439670000000  0.4791720000000  0.5025150000000 1.0
C      1  0.5115860000000  0.5288000000000  0.4685960000000 1.0
C      1  0.5916070000000  0.5548400000000  0.5189850000000 1.0
END
