TITL C-599895-9959-462 0.244705449880847 125000 -744.243935051425 0 0 120 (C1) n - 1
REM
REM in /home/nfs/bkarasulu/CARBON/AIRSS/Generating-Clusters/TERSOFF/Only-C1/FIRE-HFTN
REM
REM
REM
REM
REM
REM ./C.cell (11c1c37f851c82e70ff6c80c92926a4b)
REM AIRSS Version 0.9.1 bugfix July 2018 build 013d7b7c2542+ Fri, 06 Jul 2018 19:26:36 +0100
REM compiler GCC version 9.2.1 20190827 (Red Hat 9.2.1-1)
REM options -cpp -mtune=generic -march=x86-64 -g -O0 -fpre-include=/usr/include/finclude/math-vector-fortran.h
REM seed -530554667 1849147182 -1907762147 -1262927948 1999449840 -958317326 -36266974 -2106028399 1209334596 -1353227885 1680652294 -469032042 1550888990 582993580 1763310235 1778612108 -1502001771 1763929195 -1180737008 -789768437 -675097856 1335761505 1168836098 1885557826 1010503085 -1521745016 -343432652 -1109188691 -1146707843 -91258000 398378141 2107061038 -1445243847
REM
CELL 1.54180   50.00000   50.00000   50.00000   90.00000   90.00000   90.00000
LATT -1
SFAC C  
C      1  0.4453000000000  0.5762860000000  0.4743950000000 1.0
C      1  0.5087400000000  0.4601830000000  0.4263830000000 1.0
C      1  0.5479880000000  0.5318680000000  0.5315390000000 1.0
C      1  0.4788810000000  0.4964740000000  0.3997860000000 1.0
C      1  0.4360940000000  0.5774800000000  0.4472810000000 1.0
C      1  0.4340170000000  0.4252920000000  0.5690300000000 1.0
C      1  0.5736750000000  0.5534560000000  0.4296390000000 1.0
C      1  0.4469750000000  0.4069580000000  0.4500830000000 1.0
C      1  0.4087200000000  0.5179050000000  0.5462600000000 1.0
C      1  0.5111680000000  0.4592670000000  0.5849180000000 1.0
C      1  0.5168280000000  0.6029160000000  0.4861360000000 1.0
C      1  0.4848510000000  0.4853660000000  0.4620580000000 1.0
C      1  0.4638390000000  0.4681650000000  0.5726420000000 1.0
C      1  0.4850660000000  0.5327660000000  0.4577600000000 1.0
C      1  0.4285990000000  0.5608860000000  0.5192510000000 1.0
C      1  0.4147470000000  0.5922790000000  0.4392190000000 1.0
C      1  0.5216260000000  0.5353000000000  0.5205550000000 1.0
C      1  0.5552240000000  0.5028730000000  0.4428010000000 1.0
C      1  0.5710890000000  0.5365270000000  0.5151540000000 1.0
C      1  0.4958540000000  0.6075060000000  0.5290040000000 1.0
C      1  0.4668530000000  0.4392480000000  0.5291660000000 1.0
C      1  0.4370150000000  0.4325970000000  0.4430760000000 1.0
C      1  0.4577960000000  0.5784960000000  0.5513360000000 1.0
C      1  0.4866960000000  0.4401470000000  0.4240850000000 1.0
C      1  0.5304120000000  0.5107160000000  0.3904920000000 1.0
C      1  0.3870500000000  0.4363930000000  0.5681210000000 1.0
C      1  0.4095840000000  0.5226670000000  0.4664760000000 1.0
C      1  0.5447130000000  0.4216250000000  0.4658940000000 1.0
C      1  0.5025400000000  0.5506990000000  0.5656500000000 1.0
C      1  0.4390910000000  0.5574260000000  0.5455130000000 1.0
C      1  0.4836690000000  0.4657210000000  0.5938650000000 1.0
C      1  0.4394350000000  0.5248820000000  0.6065370000000 1.0
C      1  0.5279070000000  0.4989220000000  0.4911710000000 1.0
C      1  0.5311560000000  0.4421860000000  0.4256770000000 1.0
C      1  0.4940220000000  0.4176820000000  0.4437570000000 1.0
C      1  0.4834950000000  0.4897900000000  0.6106490000000 1.0
C      1  0.4521210000000  0.5128940000000  0.4892440000000 1.0
C      1  0.5878790000000  0.5029580000000  0.4839410000000 1.0
C      1  0.4303910000000  0.5324230000000  0.5590030000000 1.0
C      1  0.4637350000000  0.4784090000000  0.4153330000000 1.0
C      1  0.5267320000000  0.5084810000000  0.4460170000000 1.0
C      1  0.4833480000000  0.5914330000000  0.5486630000000 1.0
C      1  0.5082920000000  0.4855260000000  0.4424130000000 1.0
C      1  0.5536670000000  0.5193880000000  0.5570830000000 1.0
C      1  0.5146710000000  0.4221790000000  0.5088580000000 1.0
C      1  0.5412250000000  0.5367370000000  0.3930060000000 1.0
C      1  0.5631110000000  0.4428890000000  0.4555590000000 1.0
C      1  0.5894000000000  0.5152720000000  0.5098910000000 1.0
C      1  0.4232340000000  0.4841090000000  0.5158330000000 1.0
C      1  0.5489560000000  0.4899250000000  0.3969190000000 1.0
C      1  0.4716800000000  0.4067690000000  0.4895440000000 1.0
C      1  0.5593460000000  0.4817490000000  0.4223380000000 1.0
C      1  0.4572390000000  0.4118120000000  0.5636390000000 1.0
C      1  0.4741680000000  0.5112580000000  0.4719610000000 1.0
C      1  0.5235550000000  0.4200880000000  0.4454450000000 1.0
C      1  0.6004470000000  0.5124850000000  0.5577520000000 1.0
C      1  0.5187590000000  0.5652190000000  0.4633500000000 1.0
C      1  0.5359720000000  0.4607360000000  0.5170170000000 1.0
C      1  0.5667250000000  0.5644800000000  0.4766670000000 1.0
C      1  0.3911320000000  0.5155540000000  0.4495070000000 1.0
C      1  0.5856890000000  0.4742660000000  0.4853640000000 1.0
C      1  0.5103490000000  0.4521280000000  0.5044990000000 1.0
C      1  0.4720870000000  0.5450860000000  0.4362600000000 1.0
C      1  0.5787790000000  0.5772490000000  0.5506550000000 1.0
C      1  0.4179610000000  0.4732520000000  0.5629460000000 1.0
C      1  0.5229380000000  0.4164480000000  0.5581790000000 1.0
C      1  0.4993120000000  0.5850960000000  0.4734750000000 1.0
C      1  0.4775380000000  0.4172300000000  0.5440880000000 1.0
C      1  0.5749180000000  0.5164670000000  0.4607710000000 1.0
C      1  0.5676520000000  0.5831280000000  0.5250900000000 1.0
C      1  0.5194190000000  0.5257000000000  0.4933300000000 1.0
C      1  0.4960470000000  0.5400910000000  0.5914680000000 1.0
C      1  0.5429540000000  0.5774670000000  0.4697780000000 1.0
C      1  0.5008830000000  0.5349680000000  0.5404710000000 1.0
C      1  0.4404040000000  0.4850980000000  0.5768440000000 1.0
C      1  0.5400350000000  0.4793570000000  0.4781040000000 1.0
C      1  0.5221510000000  0.4344860000000  0.5782010000000 1.0
C      1  0.4102470000000  0.4688890000000  0.4972610000000 1.0
C      1  0.5456630000000  0.6008930000000  0.5235250000000 1.0
C      1  0.4604120000000  0.4770600000000  0.4443660000000 1.0
C      1  0.5208550000000  0.4840840000000  0.5736620000000 1.0
C      1  0.5844640000000  0.4575880000000  0.5094100000000 1.0
C      1  0.5758530000000  0.5453220000000  0.4568360000000 1.0
C      1  0.4905590000000  0.5129980000000  0.5954280000000 1.0
C      1  0.5584320000000  0.4422630000000  0.5099960000000 1.0
C      1  0.4735270000000  0.4053850000000  0.4607500000000 1.0
C      1  0.5998620000000  0.4995880000000  0.5324580000000 1.0
C      1  0.5198750000000  0.6067490000000  0.5134500000000 1.0
C      1  0.4880390000000  0.5092960000000  0.5444420000000 1.0
C      1  0.4703720000000  0.4908620000000  0.5307350000000 1.0
C      1  0.5426290000000  0.4201180000000  0.4952540000000 1.0
C      1  0.4393570000000  0.4374310000000  0.4150510000000 1.0
C      1  0.5790030000000  0.5285880000000  0.5672550000000 1.0
C      1  0.4684300000000  0.4646310000000  0.5435400000000 1.0
C      1  0.5135080000000  0.5362930000000  0.4650310000000 1.0
C      1  0.4617180000000  0.4307070000000  0.5023770000000 1.0
C      1  0.4478270000000  0.4547810000000  0.4590800000000 1.0
C      1  0.4106760000000  0.4899720000000  0.5406700000000 1.0
C      1  0.5588870000000  0.5509270000000  0.4073940000000 1.0
C      1  0.5569160000000  0.4533380000000  0.4291270000000 1.0
C      1  0.5823400000000  0.5567800000000  0.5679160000000 1.0
C      1  0.5979180000000  0.4710430000000  0.5304990000000 1.0
C      1  0.4518130000000  0.5615520000000  0.4300910000000 1.0
C      1  0.5632890000000  0.4656980000000  0.4714150000000 1.0
C      1  0.5722840000000  0.5629060000000  0.5046140000000 1.0
C      1  0.5024420000000  0.5057310000000  0.3904110000000 1.0
C      1  0.4131220000000  0.4449850000000  0.5666750000000 1.0
C      1  0.5027490000000  0.5784570000000  0.5643520000000 1.0
C      1  0.4639750000000  0.4498320000000  0.4088130000000 1.0
C      1  0.5053810000000  0.4131040000000  0.5360570000000 1.0
C      1  0.4719340000000  0.5845860000000  0.4781040000000 1.0
C      1  0.4624980000000  0.4513370000000  0.4838000000000 1.0
C      1  0.5439800000000  0.4794710000000  0.5351510000000 1.0
C      1  0.4309900000000  0.5306810000000  0.4823890000000 1.0
C      1  0.4492920000000  0.4962220000000  0.5119040000000 1.0
C      1  0.4890140000000  0.4644330000000  0.4847830000000 1.0
C      1  0.4332130000000  0.5573860000000  0.4919460000000 1.0
C      1  0.4393140000000  0.5145990000000  0.5809510000000 1.0
C      1  0.4987170000000  0.5012530000000  0.5699860000000 1.0
C      1  0.5430070000000  0.4929400000000  0.5591810000000 1.0
END
