TITL C-599895-9959-725 1.30064352438631e-05 125000 -908.670359340571 0 0 149 (C1) n - 1
REM
REM in /home/nfs/bkarasulu/CARBON/AIRSS/Generating-Clusters/TERSOFF/Only-C1/FIRE-HFTN
REM
REM
REM
REM
REM
REM ./C.cell (11c1c37f851c82e70ff6c80c92926a4b)
REM AIRSS Version 0.9.1 bugfix July 2018 build 013d7b7c2542+ Fri, 06 Jul 2018 19:26:36 +0100
REM compiler GCC version 9.2.1 20190827 (Red Hat 9.2.1-1)
REM options -cpp -mtune=generic -march=x86-64 -g -O0 -fpre-include=/usr/include/finclude/math-vector-fortran.h
REM seed 1316073635 1445535386 465994644 197190674 -861476755 -1261602405 1184215739 -246345170 254266758 1927546673 1340136499 -223389370 1086925792 -137797079 -141267254 -2145141611 1979449612 1484508757 -1436697116 -731183340 -1052788368 -608391714 1972866367 -1030068274 1947939799 1270873996 -487074140 1316796456 958891388 -908716061 -2000618888 -1251165817 -261524332
REM
CELL 1.54180   50.00000   50.00000   50.00000   90.00000   90.00000   90.00000
LATT -1
SFAC C  
C      1  0.5927110000000  0.5271990000000  0.5600750000000 1.0
C      1  0.5397760000000  0.5755740000000  0.4237100000000 1.0
C      1  0.5191930000000  0.4021600000000  0.4613030000000 1.0
C      1  0.4397000000000  0.4336200000000  0.4975730000000 1.0
C      1  0.4505030000000  0.5335510000000  0.5191280000000 1.0
C      1  0.4731340000000  0.3968250000000  0.5053460000000 1.0
C      1  0.4883990000000  0.6088200000000  0.4667240000000 1.0
C      1  0.4571520000000  0.5847890000000  0.4123130000000 1.0
C      1  0.3858290000000  0.4985320000000  0.5265020000000 1.0
C      1  0.5345520000000  0.4598390000000  0.5082530000000 1.0
C      1  0.5390640000000  0.6014720000000  0.5230420000000 1.0
C      1  0.4714820000000  0.4984880000000  0.5516130000000 1.0
C      1  0.4607730000000  0.5118800000000  0.5978150000000 1.0
C      1  0.5911830000000  0.4521170000000  0.4504070000000 1.0
C      1  0.4336260000000  0.5070230000000  0.4053130000000 1.0
C      1  0.3971570000000  0.4996250000000  0.5530420000000 1.0
C      1  0.5593650000000  0.5187170000000  0.4671770000000 1.0
C      1  0.4946910000000  0.4373900000000  0.4343080000000 1.0
C      1  0.4885770000000  0.5003140000000  0.5026740000000 1.0
C      1  0.4500540000000  0.3726690000000  0.4696880000000 1.0
C      1  0.4900660000000  0.5064220000000  0.6005810000000 1.0
C      1  0.4664740000000  0.4249260000000  0.5077240000000 1.0
C      1  0.4129080000000  0.4822540000000  0.4921830000000 1.0
C      1  0.4584120000000  0.5183480000000  0.4679080000000 1.0
C      1  0.5088940000000  0.3786360000000  0.5399090000000 1.0
C      1  0.4548120000000  0.5617270000000  0.5175690000000 1.0
C      1  0.5768150000000  0.5205860000000  0.5185430000000 1.0
C      1  0.4372500000000  0.4922830000000  0.5010770000000 1.0
C      1  0.4259890000000  0.4419550000000  0.4418710000000 1.0
C      1  0.5624240000000  0.4510400000000  0.5081410000000 1.0
C      1  0.5133660000000  0.5529460000000  0.3898760000000 1.0
C      1  0.3987910000000  0.5453420000000  0.4596200000000 1.0
C      1  0.4895430000000  0.5616050000000  0.4636970000000 1.0
C      1  0.5244340000000  0.3968070000000  0.5552430000000 1.0
C      1  0.4724010000000  0.3848330000000  0.4794730000000 1.0
C      1  0.5817150000000  0.4791140000000  0.4467000000000 1.0
C      1  0.5278920000000  0.5750310000000  0.5910980000000 1.0
C      1  0.5917450000000  0.5078760000000  0.5813290000000 1.0
C      1  0.4479550000000  0.5901040000000  0.5216610000000 1.0
C      1  0.5599970000000  0.5584580000000  0.5373600000000 1.0
C      1  0.5887690000000  0.4414120000000  0.5478390000000 1.0
C      1  0.4827730000000  0.5627350000000  0.5226320000000 1.0
C      1  0.4963440000000  0.3864800000000  0.4650040000000 1.0
C      1  0.5166570000000  0.4371870000000  0.5063040000000 1.0
C      1  0.5597080000000  0.5378960000000  0.3996760000000 1.0
C      1  0.4607100000000  0.4981260000000  0.4006060000000 1.0
C      1  0.4876670000000  0.4702480000000  0.5005240000000 1.0
C      1  0.5008130000000  0.5865170000000  0.4535660000000 1.0
C      1  0.3933890000000  0.4752730000000  0.5115550000000 1.0
C      1  0.5016150000000  0.4626240000000  0.4749190000000 1.0
C      1  0.4015210000000  0.4966250000000  0.4440740000000 1.0
C      1  0.4380570000000  0.4437450000000  0.4687630000000 1.0
C      1  0.5708790000000  0.4307110000000  0.4502400000000 1.0
C      1  0.5645860000000  0.5397590000000  0.5608970000000 1.0
C      1  0.5176200000000  0.5517070000000  0.5489530000000 1.0
C      1  0.4637840000000  0.6131390000000  0.5602230000000 1.0
C      1  0.4773620000000  0.5370000000000  0.4561870000000 1.0
C      1  0.5171830000000  0.4856850000000  0.5669040000000 1.0
C      1  0.4937760000000  0.6110110000000  0.4954170000000 1.0
C      1  0.4184670000000  0.4895930000000  0.5697830000000 1.0
C      1  0.5738920000000  0.4922800000000  0.4714740000000 1.0
C      1  0.3933220000000  0.4472860000000  0.5143000000000 1.0
C      1  0.5682300000000  0.4318100000000  0.5304290000000 1.0
C      1  0.6242510000000  0.5118390000000  0.5172600000000 1.0
C      1  0.5197580000000  0.4214210000000  0.4392770000000 1.0
C      1  0.3998520000000  0.5571570000000  0.4843360000000 1.0
C      1  0.5106630000000  0.5051370000000  0.5241890000000 1.0
C      1  0.4349220000000  0.5766910000000  0.5688110000000 1.0
C      1  0.4588220000000  0.4627570000000  0.4623770000000 1.0
C      1  0.5306330000000  0.4129720000000  0.5082700000000 1.0
C      1  0.4616600000000  0.4689470000000  0.4092480000000 1.0
C      1  0.5363900000000  0.5619600000000  0.4729380000000 1.0
C      1  0.4263710000000  0.4422360000000  0.5459470000000 1.0
C      1  0.5050110000000  0.5074020000000  0.4782530000000 1.0
C      1  0.5357780000000  0.4651140000000  0.5663470000000 1.0
C      1  0.4867020000000  0.6029870000000  0.5450070000000 1.0
C      1  0.3906700000000  0.5460420000000  0.5076650000000 1.0
C      1  0.4834100000000  0.4499260000000  0.4577650000000 1.0
C      1  0.4176910000000  0.4890750000000  0.4214970000000 1.0
C      1  0.5209620000000  0.6107190000000  0.5051500000000 1.0
C      1  0.4747960000000  0.6055050000000  0.5165320000000 1.0
C      1  0.5111980000000  0.4758990000000  0.4135530000000 1.0
C      1  0.4866220000000  0.3822550000000  0.5252980000000 1.0
C      1  0.4051900000000  0.4789080000000  0.4658240000000 1.0
C      1  0.6017710000000  0.5213200000000  0.5329470000000 1.0
C      1  0.5086770000000  0.4086530000000  0.5772660000000 1.0
C      1  0.3786780000000  0.5200470000000  0.5080010000000 1.0
C      1  0.4662200000000  0.6176000000000  0.4514280000000 1.0
C      1  0.5388640000000  0.5576260000000  0.4015900000000 1.0
C      1  0.4914260000000  0.4324380000000  0.5749980000000 1.0
C      1  0.5101080000000  0.5560200000000  0.4832710000000 1.0
C      1  0.5810610000000  0.4522760000000  0.5728010000000 1.0
C      1  0.4556950000000  0.6053310000000  0.4296300000000 1.0
C      1  0.5473680000000  0.4289360000000  0.4325920000000 1.0
C      1  0.5257190000000  0.4687750000000  0.4614570000000 1.0
C      1  0.4408040000000  0.5973580000000  0.5501470000000 1.0
C      1  0.4592670000000  0.4739580000000  0.5558470000000 1.0
C      1  0.5418630000000  0.5877010000000  0.5713320000000 1.0
C      1  0.4558340000000  0.5208460000000  0.5442540000000 1.0
C      1  0.5563430000000  0.5440570000000  0.4829950000000 1.0
C      1  0.4670320000000  0.5628080000000  0.4004690000000 1.0
C      1  0.4893930000000  0.4523100000000  0.5955710000000 1.0
C      1  0.5458290000000  0.5219030000000  0.5809690000000 1.0
C      1  0.3713260000000  0.5127360000000  0.4803010000000 1.0
C      1  0.4933920000000  0.5720420000000  0.5494830000000 1.0
C      1  0.5271750000000  0.4435550000000  0.5501670000000 1.0
C      1  0.5139600000000  0.5266420000000  0.5936250000000 1.0
C      1  0.5171920000000  0.5338260000000  0.5262430000000 1.0
C      1  0.6089260000000  0.4545770000000  0.5332210000000 1.0
C      1  0.6181370000000  0.4551810000000  0.4611840000000 1.0
C      1  0.5814820000000  0.4949190000000  0.4227780000000 1.0
C      1  0.4971290000000  0.4420460000000  0.5476290000000 1.0
C      1  0.5189260000000  0.5176790000000  0.4335030000000 1.0
C      1  0.5024770000000  0.5494440000000  0.5081610000000 1.0
C      1  0.4831170000000  0.5637910000000  0.5772990000000 1.0
C      1  0.4892020000000  0.4441020000000  0.5170370000000 1.0
C      1  0.5604230000000  0.4707380000000  0.5786230000000 1.0
C      1  0.5773660000000  0.4768610000000  0.4995290000000 1.0
C      1  0.5656830000000  0.4128940000000  0.4724610000000 1.0
C      1  0.4559560000000  0.4909860000000  0.4574780000000 1.0
C      1  0.5648450000000  0.5175690000000  0.4187040000000 1.0
C      1  0.4992140000000  0.4977980000000  0.5500150000000 1.0
C      1  0.4886100000000  0.4573710000000  0.4131210000000 1.0
C      1  0.4938200000000  0.4776870000000  0.6046640000000 1.0
C      1  0.5618980000000  0.4970800000000  0.5163150000000 1.0
C      1  0.6317420000000  0.4746170000000  0.4755960000000 1.0
C      1  0.5297900000000  0.4704310000000  0.4346410000000 1.0
C      1  0.4839900000000  0.5150400000000  0.3991640000000 1.0
C      1  0.5007740000000  0.5200910000000  0.4541190000000 1.0
C      1  0.5465080000000  0.5197000000000  0.4406850000000 1.0
C      1  0.5345600000000  0.4879090000000  0.5169340000000 1.0
C      1  0.4866280000000  0.5434610000000  0.3940200000000 1.0
C      1  0.3875060000000  0.5192600000000  0.4562820000000 1.0
C      1  0.6045610000000  0.4714980000000  0.5111590000000 1.0
C      1  0.4353950000000  0.5048360000000  0.5887980000000 1.0
C      1  0.4592110000000  0.5131130000000  0.4984790000000 1.0
C      1  0.5075750000000  0.5037530000000  0.4109480000000 1.0
C      1  0.5065450000000  0.5555430000000  0.5927680000000 1.0
C      1  0.4552750000000  0.5642960000000  0.5820080000000 1.0
C      1  0.5646080000000  0.5452060000000  0.5110130000000 1.0
C      1  0.6252870000000  0.4880750000000  0.5004170000000 1.0
C      1  0.5418440000000  0.4173600000000  0.5387960000000 1.0
C      1  0.5297330000000  0.5796030000000  0.4497560000000 1.0
C      1  0.5398210000000  0.4044270000000  0.4822290000000 1.0
C      1  0.5647810000000  0.4981450000000  0.5862800000000 1.0
C      1  0.4326590000000  0.4662420000000  0.5593850000000 1.0
C      1  0.4192070000000  0.4360140000000  0.5188700000000 1.0
C      1  0.5492250000000  0.5845500000000  0.5436030000000 1.0
C      1  0.4332810000000  0.4626430000000  0.4215590000000 1.0
END
