TITL C-599892-9790-1433 7.44616079875186e-05 125000 -407.337560314296 0 0 68 (C1) n - 1
REM
REM in /home/nfs/bkarasulu/CARBON/AIRSS/Generating-Clusters/TERSOFF/Only-C1/FIRE-HFTN
REM
REM
REM
REM
REM
REM ./C.cell (11c1c37f851c82e70ff6c80c92926a4b)
REM AIRSS Version 0.9.1 bugfix July 2018 build 013d7b7c2542+ Fri, 06 Jul 2018 19:26:36 +0100
REM compiler GCC version 9.2.1 20190827 (Red Hat 9.2.1-1)
REM options -cpp -mtune=generic -march=x86-64 -g -O0 -fpre-include=/usr/include/finclude/math-vector-fortran.h
REM seed 345230477 -55482878 25250899 2145214936 1701210416 -420161516 -1719628972 891410401 -1624851171 250811118 731839767 -792832700 -1346089631 378610877 2109314348 494798404 -1704065759 556867363 1335608063 19033560 967177591 -1059931052 748073034 -737076212 1060944623 417375424 -1292474527 -157807125 -399045882 -434665296 373328004 -2094566039 1745312939
REM
CELL 1.54180   50.00000   50.00000   50.00000   90.00000   90.00000   90.00000
LATT -1
SFAC C  
C      1  0.4584950000000  0.4885800000000  0.4432070000000 1.0
C      1  0.4567720000000  0.4870980000000  0.5314510000000 1.0
C      1  0.5005570000000  0.4203320000000  0.5167410000000 1.0
C      1  0.5249270000000  0.4956680000000  0.4735350000000 1.0
C      1  0.5263940000000  0.5128860000000  0.4502000000000 1.0
C      1  0.4854910000000  0.4513280000000  0.5528270000000 1.0
C      1  0.5753910000000  0.5638490000000  0.4635640000000 1.0
C      1  0.5538160000000  0.5345550000000  0.4980970000000 1.0
C      1  0.4846510000000  0.4924080000000  0.4299930000000 1.0
C      1  0.5656950000000  0.4314950000000  0.5214780000000 1.0
C      1  0.5714440000000  0.4869760000000  0.4722850000000 1.0
C      1  0.4168990000000  0.5181090000000  0.5296390000000 1.0
C      1  0.4418880000000  0.5481970000000  0.4995950000000 1.0
C      1  0.5950710000000  0.5789360000000  0.4555530000000 1.0
C      1  0.4289390000000  0.4936890000000  0.5219680000000 1.0
C      1  0.5314730000000  0.5474280000000  0.5150560000000 1.0
C      1  0.4894300000000  0.5727860000000  0.4683390000000 1.0
C      1  0.4475740000000  0.4452890000000  0.4713070000000 1.0
C      1  0.5331670000000  0.4506720000000  0.4586250000000 1.0
C      1  0.4464470000000  0.5429320000000  0.4708650000000 1.0
C      1  0.5054780000000  0.4409560000000  0.4666380000000 1.0
C      1  0.4621720000000  0.5652190000000  0.4600520000000 1.0
C      1  0.5288720000000  0.4729030000000  0.5465910000000 1.0
C      1  0.4602640000000  0.4597990000000  0.4510480000000 1.0
C      1  0.4968700000000  0.5849670000000  0.4934640000000 1.0
C      1  0.4840180000000  0.5419950000000  0.5250770000000 1.0
C      1  0.5216500000000  0.5740270000000  0.5051580000000 1.0
C      1  0.4783720000000  0.4889960000000  0.5078640000000 1.0
C      1  0.5747000000000  0.4556800000000  0.5614890000000 1.0
C      1  0.4970880000000  0.4268460000000  0.5432210000000 1.0
C      1  0.4919670000000  0.4390240000000  0.4943020000000 1.0
C      1  0.5010620000000  0.4681480000000  0.4273390000000 1.0
C      1  0.4878980000000  0.5257160000000  0.4656820000000 1.0
C      1  0.5546130000000  0.5476290000000  0.4720760000000 1.0
C      1  0.5441630000000  0.4447350000000  0.5122640000000 1.0
C      1  0.5315810000000  0.5412250000000  0.4570840000000 1.0
C      1  0.5048610000000  0.5497550000000  0.4647320000000 1.0
C      1  0.4421280000000  0.5094490000000  0.4580350000000 1.0
C      1  0.4985480000000  0.5128110000000  0.4420460000000 1.0
C      1  0.4869580000000  0.4496620000000  0.4452780000000 1.0
C      1  0.4195970000000  0.5405060000000  0.5148480000000 1.0
C      1  0.5616820000000  0.5052470000000  0.4951980000000 1.0
C      1  0.4197920000000  0.4848670000000  0.4967370000000 1.0
C      1  0.5531030000000  0.4814680000000  0.4262380000000 1.0
C      1  0.5272910000000  0.4697710000000  0.5165750000000 1.0
C      1  0.4610980000000  0.4368650000000  0.4945670000000 1.0
C      1  0.5806370000000  0.4364370000000  0.5434370000000 1.0
C      1  0.4741340000000  0.5851720000000  0.5106340000000 1.0
C      1  0.5528460000000  0.4714270000000  0.5611600000000 1.0
C      1  0.4518930000000  0.5210140000000  0.5727020000000 1.0
C      1  0.5032620000000  0.4736630000000  0.5586420000000 1.0
C      1  0.5105470000000  0.5236390000000  0.5589250000000 1.0
C      1  0.5577860000000  0.4594680000000  0.4720970000000 1.0
C      1  0.4655990000000  0.5033770000000  0.5555220000000 1.0
C      1  0.5298410000000  0.4655540000000  0.4323730000000 1.0
C      1  0.5360630000000  0.4922550000000  0.4995230000000 1.0
C      1  0.4213770000000  0.4967420000000  0.4726440000000 1.0
C      1  0.4866520000000  0.5479840000000  0.5945250000000 1.0
C      1  0.4498590000000  0.4391630000000  0.5206640000000 1.0
C      1  0.5093890000000  0.5406240000000  0.5816790000000 1.0
C      1  0.4613130000000  0.5396580000000  0.5898910000000 1.0
C      1  0.4600000000000  0.4576300000000  0.5399640000000 1.0
C      1  0.4980320000000  0.4671250000000  0.5067830000000 1.0
C      1  0.5110350000000  0.5358590000000  0.5328650000000 1.0
C      1  0.4638930000000  0.5589810000000  0.5150340000000 1.0
C      1  0.4936160000000  0.5000600000000  0.5610080000000 1.0
C      1  0.4802470000000  0.5099320000000  0.4884130000000 1.0
C      1  0.5716280000000  0.4927560000000  0.4435860000000 1.0
END
