TITL C-599891-72-607 0.0609123615889001 125000 -156.003271420875 0 0 28 (C1) n - 1
REM
REM in /home/nfs/bkarasulu/CARBON/AIRSS/Generating-Clusters/TERSOFF/Only-C1/FIRE-HFTN
REM
REM
REM
REM
REM
REM ./C.cell (11c1c37f851c82e70ff6c80c92926a4b)
REM AIRSS Version 0.9.1 bugfix July 2018 build 013d7b7c2542+ Fri, 06 Jul 2018 19:26:36 +0100
REM compiler GCC version 9.2.1 20190827 (Red Hat 9.2.1-1)
REM options -cpp -mtune=generic -march=x86-64 -g -O0 -fpre-include=/usr/include/finclude/math-vector-fortran.h
REM seed -1831971576 -347160378 518212772 -852859287 -1085331495 -1846278262 -2019375306 133568797 -935435539 136169910 -2120555949 -521197506 -1924551668 1061744215 1558418629 -1797472777 1818813944 2008202993 418000800 61835851 1777063176 -1464906610 48408986 1264072638 -447430362 -1269476577 1487897407 2092712446 704073057 1415670213 -1829138490 -1816337371 67102477
REM
CELL 1.54180   50.00000   50.00000   50.00000   90.00000   90.00000   90.00000
LATT -1
SFAC C  
C      1  0.5105910000000  0.5316820000000  0.5077960000000 1.0
C      1  0.4250230000000  0.4234140000000  0.4934230000000 1.0
C      1  0.4438490000000  0.4902930000000  0.5274170000000 1.0
C      1  0.5300590000000  0.5170000000000  0.4916360000000 1.0
C      1  0.3991460000000  0.4966270000000  0.4978670000000 1.0
C      1  0.5460280000000  0.5615800000000  0.4952480000000 1.0
C      1  0.5482140000000  0.5761720000000  0.4708760000000 1.0
C      1  0.4041890000000  0.4135570000000  0.5056030000000 1.0
C      1  0.4671530000000  0.4486210000000  0.4737080000000 1.0
C      1  0.5209400000000  0.5584200000000  0.5095850000000 1.0
C      1  0.4467520000000  0.4460830000000  0.5588690000000 1.0
C      1  0.4654960000000  0.5077150000000  0.5245900000000 1.0
C      1  0.4456160000000  0.4685070000000  0.5448050000000 1.0
C      1  0.5721930000000  0.5288910000000  0.4678040000000 1.0
C      1  0.5060780000000  0.4831610000000  0.4646730000000 1.0
C      1  0.5991910000000  0.5114000000000  0.5613300000000 1.0
C      1  0.5341020000000  0.5178990000000  0.4432220000000 1.0
C      1  0.4462620000000  0.4348490000000  0.4824350000000 1.0
C      1  0.5575390000000  0.5320350000000  0.4939200000000 1.0
C      1  0.5506080000000  0.5643470000000  0.4462700000000 1.0
C      1  0.4474370000000  0.4233520000000  0.5716130000000 1.0
C      1  0.5557410000000  0.5362670000000  0.4453320000000 1.0
C      1  0.5863910000000  0.5178780000000  0.5395630000000 1.0
C      1  0.4872530000000  0.5215010000000  0.5184410000000 1.0
C      1  0.5732930000000  0.5244840000000  0.5175130000000 1.0
C      1  0.4205420000000  0.4944370000000  0.5125850000000 1.0
C      1  0.5230120000000  0.5051360000000  0.4663300000000 1.0
C      1  0.4873030000000  0.4646930000000  0.4675450000000 1.0
END
