TITL C-599890-3321-75 0.15344454833324 125000 -916.94359842639 0 0 147 (C1) n - 1
REM
REM in /home/nfs/bkarasulu/CARBON/AIRSS/Generating-Clusters/TERSOFF/Only-C1/FIRE-HFTN
REM
REM
REM
REM
REM
REM ./C.cell (11c1c37f851c82e70ff6c80c92926a4b)
REM AIRSS Version 0.9.1 bugfix July 2018 build 013d7b7c2542+ Fri, 06 Jul 2018 19:26:36 +0100
REM compiler GCC version 9.2.1 20190827 (Red Hat 9.2.1-1)
REM options -cpp -mtune=generic -march=x86-64 -g -O0 -fpre-include=/usr/include/finclude/math-vector-fortran.h
REM seed 2040755212 -180162412 -1594140975 -88223269 -752109743 1364362259 993567168 -776105029 366344822 1553884704 -267660413 -707895243 665907819 -135022996 976506278 1795911627 -158093545 731318756 180759254 1422953267 -1505953062 -1202047454 -1282837528 -818770041 -162396900 1676230634 -2088801284 980387883 1987749414 39003128 1134844728 -86148537 1927175569
REM
CELL 1.54180   50.00000   50.00000   50.00000   90.00000   90.00000   90.00000
LATT -1
SFAC C  
C      1  0.6626700000000  0.4944350000000  0.4520270000000 1.0
C      1  0.6171820000000  0.4632490000000  0.4804710000000 1.0
C      1  0.5035070000000  0.6079750000000  0.3738870000000 1.0
C      1  0.4701110000000  0.4539150000000  0.5979530000000 1.0
C      1  0.4337120000000  0.4478650000000  0.4858220000000 1.0
C      1  0.6223400000000  0.4838300000000  0.5002600000000 1.0
C      1  0.5397590000000  0.5742800000000  0.5366000000000 1.0
C      1  0.5481630000000  0.5243930000000  0.6030180000000 1.0
C      1  0.5076550000000  0.4987550000000  0.5151570000000 1.0
C      1  0.5678780000000  0.4754760000000  0.5924540000000 1.0
C      1  0.4408480000000  0.4207820000000  0.4930140000000 1.0
C      1  0.5047610000000  0.5728590000000  0.5011740000000 1.0
C      1  0.4637430000000  0.4776440000000  0.4017260000000 1.0
C      1  0.5316460000000  0.4983580000000  0.4947700000000 1.0
C      1  0.4800010000000  0.5019100000000  0.6037540000000 1.0
C      1  0.4064500000000  0.5838750000000  0.5550130000000 1.0
C      1  0.4547840000000  0.4117480000000  0.5176010000000 1.0
C      1  0.5397060000000  0.4171510000000  0.5460160000000 1.0
C      1  0.5908910000000  0.4410840000000  0.5581120000000 1.0
C      1  0.4390770000000  0.4566160000000  0.4584410000000 1.0
C      1  0.4885840000000  0.4952900000000  0.3934130000000 1.0
C      1  0.5608040000000  0.5377100000000  0.5139800000000 1.0
C      1  0.5110180000000  0.5931420000000  0.4802310000000 1.0
C      1  0.5812360000000  0.4574320000000  0.5773950000000 1.0
C      1  0.5111400000000  0.5219240000000  0.4277400000000 1.0
C      1  0.4948450000000  0.5222890000000  0.4029280000000 1.0
C      1  0.6464280000000  0.4983620000000  0.4973630000000 1.0
C      1  0.4009840000000  0.5257830000000  0.5153990000000 1.0
C      1  0.5378160000000  0.4668400000000  0.5418830000000 1.0
C      1  0.4417820000000  0.5429520000000  0.5379480000000 1.0
C      1  0.3977630000000  0.5581090000000  0.5473850000000 1.0
C      1  0.4770090000000  0.4041660000000  0.4638840000000 1.0
C      1  0.4324770000000  0.6000760000000  0.4633250000000 1.0
C      1  0.4602810000000  0.4781830000000  0.5551030000000 1.0
C      1  0.4887530000000  0.5766950000000  0.4388390000000 1.0
C      1  0.5389710000000  0.5977800000000  0.4769890000000 1.0
C      1  0.5539650000000  0.5537220000000  0.4906440000000 1.0
C      1  0.4580870000000  0.6304260000000  0.5676550000000 1.0
C      1  0.5365030000000  0.4282250000000  0.4508110000000 1.0
C      1  0.3991000000000  0.4847710000000  0.5408040000000 1.0
C      1  0.4897130000000  0.5212480000000  0.5012100000000 1.0
C      1  0.5313110000000  0.5410570000000  0.4775030000000 1.0
C      1  0.5057360000000  0.5450610000000  0.4917160000000 1.0
C      1  0.4822180000000  0.4799790000000  0.4527180000000 1.0
C      1  0.5606740000000  0.4121620000000  0.5004440000000 1.0
C      1  0.4940640000000  0.5540840000000  0.5445790000000 1.0
C      1  0.4376140000000  0.4689150000000  0.5043550000000 1.0
C      1  0.4390620000000  0.5156920000000  0.4798640000000 1.0
C      1  0.5667160000000  0.5397410000000  0.5884110000000 1.0
C      1  0.5005180000000  0.4890220000000  0.5877680000000 1.0
C      1  0.4776370000000  0.3949920000000  0.5111430000000 1.0
C      1  0.5029250000000  0.5316960000000  0.5598620000000 1.0
C      1  0.3644200000000  0.5334450000000  0.5764880000000 1.0
C      1  0.4270350000000  0.4786500000000  0.4443960000000 1.0
C      1  0.4970330000000  0.4595240000000  0.5885800000000 1.0
C      1  0.5486850000000  0.4030290000000  0.5249910000000 1.0
C      1  0.5270530000000  0.4697280000000  0.4849200000000 1.0
C      1  0.5126330000000  0.4238030000000  0.4923750000000 1.0
C      1  0.4316830000000  0.5595330000000  0.4299590000000 1.0
C      1  0.4013760000000  0.4679050000000  0.5640980000000 1.0
C      1  0.4321710000000  0.6035060000000  0.4903870000000 1.0
C      1  0.5948440000000  0.4675020000000  0.4351070000000 1.0
C      1  0.4602610000000  0.5576080000000  0.4729220000000 1.0
C      1  0.4840410000000  0.3723040000000  0.5248120000000 1.0
C      1  0.5212250000000  0.4912680000000  0.5424870000000 1.0
C      1  0.4195420000000  0.5006100000000  0.4618340000000 1.0
C      1  0.3817570000000  0.5342740000000  0.5555160000000 1.0
C      1  0.4337700000000  0.4297830000000  0.5604540000000 1.0
C      1  0.5346040000000  0.5139820000000  0.4681520000000 1.0
C      1  0.4873090000000  0.5720690000000  0.4105640000000 1.0
C      1  0.4993810000000  0.4504750000000  0.3877940000000 1.0
C      1  0.4761410000000  0.5461320000000  0.4034640000000 1.0
C      1  0.5563850000000  0.5506140000000  0.5390960000000 1.0
C      1  0.3877000000000  0.5111980000000  0.5372570000000 1.0
C      1  0.5942810000000  0.4283040000000  0.5344590000000 1.0
C      1  0.4879600000000  0.4152730000000  0.4397820000000 1.0
C      1  0.5464160000000  0.4541860000000  0.4406860000000 1.0
C      1  0.4360860000000  0.5436990000000  0.4740330000000 1.0
C      1  0.5879060000000  0.4238450000000  0.5066710000000 1.0
C      1  0.4562980000000  0.4226050000000  0.5442160000000 1.0
C      1  0.6042750000000  0.4906920000000  0.5217780000000 1.0
C      1  0.5117840000000  0.5713910000000  0.5298940000000 1.0
C      1  0.4510720000000  0.6038810000000  0.5650400000000 1.0
C      1  0.4520990000000  0.4979540000000  0.5972040000000 1.0
C      1  0.5119700000000  0.4767430000000  0.3877800000000 1.0
C      1  0.4653010000000  0.5851360000000  0.5814870000000 1.0
C      1  0.5581900000000  0.5099320000000  0.5102680000000 1.0
C      1  0.4922520000000  0.4045580000000  0.4885190000000 1.0
C      1  0.4501720000000  0.5404190000000  0.4162570000000 1.0
C      1  0.5308420000000  0.5051890000000  0.4407740000000 1.0
C      1  0.6431650000000  0.4794070000000  0.4411190000000 1.0
C      1  0.6639610000000  0.5031330000000  0.4775250000000 1.0
C      1  0.4838240000000  0.5714550000000  0.5958290000000 1.0
C      1  0.5085580000000  0.4751210000000  0.4614560000000 1.0
C      1  0.5359680000000  0.4789870000000  0.4291120000000 1.0
C      1  0.4161490000000  0.5476500000000  0.5265100000000 1.0
C      1  0.4431120000000  0.4958810000000  0.5424170000000 1.0
C      1  0.4908630000000  0.5287920000000  0.4476460000000 1.0
C      1  0.4394500000000  0.5192980000000  0.5832720000000 1.0
C      1  0.4415170000000  0.4874810000000  0.4191630000000 1.0
C      1  0.5074840000000  0.4512140000000  0.5001120000000 1.0
C      1  0.5739480000000  0.4542750000000  0.4770840000000 1.0
C      1  0.4810730000000  0.5541250000000  0.4542670000000 1.0
C      1  0.5041950000000  0.4412180000000  0.5675710000000 1.0
C      1  0.5977100000000  0.4434300000000  0.4880120000000 1.0
C      1  0.4728630000000  0.5068860000000  0.4461470000000 1.0
C      1  0.6189520000000  0.4691100000000  0.4512050000000 1.0
C      1  0.4488210000000  0.4702080000000  0.5837570000000 1.0
C      1  0.5530030000000  0.4589260000000  0.4947460000000 1.0
C      1  0.5100920000000  0.5044580000000  0.5650600000000 1.0
C      1  0.4636060000000  0.5086910000000  0.4932670000000 1.0
C      1  0.5292510000000  0.4419750000000  0.5542450000000 1.0
C      1  0.5377450000000  0.4791480000000  0.4001900000000 1.0
C      1  0.4965780000000  0.5974370000000  0.4560980000000 1.0
C      1  0.4337760000000  0.5871670000000  0.4390660000000 1.0
C      1  0.4032240000000  0.5218050000000  0.4503670000000 1.0
C      1  0.5587820000000  0.4668750000000  0.5219620000000 1.0
C      1  0.4239610000000  0.4822450000000  0.5254190000000 1.0
C      1  0.4512260000000  0.5135310000000  0.4272990000000 1.0
C      1  0.4247260000000  0.4538030000000  0.5740690000000 1.0
C      1  0.5759040000000  0.4900320000000  0.5203700000000 1.0
C      1  0.4751040000000  0.4499290000000  0.4032710000000 1.0
C      1  0.4173900000000  0.5464680000000  0.4515950000000 1.0
C      1  0.4778940000000  0.4631430000000  0.5396420000000 1.0
C      1  0.4407260000000  0.5206920000000  0.5550960000000 1.0
C      1  0.4635250000000  0.4811180000000  0.5000810000000 1.0
C      1  0.5554030000000  0.5917610000000  0.5200940000000 1.0
C      1  0.4661480000000  0.4563610000000  0.4492420000000 1.0
C      1  0.6155820000000  0.4990400000000  0.5454740000000 1.0
C      1  0.5654630000000  0.4781630000000  0.3929190000000 1.0
C      1  0.4884570000000  0.4716180000000  0.5132850000000 1.0
C      1  0.4299620000000  0.5978620000000  0.5460230000000 1.0
C      1  0.5240530000000  0.5383520000000  0.6097350000000 1.0
C      1  0.4666620000000  0.5554970000000  0.5373300000000 1.0
C      1  0.4324700000000  0.6030710000000  0.5176060000000 1.0
C      1  0.5698940000000  0.5459100000000  0.5627820000000 1.0
C      1  0.5880690000000  0.4748080000000  0.4082040000000 1.0
C      1  0.4956420000000  0.5904810000000  0.3915280000000 1.0
C      1  0.4490600000000  0.4051880000000  0.4699320000000 1.0
C      1  0.5726030000000  0.4583430000000  0.4499470000000 1.0
C      1  0.5037450000000  0.5559820000000  0.6058430000000 1.0
C      1  0.5545410000000  0.4965690000000  0.6029380000000 1.0
C      1  0.5160070000000  0.4147860000000  0.4364290000000 1.0
C      1  0.4813250000000  0.4367130000000  0.5498330000000 1.0
C      1  0.5565060000000  0.5827620000000  0.4929290000000 1.0
C      1  0.4744010000000  0.4379870000000  0.4291460000000 1.0
C      1  0.5393120000000  0.4191580000000  0.4796780000000 1.0
END
