TITL C-599896-8500-264 -579.589824106608 125000 -1099.23212694029 0 0 179 (C1) n - 1
REM
REM in /home/nfs/bkarasulu/CARBON/AIRSS/Generating-Clusters/TERSOFF/Only-C1/FIRE-HFTN
REM
REM
REM
REM
REM
REM ./C.cell (11c1c37f851c82e70ff6c80c92926a4b)
REM AIRSS Version 0.9.1 bugfix July 2018 build 013d7b7c2542+ Fri, 06 Jul 2018 19:26:36 +0100
REM compiler GCC version 9.2.1 20190827 (Red Hat 9.2.1-1)
REM options -cpp -mtune=generic -march=x86-64 -g -O0 -fpre-include=/usr/include/finclude/math-vector-fortran.h
REM seed -2041780493 45202615 -1020205211 -1392006389 224159465 1022241643 1606949322 493369249 407809313 -152419374 -2047255868 1284541122 -1726543288 2049295498 -1582344784 -1042885339 392162954 -278543325 -405017947 1050225301 -1282725529 1995195289 -698921018 -1146466478 145384661 -1911532441 -1778659375 -1377425345 1029986445 565231701 -1506078841 -849979406 113403659
REM
CELL 1.54180   50.00000   50.00000   50.00000   90.00000   90.00000   90.00000
LATT -1
SFAC C  
C      1  0.5486470000000  0.5362230000000  0.4751540000000 1.0
C      1  0.4124950000000  0.5045920000000  0.5059300000000 1.0
C      1  0.5527640000000  0.5517000000000  0.5198940000000 1.0
C      1  0.4872430000000  0.4076840000000  0.4768500000000 1.0
C      1  0.4708680000000  0.5450500000000  0.6116440000000 1.0
C      1  0.5292400000000  0.4347050000000  0.5141540000000 1.0
C      1  0.4767590000000  0.5203810000000  0.6201840000000 1.0
C      1  0.4695840000000  0.5903390000000  0.4297850000000 1.0
C      1  0.5258410000000  0.6165250000000  0.5275430000000 1.0
C      1  0.4759080000000  0.4266220000000  0.4949260000000 1.0
C      1  0.4568370000000  0.5676270000000  0.5701130000000 1.0
C      1  0.4342730000000  0.3994920000000  0.4822070000000 1.0
C      1  0.6025450000000  0.4331640000000  0.4777580000000 1.0
C      1  0.5152130000000  0.6180010000000  0.4598780000000 1.0
C      1  0.5167690000000  0.4729980000000  0.5530940000000 1.0
C      1  0.4917770000000  0.4967100000000  0.6185320000000 1.0
C      1  0.4855490000000  0.4474390000000  0.6039630000000 1.0
C      1  0.4426460000000  0.6068600000000  0.4867420000000 1.0
C      1  0.4937960000000  0.4009870000000  0.4313880000000 1.0
C      1  0.3961230000000  0.4623630000000  0.4708410000000 1.0
C      1  0.4551780000000  0.5441710000000  0.5535540000000 1.0
C      1  0.3478470000000  0.5088860000000  0.5671020000000 1.0
C      1  0.5347800000000  0.4012880000000  0.4592090000000 1.0
C      1  0.6126740000000  0.4545670000000  0.4931920000000 1.0
C      1  0.6177240000000  0.5018600000000  0.5051120000000 1.0
C      1  0.4846660000000  0.4484480000000  0.4342100000000 1.0
C      1  0.4938230000000  0.5084400000000  0.4646640000000 1.0
C      1  0.5325730000000  0.4443670000000  0.5901960000000 1.0
C      1  0.4241520000000  0.5066700000000  0.4200470000000 1.0
C      1  0.4715720000000  0.4189530000000  0.5486020000000 1.0
C      1  0.4205870000000  0.5128000000000  0.4797490000000 1.0
C      1  0.4924350000000  0.4569320000000  0.4088840000000 1.0
C      1  0.4963250000000  0.4168070000000  0.5655060000000 1.0
C      1  0.4261290000000  0.4322190000000  0.4492130000000 1.0
C      1  0.6179090000000  0.4820340000000  0.4829070000000 1.0
C      1  0.5568780000000  0.4429340000000  0.4206340000000 1.0
C      1  0.5927720000000  0.4077170000000  0.5317950000000 1.0
C      1  0.4698700000000  0.4525890000000  0.4845000000000 1.0
C      1  0.4889870000000  0.6238280000000  0.4644250000000 1.0
C      1  0.5123900000000  0.4966290000000  0.5675620000000 1.0
C      1  0.5846410000000  0.4145110000000  0.4703910000000 1.0
C      1  0.4423970000000  0.5936160000000  0.4276230000000 1.0
C      1  0.4498770000000  0.5393430000000  0.4562680000000 1.0
C      1  0.4123940000000  0.4391470000000  0.4754920000000 1.0
C      1  0.5379390000000  0.4829240000000  0.3642790000000 1.0
C      1  0.5649930000000  0.5975260000000  0.4695080000000 1.0
C      1  0.5318630000000  0.5251790000000  0.6072670000000 1.0
C      1  0.4153180000000  0.5336310000000  0.5787000000000 1.0
C      1  0.6055380000000  0.5300750000000  0.5067790000000 1.0
C      1  0.4807350000000  0.4708490000000  0.6162540000000 1.0
C      1  0.4227200000000  0.4218130000000  0.4969870000000 1.0
C      1  0.5674580000000  0.5436850000000  0.4124920000000 1.0
C      1  0.5575520000000  0.4708700000000  0.4233890000000 1.0
C      1  0.5827470000000  0.5830810000000  0.5115800000000 1.0
C      1  0.4225280000000  0.4820900000000  0.5212010000000 1.0
C      1  0.4894520000000  0.5780660000000  0.5002010000000 1.0
C      1  0.5365760000000  0.5495130000000  0.4975790000000 1.0
C      1  0.4857000000000  0.5101400000000  0.5335890000000 1.0
C      1  0.5952360000000  0.5601400000000  0.4903970000000 1.0
C      1  0.4776240000000  0.4188090000000  0.5211510000000 1.0
C      1  0.4004400000000  0.4751790000000  0.4449330000000 1.0
C      1  0.5205620000000  0.5094430000000  0.5037550000000 1.0
C      1  0.5235570000000  0.5572030000000  0.5942620000000 1.0
C      1  0.5324520000000  0.4292230000000  0.4149790000000 1.0
C      1  0.4559680000000  0.5552150000000  0.4787930000000 1.0
C      1  0.4342620000000  0.4794200000000  0.5837370000000 1.0
C      1  0.5016060000000  0.6055010000000  0.5382370000000 1.0
C      1  0.5605980000000  0.5308970000000  0.3652440000000 1.0
C      1  0.4714280000000  0.4533340000000  0.4565090000000 1.0
C      1  0.4293250000000  0.4579250000000  0.4050560000000 1.0
C      1  0.5890140000000  0.5106510000000  0.4600090000000 1.0
C      1  0.4341830000000  0.5904870000000  0.5322070000000 1.0
C      1  0.5852840000000  0.4660250000000  0.5729330000000 1.0
C      1  0.5659780000000  0.3979800000000  0.5312210000000 1.0
C      1  0.4625250000000  0.6204820000000  0.4705740000000 1.0
C      1  0.5277940000000  0.5088770000000  0.4251450000000 1.0
C      1  0.4950110000000  0.5478650000000  0.4336670000000 1.0
C      1  0.4932700000000  0.4651180000000  0.5387750000000 1.0
C      1  0.4284490000000  0.4536570000000  0.5878910000000 1.0
C      1  0.5816240000000  0.5731580000000  0.4608420000000 1.0
C      1  0.5571110000000  0.4276600000000  0.5720800000000 1.0
C      1  0.6107260000000  0.4927560000000  0.4578060000000 1.0
C      1  0.4744140000000  0.4999740000000  0.4202520000000 1.0
C      1  0.5141180000000  0.4483620000000  0.4953790000000 1.0
C      1  0.5144080000000  0.4013200000000  0.4810200000000 1.0
C      1  0.4856380000000  0.5723550000000  0.4455590000000 1.0
C      1  0.5448690000000  0.5493480000000  0.4509900000000 1.0
C      1  0.5908180000000  0.5281860000000  0.5321030000000 1.0
C      1  0.5121190000000  0.5369180000000  0.5052570000000 1.0
C      1  0.4412880000000  0.4969640000000  0.5630690000000 1.0
C      1  0.4913350000000  0.5530310000000  0.5143800000000 1.0
C      1  0.4423340000000  0.4247270000000  0.5485950000000 1.0
C      1  0.4756050000000  0.4783510000000  0.4007610000000 1.0
C      1  0.4811380000000  0.5994040000000  0.5179360000000 1.0
C      1  0.5331090000000  0.4715510000000  0.6047890000000 1.0
C      1  0.5989140000000  0.4338780000000  0.5408390000000 1.0
C      1  0.3519430000000  0.4844070000000  0.5578320000000 1.0
C      1  0.3399740000000  0.4392500000000  0.5467130000000 1.0
C      1  0.5624520000000  0.5262000000000  0.5278910000000 1.0
C      1  0.5470250000000  0.5057000000000  0.5155860000000 1.0
C      1  0.5694880000000  0.5481030000000  0.3844390000000 1.0
C      1  0.4010460000000  0.5509150000000  0.5235500000000 1.0
C      1  0.3443680000000  0.5333500000000  0.5754080000000 1.0
C      1  0.3582660000000  0.4595740000000  0.5466400000000 1.0
C      1  0.4012920000000  0.5049600000000  0.4384320000000 1.0
C      1  0.5626870000000  0.4919860000000  0.4960820000000 1.0
C      1  0.5650950000000  0.4650710000000  0.5032740000000 1.0
C      1  0.4792640000000  0.5719660000000  0.4739540000000 1.0
C      1  0.4247310000000  0.5723000000000  0.4344230000000 1.0
C      1  0.4257120000000  0.4323290000000  0.5240510000000 1.0
C      1  0.6173890000000  0.4868920000000  0.4311600000000 1.0
C      1  0.4309880000000  0.4310300000000  0.5737810000000 1.0
C      1  0.4466710000000  0.5102090000000  0.4632960000000 1.0
C      1  0.5199910000000  0.4983880000000  0.6125700000000 1.0
C      1  0.4699320000000  0.5003290000000  0.4774500000000 1.0
C      1  0.4304970000000  0.5320160000000  0.4098210000000 1.0
C      1  0.4732150000000  0.4838970000000  0.5256630000000 1.0
C      1  0.4240190000000  0.5664860000000  0.5193560000000 1.0
C      1  0.6171480000000  0.4832740000000  0.5288780000000 1.0
C      1  0.5404270000000  0.6078280000000  0.4585040000000 1.0
C      1  0.5662910000000  0.5726730000000  0.5326530000000 1.0
C      1  0.5443280000000  0.4686430000000  0.5471440000000 1.0
C      1  0.5350740000000  0.4830280000000  0.4363280000000 1.0
C      1  0.5644580000000  0.5071970000000  0.5760630000000 1.0
C      1  0.5159280000000  0.4461300000000  0.3973490000000 1.0
C      1  0.4658930000000  0.5456090000000  0.5263390000000 1.0
C      1  0.5193300000000  0.4014060000000  0.5561540000000 1.0
C      1  0.4035790000000  0.5282800000000  0.4602000000000 1.0
C      1  0.5224650000000  0.4083820000000  0.4330350000000 1.0
C      1  0.6001080000000  0.4906970000000  0.4106050000000 1.0
C      1  0.5544920000000  0.3958250000000  0.5049310000000 1.0
C      1  0.5023860000000  0.5944440000000  0.5652350000000 1.0
C      1  0.5834650000000  0.4394170000000  0.5651320000000 1.0
C      1  0.5275870000000  0.4609370000000  0.3759080000000 1.0
C      1  0.4702230000000  0.4786800000000  0.4962590000000 1.0
C      1  0.4521330000000  0.6045690000000  0.5147010000000 1.0
C      1  0.5646000000000  0.4824870000000  0.5634350000000 1.0
C      1  0.3973200000000  0.5244510000000  0.5195770000000 1.0
C      1  0.4413920000000  0.5888920000000  0.5596970000000 1.0
C      1  0.4100490000000  0.4569730000000  0.5267200000000 1.0
C      1  0.5661330000000  0.5125580000000  0.4756940000000 1.0
C      1  0.5479120000000  0.4059380000000  0.5542580000000 1.0
C      1  0.4444410000000  0.4089010000000  0.4552180000000 1.0
C      1  0.5215570000000  0.5408360000000  0.5528380000000 1.0
C      1  0.6109570000000  0.4547340000000  0.5233420000000 1.0
C      1  0.4347060000000  0.3736060000000  0.4906120000000 1.0
C      1  0.4484820000000  0.4992720000000  0.4346420000000 1.0
C      1  0.4733060000000  0.4036060000000  0.4518100000000 1.0
C      1  0.4397970000000  0.5485750000000  0.4304270000000 1.0
C      1  0.5043280000000  0.4345580000000  0.5871250000000 1.0
C      1  0.5222420000000  0.4531880000000  0.4707090000000 1.0
C      1  0.5489780000000  0.5071070000000  0.3599120000000 1.0
C      1  0.5608930000000  0.3999040000000  0.4756500000000 1.0
C      1  0.4374290000000  0.5247490000000  0.5648680000000 1.0
C      1  0.6008590000000  0.5387400000000  0.5564860000000 1.0
C      1  0.4198740000000  0.5883540000000  0.4775220000000 1.0
C      1  0.5162580000000  0.4986050000000  0.4777380000000 1.0
C      1  0.5043940000000  0.5185780000000  0.5524100000000 1.0
C      1  0.5882570000000  0.5578850000000  0.5713420000000 1.0
C      1  0.5281860000000  0.4071730000000  0.5057990000000 1.0
C      1  0.4101410000000  0.5650430000000  0.4593240000000 1.0
C      1  0.5280740000000  0.4783680000000  0.4623950000000 1.0
C      1  0.4744620000000  0.5652240000000  0.5923200000000 1.0
C      1  0.5548980000000  0.5172860000000  0.4150420000000 1.0
C      1  0.5008120000000  0.5752340000000  0.5876430000000 1.0
C      1  0.4500420000000  0.4691470000000  0.3916660000000 1.0
C      1  0.3835610000000  0.4558270000000  0.5353880000000 1.0
C      1  0.4177980000000  0.4540520000000  0.4306180000000 1.0
C      1  0.4458030000000  0.5526470000000  0.5059620000000 1.0
C      1  0.5495880000000  0.4524750000000  0.5238790000000 1.0
C      1  0.5721340000000  0.4930990000000  0.4120920000000 1.0
C      1  0.5386260000000  0.5572410000000  0.5692360000000 1.0
C      1  0.5481490000000  0.6171940000000  0.5123750000000 1.0
C      1  0.4981530000000  0.5172090000000  0.4336480000000 1.0
C      1  0.5686110000000  0.6038340000000  0.4975770000000 1.0
C      1  0.5639710000000  0.5686940000000  0.5610500000000 1.0
C      1  0.5582180000000  0.5215350000000  0.5977350000000 1.0
C      1  0.4457220000000  0.4863290000000  0.5372500000000 1.0
C      1  0.5688280000000  0.5584860000000  0.4378250000000 1.0
END
