TITL C-599895-9959-1206 -3019.60811249193 125000 -1011.25980331243 0 0 164 (C1) n - 1
REM
REM in /home/nfs/bkarasulu/CARBON/AIRSS/Generating-Clusters/TERSOFF/Only-C1/FIRE-HFTN
REM
REM
REM
REM
REM
REM ./C.cell (11c1c37f851c82e70ff6c80c92926a4b)
REM AIRSS Version 0.9.1 bugfix July 2018 build 013d7b7c2542+ Fri, 06 Jul 2018 19:26:36 +0100
REM compiler GCC version 9.2.1 20190827 (Red Hat 9.2.1-1)
REM options -cpp -mtune=generic -march=x86-64 -g -O0 -fpre-include=/usr/include/finclude/math-vector-fortran.h
REM seed -1426295529 -987921793 724074756 -2073420971 -1291972293 1079685446 -219251695 -724021650 656522100 296316723 641656096 -1047881227 1823511698 813467800 -1410230500 590235235 1850623387 -1519631924 1954801703 667233981 913737926 338528533 592670068 -105930217 -1544906318 -534375580 -1800608237 1573032972 -538772068 -265824826 -195150205 -861029864 1057446636
REM
CELL 1.54180   50.00000   50.00000   50.00000   90.00000   90.00000   90.00000
LATT -1
SFAC C  
C      1  0.4925870000000  0.5951800000000  0.4540800000000 1.0
C      1  0.4896190000000  0.5671650000000  0.5422770000000 1.0
C      1  0.4873330000000  0.3849710000000  0.4905900000000 1.0
C      1  0.4725360000000  0.5226340000000  0.4184590000000 1.0
C      1  0.4283920000000  0.5932500000000  0.4758510000000 1.0
C      1  0.5379330000000  0.5104970000000  0.4829740000000 1.0
C      1  0.4870650000000  0.4503850000000  0.4947420000000 1.0
C      1  0.4790340000000  0.3929350000000  0.5173940000000 1.0
C      1  0.4911210000000  0.5076820000000  0.4350500000000 1.0
C      1  0.4983710000000  0.3958660000000  0.5376090000000 1.0
C      1  0.4962270000000  0.5733300000000  0.6234540000000 1.0
C      1  0.5192610000000  0.4420460000000  0.6256530000000 1.0
C      1  0.3999310000000  0.4694990000000  0.4837380000000 1.0
C      1  0.5400280000000  0.5693720000000  0.5636330000000 1.0
C      1  0.5149400000000  0.4194320000000  0.4281920000000 1.0
C      1  0.4687220000000  0.5026240000000  0.4813920000000 1.0
C      1  0.5018370000000  0.4324560000000  0.5807290000000 1.0
C      1  0.5068880000000  0.5150970000000  0.5690710000000 1.0
C      1  0.4892820000000  0.5267570000000  0.3951370000000 1.0
C      1  0.5243340000000  0.4771860000000  0.5441090000000 1.0
C      1  0.5164710000000  0.4904090000000  0.4874320000000 1.0
C      1  0.4875170000000  0.5226150000000  0.5883580000000 1.0
C      1  0.5007530000000  0.4079350000000  0.4068060000000 1.0
C      1  0.4535470000000  0.5560600000000  0.4443380000000 1.0
C      1  0.4649720000000  0.5697290000000  0.5587810000000 1.0
C      1  0.5385270000000  0.4137260000000  0.5562930000000 1.0
C      1  0.4478300000000  0.6123510000000  0.4668050000000 1.0
C      1  0.4431860000000  0.5058400000000  0.5925700000000 1.0
C      1  0.4784570000000  0.5642200000000  0.4876370000000 1.0
C      1  0.4064220000000  0.5481690000000  0.4579690000000 1.0
C      1  0.5766980000000  0.4574660000000  0.4485930000000 1.0
C      1  0.5688810000000  0.4777030000000  0.5202490000000 1.0
C      1  0.6383990000000  0.4817330000000  0.5388690000000 1.0
C      1  0.5828220000000  0.5082630000000  0.4388380000000 1.0
C      1  0.4997080000000  0.5756710000000  0.4725680000000 1.0
C      1  0.6226710000000  0.5450380000000  0.5182980000000 1.0
C      1  0.5017340000000  0.6237180000000  0.4189710000000 1.0
C      1  0.4827550000000  0.4344460000000  0.4699090000000 1.0
C      1  0.4528790000000  0.4354880000000  0.3561730000000 1.0
C      1  0.4970510000000  0.5224310000000  0.6155570000000 1.0
C      1  0.4990900000000  0.5934210000000  0.4230620000000 1.0
C      1  0.4936210000000  0.5067470000000  0.4943960000000 1.0
C      1  0.5811470000000  0.4359610000000  0.5457310000000 1.0
C      1  0.3852850000000  0.4346690000000  0.4530890000000 1.0
C      1  0.4547810000000  0.5956350000000  0.5630480000000 1.0
C      1  0.5232200000000  0.4630560000000  0.4145890000000 1.0
C      1  0.4518490000000  0.4036660000000  0.5212630000000 1.0
C      1  0.4110750000000  0.4993470000000  0.4406560000000 1.0
C      1  0.4264910000000  0.4640150000000  0.4036270000000 1.0
C      1  0.5438320000000  0.4666280000000  0.5274820000000 1.0
C      1  0.4314190000000  0.5830650000000  0.5022570000000 1.0
C      1  0.5313080000000  0.5430080000000  0.3772820000000 1.0
C      1  0.5862670000000  0.5143200000000  0.4663710000000 1.0
C      1  0.5548230000000  0.5029830000000  0.5726260000000 1.0
C      1  0.4740170000000  0.6180510000000  0.4571680000000 1.0
C      1  0.5796670000000  0.5088840000000  0.5631720000000 1.0
C      1  0.5050930000000  0.5974090000000  0.5789690000000 1.0
C      1  0.4483640000000  0.5477020000000  0.5676520000000 1.0
C      1  0.3990970000000  0.4417870000000  0.4756840000000 1.0
C      1  0.4493400000000  0.5229430000000  0.4801190000000 1.0
C      1  0.5574230000000  0.4344900000000  0.5640180000000 1.0
C      1  0.5381660000000  0.4374510000000  0.4229630000000 1.0
C      1  0.4543720000000  0.4316750000000  0.4588290000000 1.0
C      1  0.6179750000000  0.5190320000000  0.5086910000000 1.0
C      1  0.5427180000000  0.4976110000000  0.6166970000000 1.0
C      1  0.4645990000000  0.4811650000000  0.4633220000000 1.0
C      1  0.5324130000000  0.4492500000000  0.5082190000000 1.0
C      1  0.5350470000000  0.4075990000000  0.4820650000000 1.0
C      1  0.5224350000000  0.5588580000000  0.4676600000000 1.0
C      1  0.5298610000000  0.5565570000000  0.4396640000000 1.0
C      1  0.5217290000000  0.4436560000000  0.5979310000000 1.0
C      1  0.5587470000000  0.4352160000000  0.4430250000000 1.0
C      1  0.5828230000000  0.4803630000000  0.4333510000000 1.0
C      1  0.4040450000000  0.4456190000000  0.5513900000000 1.0
C      1  0.5928410000000  0.4811140000000  0.5346120000000 1.0
C      1  0.5813090000000  0.4259490000000  0.5174890000000 1.0
C      1  0.5957210000000  0.5891030000000  0.5190650000000 1.0
C      1  0.5644720000000  0.5791720000000  0.5536470000000 1.0
C      1  0.5269720000000  0.5375270000000  0.4870760000000 1.0
C      1  0.4845390000000  0.6377900000000  0.4381240000000 1.0
C      1  0.4105440000000  0.4916610000000  0.4687800000000 1.0
C      1  0.4242550000000  0.4283240000000  0.5540410000000 1.0
C      1  0.4712380000000  0.5889160000000  0.4117740000000 1.0
C      1  0.5580950000000  0.4183300000000  0.4682590000000 1.0
C      1  0.4659620000000  0.3827670000000  0.4722150000000 1.0
C      1  0.4033290000000  0.5360820000000  0.4852080000000 1.0
C      1  0.4594150000000  0.4309810000000  0.3822880000000 1.0
C      1  0.4390240000000  0.5612160000000  0.5160430000000 1.0
C      1  0.5450030000000  0.4946830000000  0.3803330000000 1.0
C      1  0.5545970000000  0.5455810000000  0.6071360000000 1.0
C      1  0.4553300000000  0.5112330000000  0.5274020000000 1.0
C      1  0.5462120000000  0.4538810000000  0.5852880000000 1.0
C      1  0.5326050000000  0.4054350000000  0.5295780000000 1.0
C      1  0.5156830000000  0.4402100000000  0.6518380000000 1.0
C      1  0.3949540000000  0.5420400000000  0.5117280000000 1.0
C      1  0.5092750000000  0.5489510000000  0.3947790000000 1.0
C      1  0.5146190000000  0.5680540000000  0.4174260000000 1.0
C      1  0.6096090000000  0.5179640000000  0.4815440000000 1.0
C      1  0.6149180000000  0.5705630000000  0.5180210000000 1.0
C      1  0.5336540000000  0.4211670000000  0.5072340000000 1.0
C      1  0.4619800000000  0.4593600000000  0.5886480000000 1.0
C      1  0.4790300000000  0.4460220000000  0.5709030000000 1.0
C      1  0.5414730000000  0.5481740000000  0.5819190000000 1.0
C      1  0.4134620000000  0.4817580000000  0.4189110000000 1.0
C      1  0.6289190000000  0.4595200000000  0.5525590000000 1.0
C      1  0.4116270000000  0.5766360000000  0.4590680000000 1.0
C      1  0.4720930000000  0.4584680000000  0.5200620000000 1.0
C      1  0.4459260000000  0.4597650000000  0.4656080000000 1.0
C      1  0.4813180000000  0.4144650000000  0.3894460000000 1.0
C      1  0.4212790000000  0.5453610000000  0.5575650000000 1.0
C      1  0.5192020000000  0.5122840000000  0.4348100000000 1.0
C      1  0.5506110000000  0.4821520000000  0.5923240000000 1.0
C      1  0.4998410000000  0.4358750000000  0.4470480000000 1.0
C      1  0.4472960000000  0.5323410000000  0.4291050000000 1.0
C      1  0.4997360000000  0.5920180000000  0.6046520000000 1.0
C      1  0.5725310000000  0.4790690000000  0.4926190000000 1.0
C      1  0.4292180000000  0.4054030000000  0.5039740000000 1.0
C      1  0.5673160000000  0.5273740000000  0.4248040000000 1.0
C      1  0.5231810000000  0.6027630000000  0.5316070000000 1.0
C      1  0.4025520000000  0.5430460000000  0.5379130000000 1.0
C      1  0.4849290000000  0.5517950000000  0.5153480000000 1.0
C      1  0.5797550000000  0.5446530000000  0.4076100000000 1.0
C      1  0.6004190000000  0.4567140000000  0.5497370000000 1.0
C      1  0.4992690000000  0.5000340000000  0.3869790000000 1.0
C      1  0.4833670000000  0.4819320000000  0.4423060000000 1.0
C      1  0.3929950000000  0.4638440000000  0.5353190000000 1.0
C      1  0.4596580000000  0.5266650000000  0.5832700000000 1.0
C      1  0.4793120000000  0.6644570000000  0.4382130000000 1.0
C      1  0.4187470000000  0.5275650000000  0.4374370000000 1.0
C      1  0.4602890000000  0.4847280000000  0.5238550000000 1.0
C      1  0.5340230000000  0.5229720000000  0.5716840000000 1.0
C      1  0.5137340000000  0.3889730000000  0.4798500000000 1.0
C      1  0.4447000000000  0.4425890000000  0.4037600000000 1.0
C      1  0.5648550000000  0.5033660000000  0.4811640000000 1.0
C      1  0.5007130000000  0.4619010000000  0.4339700000000 1.0
C      1  0.5815970000000  0.4571880000000  0.4773430000000 1.0
C      1  0.5119140000000  0.4392540000000  0.6776150000000 1.0
C      1  0.4460250000000  0.4794800000000  0.5954490000000 1.0
C      1  0.5402300000000  0.5308740000000  0.4329330000000 1.0
C      1  0.5477120000000  0.6070450000000  0.5206310000000 1.0
C      1  0.5776870000000  0.4303540000000  0.4886650000000 1.0
C      1  0.5459440000000  0.5206900000000  0.3722090000000 1.0
C      1  0.5577520000000  0.5220360000000  0.6208840000000 1.0
C      1  0.4503810000000  0.4322730000000  0.4290570000000 1.0
C      1  0.5137010000000  0.5835590000000  0.5531850000000 1.0
C      1  0.5130740000000  0.4629370000000  0.4932360000000 1.0
C      1  0.4495930000000  0.4023900000000  0.4636300000000 1.0
C      1  0.4113400000000  0.4214820000000  0.4915990000000 1.0
C      1  0.4589060000000  0.5494870000000  0.4716710000000 1.0
C      1  0.5150290000000  0.5015390000000  0.6228530000000 1.0
C      1  0.4695380000000  0.4419990000000  0.5440310000000 1.0
C      1  0.5109830000000  0.4100310000000  0.5669270000000 1.0
C      1  0.4952900000000  0.5471190000000  0.6289280000000 1.0
C      1  0.4573050000000  0.5392690000000  0.5214870000000 1.0
C      1  0.4432620000000  0.6189110000000  0.5652340000000 1.0
C      1  0.5045470000000  0.4926000000000  0.5529560000000 1.0
C      1  0.3921020000000  0.4737900000000  0.5105630000000 1.0
C      1  0.4219510000000  0.5141970000000  0.4833920000000 1.0
C      1  0.5041510000000  0.5316080000000  0.5055380000000 1.0
C      1  0.6169070000000  0.4965220000000  0.5260360000000 1.0
C      1  0.5707440000000  0.5938830000000  0.5304090000000 1.0
C      1  0.5223390000000  0.4828470000000  0.3931270000000 1.0
C      1  0.4491610000000  0.4222790000000  0.5425550000000 1.0
C      1  0.4524400000000  0.5784110000000  0.4276660000000 1.0
END
