TITL C-599893-4344-182 618347.861020015 125000 -906.80760046435 0 0 149 (C1) n - 1
REM
REM in /home/nfs/bkarasulu/CARBON/AIRSS/Generating-Clusters/TERSOFF/Only-C1/FIRE-HFTN
REM
REM
REM
REM
REM
REM ./C.cell (11c1c37f851c82e70ff6c80c92926a4b)
REM AIRSS Version 0.9.1 bugfix July 2018 build 013d7b7c2542+ Fri, 06 Jul 2018 19:26:36 +0100
REM compiler GCC version 9.2.1 20190827 (Red Hat 9.2.1-1)
REM options -cpp -mtune=generic -march=x86-64 -g -O0 -fpre-include=/usr/include/finclude/math-vector-fortran.h
REM seed 127875436 1636570774 772541892 -1086067909 122879350 -830520135 988232170 -150487584 -1386130669 -1828612741 -2142965714 1437848484 -1083924523 -1229032595 -669019228 476942253 1654525370 659997914 -995192144 -1597111027 -346252406 -2079111063 387703374 -170586679 917819883 909770482 -1218890614 690884870 -15058846 633253139 1394241368 -35610185 63680125
REM
CELL 1.54180   50.00000   50.00000   50.00000   90.00000   90.00000   90.00000
LATT -1
SFAC C  
C      1  0.6173740000000  0.4465820000000  0.5341580000000 1.0
C      1  0.3761510000000  0.4268880000000  0.6213610000000 1.0
C      1  0.4987660000000  0.3871160000000  0.4938760000000 1.0
C      1  0.5753430000000  0.5834990000000  0.4733710000000 1.0
C      1  0.5334010000000  0.4341640000000  0.4476390000000 1.0
C      1  0.6216830000000  0.5253050000000  0.5129630000000 1.0
C      1  0.5517850000000  0.5450830000000  0.3672940000000 1.0
C      1  0.6242380000000  0.5046240000000  0.4960600000000 1.0
C      1  0.4562980000000  0.6029370000000  0.4981640000000 1.0
C      1  0.5683180000000  0.5777010000000  0.4468600000000 1.0
C      1  0.3945490000000  0.5587110000000  0.4948750000000 1.0
C      1  0.4167670000000  0.5232690000000  0.4673600000000 1.0
C      1  0.5187190000000  0.4792380000000  0.4670010000000 1.0
C      1  0.6055960000000  0.4278210000000  0.5180080000000 1.0
C      1  0.5455990000000  0.5019830000000  0.5229720000000 1.0
C      1  0.5723710000000  0.4641950000000  0.4425210000000 1.0
C      1  0.5613300000000  0.4507260000000  0.5385100000000 1.0
C      1  0.5108980000000  0.4573870000000  0.4005620000000 1.0
C      1  0.4886760000000  0.6106920000000  0.4290150000000 1.0
C      1  0.4715130000000  0.5977730000000  0.4726350000000 1.0
C      1  0.4967030000000  0.5072380000000  0.5696280000000 1.0
C      1  0.5305590000000  0.5341830000000  0.5948350000000 1.0
C      1  0.5125030000000  0.5074740000000  0.4635910000000 1.0
C      1  0.4508800000000  0.5864490000000  0.5818850000000 1.0
C      1  0.4620400000000  0.4914900000000  0.5003250000000 1.0
C      1  0.4329490000000  0.5803390000000  0.5358880000000 1.0
C      1  0.5362060000000  0.4703580000000  0.4866480000000 1.0
C      1  0.4362030000000  0.4126030000000  0.5194420000000 1.0
C      1  0.5904130000000  0.4030080000000  0.4634710000000 1.0
C      1  0.4351460000000  0.4900870000000  0.4308800000000 1.0
C      1  0.4085300000000  0.5745450000000  0.4403080000000 1.0
C      1  0.4951820000000  0.3892640000000  0.4648140000000 1.0
C      1  0.6104950000000  0.4121700000000  0.4482490000000 1.0
C      1  0.4775950000000  0.6094940000000  0.5180990000000 1.0
C      1  0.5119270000000  0.6051710000000  0.4170340000000 1.0
C      1  0.4510990000000  0.5731800000000  0.6326890000000 1.0
C      1  0.5322810000000  0.5878810000000  0.4162840000000 1.0
C      1  0.4416130000000  0.4627920000000  0.4360690000000 1.0
C      1  0.5164810000000  0.5254040000000  0.6380910000000 1.0
C      1  0.5713050000000  0.4138560000000  0.4810020000000 1.0
C      1  0.4970710000000  0.5122030000000  0.6211630000000 1.0
C      1  0.4728810000000  0.4624200000000  0.5589040000000 1.0
C      1  0.5289250000000  0.5192510000000  0.5108470000000 1.0
C      1  0.5443680000000  0.4597230000000  0.5592140000000 1.0
C      1  0.4524870000000  0.5798740000000  0.4300810000000 1.0
C      1  0.5356640000000  0.4409950000000  0.4011950000000 1.0
C      1  0.4218200000000  0.4475040000000  0.5600830000000 1.0
C      1  0.5858950000000  0.5183610000000  0.5455540000000 1.0
C      1  0.4214920000000  0.4361580000000  0.5116720000000 1.0
C      1  0.4747500000000  0.3832600000000  0.5085310000000 1.0
C      1  0.5996600000000  0.5360550000000  0.5270090000000 1.0
C      1  0.4075610000000  0.5897170000000  0.4629100000000 1.0
C      1  0.5266360000000  0.4253940000000  0.4929520000000 1.0
C      1  0.5091200000000  0.4548750000000  0.5277290000000 1.0
C      1  0.4202350000000  0.5141190000000  0.4407830000000 1.0
C      1  0.4583080000000  0.3965010000000  0.5275200000000 1.0
C      1  0.5358660000000  0.5379520000000  0.6228720000000 1.0
C      1  0.4331530000000  0.5337590000000  0.4227700000000 1.0
C      1  0.4677780000000  0.5380660000000  0.5423870000000 1.0
C      1  0.4624170000000  0.5094470000000  0.4791030000000 1.0
C      1  0.5102030000000  0.5876880000000  0.5474680000000 1.0
C      1  0.4053500000000  0.4341810000000  0.5781440000000 1.0
C      1  0.5933720000000  0.4577080000000  0.3748300000000 1.0
C      1  0.3949370000000  0.5354550000000  0.4806370000000 1.0
C      1  0.4040210000000  0.4803640000000  0.5302540000000 1.0
C      1  0.4716340000000  0.4664430000000  0.4956280000000 1.0
C      1  0.4308700000000  0.5618170000000  0.4277810000000 1.0
C      1  0.6144980000000  0.4711730000000  0.5464440000000 1.0
C      1  0.3530400000000  0.4375250000000  0.6677360000000 1.0
C      1  0.5064310000000  0.5173150000000  0.5939570000000 1.0
C      1  0.4414460000000  0.5281320000000  0.4803560000000 1.0
C      1  0.5457900000000  0.5690260000000  0.4320620000000 1.0
C      1  0.4808210000000  0.4952750000000  0.4057460000000 1.0
C      1  0.5797980000000  0.4183190000000  0.5088760000000 1.0
C      1  0.5509590000000  0.5950020000000  0.5162670000000 1.0
C      1  0.6080190000000  0.4844130000000  0.4893530000000 1.0
C      1  0.4750560000000  0.4984110000000  0.6288440000000 1.0
C      1  0.4129970000000  0.4535120000000  0.5333300000000 1.0
C      1  0.4823450000000  0.4479160000000  0.5355440000000 1.0
C      1  0.4725530000000  0.4225880000000  0.4282080000000 1.0
C      1  0.5346810000000  0.4213250000000  0.4222240000000 1.0
C      1  0.4277220000000  0.4510350000000  0.4587000000000 1.0
C      1  0.3431490000000  0.4457630000000  0.6904080000000 1.0
C      1  0.4314140000000  0.5913550000000  0.5082000000000 1.0
C      1  0.5449050000000  0.4228770000000  0.4715410000000 1.0
C      1  0.5070770000000  0.5657640000000  0.4856980000000 1.0
C      1  0.5200370000000  0.4018060000000  0.5068600000000 1.0
C      1  0.5592880000000  0.6007880000000  0.4894680000000 1.0
C      1  0.5261120000000  0.5503340000000  0.4718300000000 1.0
C      1  0.4462630000000  0.4983900000000  0.5223010000000 1.0
C      1  0.5879450000000  0.5598000000000  0.5165910000000 1.0
C      1  0.5921280000000  0.4892940000000  0.5422360000000 1.0
C      1  0.4638940000000  0.4207350000000  0.4735120000000 1.0
C      1  0.5592450000000  0.4231150000000  0.5288070000000 1.0
C      1  0.4198290000000  0.4440690000000  0.4838980000000 1.0
C      1  0.5357410000000  0.4048080000000  0.5315930000000 1.0
C      1  0.4702150000000  0.3973830000000  0.5532620000000 1.0
C      1  0.4096420000000  0.5827410000000  0.4904330000000 1.0
C      1  0.5597890000000  0.4581500000000  0.4096080000000 1.0
C      1  0.4136610000000  0.5298100000000  0.5401800000000 1.0
C      1  0.4502590000000  0.5806970000000  0.6077410000000 1.0
C      1  0.4476010000000  0.5489110000000  0.4976380000000 1.0
C      1  0.4470870000000  0.4574080000000  0.5677430000000 1.0
C      1  0.5081650000000  0.5021680000000  0.4169630000000 1.0
C      1  0.4951350000000  0.5523880000000  0.5082570000000 1.0
C      1  0.4181600000000  0.5564200000000  0.5419670000000 1.0
C      1  0.4793380000000  0.5368480000000  0.4436460000000 1.0
C      1  0.3900940000000  0.4277540000000  0.5988340000000 1.0
C      1  0.4700470000000  0.4413150000000  0.4886830000000 1.0
C      1  0.4548230000000  0.5877020000000  0.5542590000000 1.0
C      1  0.5212860000000  0.3991320000000  0.5551860000000 1.0
C      1  0.5827500000000  0.4739960000000  0.4960380000000 1.0
C      1  0.5188620000000  0.4758460000000  0.4210990000000 1.0
C      1  0.5186220000000  0.4674740000000  0.5523920000000 1.0
C      1  0.4958160000000  0.4793350000000  0.5655830000000 1.0
C      1  0.4772250000000  0.4081240000000  0.4522700000000 1.0
C      1  0.5608250000000  0.5222510000000  0.3760400000000 1.0
C      1  0.4954850000000  0.3972150000000  0.5627140000000 1.0
C      1  0.4990380000000  0.5925840000000  0.4821120000000 1.0
C      1  0.5632860000000  0.4697700000000  0.4760100000000 1.0
C      1  0.4836270000000  0.5160310000000  0.4625230000000 1.0
C      1  0.5260890000000  0.5681540000000  0.5614690000000 1.0
C      1  0.5751840000000  0.4726490000000  0.5243450000000 1.0
C      1  0.4685680000000  0.5980360000000  0.4443070000000 1.0
C      1  0.4635080000000  0.4490920000000  0.4204450000000 1.0
C      1  0.5644010000000  0.5313400000000  0.5604170000000 1.0
C      1  0.5917400000000  0.5663500000000  0.4889770000000 1.0
C      1  0.5239420000000  0.4512630000000  0.5039990000000 1.0
C      1  0.6154730000000  0.4370860000000  0.4395250000000 1.0
C      1  0.5687590000000  0.4980750000000  0.3834180000000 1.0
C      1  0.5218140000000  0.4618970000000  0.4454130000000 1.0
C      1  0.4561880000000  0.5080660000000  0.4093780000000 1.0
C      1  0.3638600000000  0.4305990000000  0.6445480000000 1.0
C      1  0.4805060000000  0.5953540000000  0.5437590000000 1.0
C      1  0.4201340000000  0.5036170000000  0.5315440000000 1.0
C      1  0.5089990000000  0.5326100000000  0.5249110000000 1.0
C      1  0.5315080000000  0.5472200000000  0.4432520000000 1.0
C      1  0.5690130000000  0.5769980000000  0.5292160000000 1.0
C      1  0.5997350000000  0.4587940000000  0.4398080000000 1.0
C      1  0.5043530000000  0.6087460000000  0.5054970000000 1.0
C      1  0.5242440000000  0.6000230000000  0.5243070000000 1.0
C      1  0.4677550000000  0.5509540000000  0.5165930000000 1.0
C      1  0.5214340000000  0.5203040000000  0.4356980000000 1.0
C      1  0.4812360000000  0.4640250000000  0.4017290000000 1.0
C      1  0.5743520000000  0.4712820000000  0.3890570000000 1.0
C      1  0.5281800000000  0.5240170000000  0.4833280000000 1.0
C      1  0.5416120000000  0.5456700000000  0.5715020000000 1.0
C      1  0.4848480000000  0.5498510000000  0.4215400000000 1.0
C      1  0.4925820000000  0.5246450000000  0.5477880000000 1.0
END
