TITL C-599893-4344-969 0.463056283545079 125000 -1173.83912342069 0 0 193 (C1) n - 1
REM
REM in /home/nfs/bkarasulu/CARBON/AIRSS/Generating-Clusters/TERSOFF/Only-C1/FIRE-HFTN
REM
REM
REM
REM
REM
REM ./C.cell (11c1c37f851c82e70ff6c80c92926a4b)
REM AIRSS Version 0.9.1 bugfix July 2018 build 013d7b7c2542+ Fri, 06 Jul 2018 19:26:36 +0100
REM compiler GCC version 9.2.1 20190827 (Red Hat 9.2.1-1)
REM options -cpp -mtune=generic -march=x86-64 -g -O0 -fpre-include=/usr/include/finclude/math-vector-fortran.h
REM seed 246442900 540854385 1693566017 -771469062 -1158013194 131379377 903757848 1557788403 1921867695 1905099094 958676756 1546482042 1866288687 -2095235788 694048327 144491546 857766385 1399630124 1739357177 1877139727 1572299724 -1270958189 1275977743 402524885 706346303 -1026984422 -748028382 -1334987061 -1047326774 -2026050144 -1612746663 799597851 1128697778
REM
CELL 1.54180   50.00000   50.00000   50.00000   90.00000   90.00000   90.00000
LATT -1
SFAC C  
C      1  0.4312070000000  0.5653730000000  0.5802980000000 1.0
C      1  0.3846510000000  0.4592310000000  0.5346590000000 1.0
C      1  0.5146120000000  0.6040260000000  0.4969640000000 1.0
C      1  0.4921580000000  0.5037430000000  0.5762980000000 1.0
C      1  0.4546690000000  0.4410870000000  0.4666120000000 1.0
C      1  0.5342730000000  0.4235900000000  0.5643570000000 1.0
C      1  0.4650640000000  0.4633920000000  0.5676280000000 1.0
C      1  0.5759560000000  0.5392860000000  0.5058100000000 1.0
C      1  0.4520250000000  0.4625430000000  0.4003950000000 1.0
C      1  0.4216690000000  0.4280640000000  0.4245470000000 1.0
C      1  0.4768800000000  0.4958330000000  0.4198060000000 1.0
C      1  0.3536300000000  0.4521390000000  0.6286360000000 1.0
C      1  0.4722160000000  0.5589300000000  0.5436620000000 1.0
C      1  0.3801930000000  0.4503120000000  0.5098260000000 1.0
C      1  0.3652930000000  0.4575320000000  0.6054540000000 1.0
C      1  0.4943680000000  0.5359490000000  0.6174760000000 1.0
C      1  0.5410580000000  0.4601630000000  0.3870050000000 1.0
C      1  0.4335040000000  0.5369110000000  0.4644240000000 1.0
C      1  0.4436000000000  0.5877230000000  0.4245150000000 1.0
C      1  0.4526710000000  0.4888250000000  0.4615110000000 1.0
C      1  0.4994640000000  0.4260780000000  0.4666460000000 1.0
C      1  0.5862140000000  0.5496850000000  0.4427140000000 1.0
C      1  0.5015320000000  0.4282250000000  0.4018820000000 1.0
C      1  0.6008230000000  0.5169100000000  0.5754000000000 1.0
C      1  0.4347930000000  0.4856560000000  0.4005240000000 1.0
C      1  0.5387070000000  0.5658250000000  0.5179190000000 1.0
C      1  0.4747000000000  0.4416710000000  0.5073470000000 1.0
C      1  0.3918080000000  0.4329360000000  0.4645090000000 1.0
C      1  0.5573430000000  0.5430690000000  0.5295920000000 1.0
C      1  0.4872570000000  0.5524080000000  0.5945190000000 1.0
C      1  0.5132230000000  0.5544160000000  0.5080860000000 1.0
C      1  0.4708180000000  0.4319480000000  0.5328970000000 1.0
C      1  0.4743050000000  0.4240470000000  0.4837520000000 1.0
C      1  0.4157320000000  0.5457080000000  0.4442990000000 1.0
C      1  0.6022090000000  0.5588660000000  0.4670470000000 1.0
C      1  0.5400680000000  0.3927630000000  0.4974760000000 1.0
C      1  0.3421990000000  0.4468770000000  0.6514680000000 1.0
C      1  0.4881880000000  0.4881930000000  0.5160660000000 1.0
C      1  0.5259660000000  0.4379460000000  0.5207240000000 1.0
C      1  0.5542160000000  0.4873170000000  0.3857090000000 1.0
C      1  0.5453900000000  0.4769380000000  0.5651470000000 1.0
C      1  0.5136040000000  0.5226700000000  0.3985250000000 1.0
C      1  0.4900880000000  0.4530000000000  0.5502040000000 1.0
C      1  0.3773400000000  0.4632430000000  0.5825680000000 1.0
C      1  0.5119080000000  0.5401810000000  0.4533750000000 1.0
C      1  0.4586400000000  0.3767760000000  0.4789590000000 1.0
C      1  0.4394860000000  0.4238180000000  0.5690990000000 1.0
C      1  0.5211080000000  0.4164770000000  0.4221760000000 1.0
C      1  0.6068080000000  0.4512190000000  0.4346300000000 1.0
C      1  0.5406660000000  0.4002420000000  0.4696540000000 1.0
C      1  0.5192300000000  0.5498630000000  0.4800330000000 1.0
C      1  0.4316980000000  0.5145860000000  0.6243860000000 1.0
C      1  0.3980170000000  0.5226900000000  0.4410370000000 1.0
C      1  0.5959560000000  0.5390520000000  0.5592020000000 1.0
C      1  0.4618060000000  0.4418400000000  0.4397210000000 1.0
C      1  0.4163180000000  0.5276440000000  0.6069420000000 1.0
C      1  0.4834990000000  0.4980720000000  0.3666980000000 1.0
C      1  0.5179370000000  0.4091730000000  0.4522780000000 1.0
C      1  0.4980490000000  0.5058800000000  0.4966770000000 1.0
C      1  0.5298310000000  0.5432490000000  0.3922850000000 1.0
C      1  0.5962410000000  0.6062230000000  0.4715280000000 1.0
C      1  0.5696550000000  0.6019760000000  0.4734280000000 1.0
C      1  0.5665310000000  0.4699620000000  0.4547070000000 1.0
C      1  0.4956480000000  0.4736150000000  0.3710870000000 1.0
C      1  0.4467180000000  0.4205840000000  0.5429800000000 1.0
C      1  0.5483170000000  0.4770990000000  0.6143340000000 1.0
C      1  0.4048820000000  0.4744980000000  0.4402810000000 1.0
C      1  0.5664660000000  0.4070170000000  0.4587280000000 1.0
C      1  0.3953490000000  0.5124820000000  0.4139500000000 1.0
C      1  0.5568510000000  0.5117310000000  0.4376450000000 1.0
C      1  0.5970980000000  0.5956440000000  0.5490520000000 1.0
C      1  0.4830560000000  0.4230390000000  0.5899400000000 1.0
C      1  0.4855850000000  0.6159220000000  0.5614390000000 1.0
C      1  0.5642880000000  0.5132560000000  0.3908330000000 1.0
C      1  0.4828230000000  0.5285040000000  0.4901000000000 1.0
C      1  0.4098760000000  0.4874920000000  0.4138360000000 1.0
C      1  0.5026110000000  0.4867060000000  0.6271910000000 1.0
C      1  0.4134450000000  0.4884580000000  0.5620190000000 1.0
C      1  0.5221510000000  0.4816440000000  0.4271860000000 1.0
C      1  0.6126770000000  0.5853860000000  0.4661240000000 1.0
C      1  0.5648580000000  0.5610590000000  0.4228930000000 1.0
C      1  0.4007870000000  0.4986260000000  0.4606230000000 1.0
C      1  0.4257500000000  0.4741750000000  0.4968050000000 1.0
C      1  0.4173700000000  0.5389920000000  0.5809220000000 1.0
C      1  0.4723180000000  0.5450970000000  0.5698140000000 1.0
C      1  0.4684130000000  0.4692250000000  0.5100980000000 1.0
C      1  0.4794210000000  0.5957360000000  0.5806120000000 1.0
C      1  0.4979770000000  0.4595920000000  0.6195460000000 1.0
C      1  0.5576050000000  0.5418170000000  0.3998560000000 1.0
C      1  0.6161490000000  0.5776770000000  0.5414710000000 1.0
C      1  0.6061700000000  0.4688480000000  0.5608430000000 1.0
C      1  0.5306040000000  0.4908670000000  0.5449210000000 1.0
C      1  0.4708920000000  0.5174760000000  0.5651510000000 1.0
C      1  0.4290040000000  0.5432020000000  0.4916380000000 1.0
C      1  0.5420770000000  0.5156490000000  0.5353220000000 1.0
C      1  0.5218340000000  0.4956150000000  0.4851030000000 1.0
C      1  0.3917140000000  0.4703220000000  0.5597060000000 1.0
C      1  0.6043500000000  0.4905120000000  0.5763800000000 1.0
C      1  0.5688080000000  0.5977490000000  0.5533980000000 1.0
C      1  0.5672830000000  0.4052220000000  0.4303060000000 1.0
C      1  0.4500080000000  0.5150970000000  0.4582480000000 1.0
C      1  0.4711170000000  0.3954390000000  0.4947430000000 1.0
C      1  0.5270900000000  0.5722360000000  0.5737010000000 1.0
C      1  0.5859390000000  0.4497790000000  0.4521710000000 1.0
C      1  0.4514830000000  0.6196900000000  0.5292980000000 1.0
C      1  0.5792220000000  0.4235750000000  0.5427300000000 1.0
C      1  0.4983200000000  0.5543580000000  0.5324650000000 1.0
C      1  0.4837290000000  0.5722520000000  0.4663690000000 1.0
C      1  0.3510510000000  0.4576960000000  0.4724020000000 1.0
C      1  0.6218210000000  0.5048820000000  0.4754160000000 1.0
C      1  0.4421930000000  0.4657820000000  0.4744900000000 1.0
C      1  0.5798280000000  0.4319880000000  0.3782450000000 1.0
C      1  0.5054550000000  0.5935030000000  0.4699590000000 1.0
C      1  0.6010880000000  0.5472800000000  0.4946560000000 1.0
C      1  0.4548740000000  0.5059550000000  0.4031570000000 1.0
C      1  0.4245660000000  0.5691130000000  0.4305230000000 1.0
C      1  0.5309630000000  0.4934360000000  0.6296120000000 1.0
C      1  0.5571690000000  0.4368220000000  0.3929130000000 1.0
C      1  0.4425110000000  0.4802440000000  0.5504290000000 1.0
C      1  0.5363230000000  0.5203570000000  0.6366010000000 1.0
C      1  0.5168250000000  0.5536820000000  0.5541390000000 1.0
C      1  0.6156060000000  0.5489120000000  0.5399510000000 1.0
C      1  0.4280020000000  0.5220110000000  0.5351220000000 1.0
C      1  0.4808630000000  0.3879520000000  0.5210600000000 1.0
C      1  0.5337320000000  0.5280430000000  0.4406010000000 1.0
C      1  0.4729830000000  0.5556710000000  0.4872810000000 1.0
C      1  0.5488690000000  0.4183000000000  0.4132270000000 1.0
C      1  0.5049430000000  0.5022690000000  0.4155470000000 1.0
C      1  0.4117850000000  0.5191850000000  0.5594110000000 1.0
C      1  0.5922610000000  0.4308240000000  0.4966350000000 1.0
C      1  0.6196710000000  0.5351700000000  0.5139600000000 1.0
C      1  0.4503860000000  0.4231150000000  0.4208310000000 1.0
C      1  0.5048170000000  0.4375680000000  0.6023710000000 1.0
C      1  0.5544520000000  0.4102590000000  0.5472660000000 1.0
C      1  0.5034290000000  0.4807290000000  0.5387260000000 1.0
C      1  0.4589500000000  0.4388400000000  0.5837210000000 1.0
C      1  0.5940740000000  0.4390060000000  0.5238390000000 1.0
C      1  0.5156480000000  0.4359040000000  0.5466140000000 1.0
C      1  0.4897010000000  0.5548990000000  0.4427820000000 1.0
C      1  0.5697270000000  0.5508640000000  0.5561840000000 1.0
C      1  0.5529580000000  0.6089200000000  0.5324230000000 1.0
C      1  0.6073960000000  0.4628220000000  0.5332510000000 1.0
C      1  0.5587370000000  0.5310140000000  0.4853340000000 1.0
C      1  0.3744470000000  0.4472800000000  0.4822830000000 1.0
C      1  0.6195170000000  0.4833580000000  0.5179410000000 1.0
C      1  0.5374850000000  0.5943520000000  0.5136510000000 1.0
C      1  0.5839350000000  0.5206440000000  0.4422700000000 1.0
C      1  0.4413070000000  0.4721460000000  0.5207440000000 1.0
C      1  0.4951630000000  0.6023900000000  0.4233750000000 1.0
C      1  0.4735340000000  0.4179290000000  0.4031090000000 1.0
C      1  0.5487980000000  0.5048690000000  0.4852760000000 1.0
C      1  0.4839130000000  0.5093530000000  0.6251380000000 1.0
C      1  0.5166140000000  0.5085210000000  0.5841460000000 1.0
C      1  0.5116570000000  0.4535220000000  0.3852380000000 1.0
C      1  0.4866960000000  0.3996680000000  0.5729430000000 1.0
C      1  0.4492010000000  0.5597250000000  0.5017530000000 1.0
C      1  0.4802130000000  0.5533400000000  0.4161480000000 1.0
C      1  0.5562820000000  0.5750900000000  0.5676170000000 1.0
C      1  0.5471700000000  0.5551240000000  0.4759220000000 1.0
C      1  0.4051510000000  0.4454140000000  0.4421300000000 1.0
C      1  0.4514920000000  0.5703730000000  0.5275930000000 1.0
C      1  0.5064820000000  0.4532030000000  0.4618990000000 1.0
C      1  0.4682160000000  0.5185310000000  0.3809270000000 1.0
C      1  0.4514620000000  0.5845450000000  0.5833450000000 1.0
C      1  0.6060950000000  0.5071920000000  0.4536480000000 1.0
C      1  0.4791360000000  0.6226420000000  0.5345900000000 1.0
C      1  0.4186000000000  0.5216640000000  0.5072950000000 1.0
C      1  0.5495970000000  0.4840590000000  0.4361170000000 1.0
C      1  0.5447260000000  0.5815350000000  0.4367260000000 1.0
C      1  0.5032450000000  0.4623250000000  0.4361120000000 1.0
C      1  0.4966630000000  0.6201330000000  0.5124980000000 1.0
C      1  0.3956900000000  0.4061040000000  0.4690810000000 1.0
C      1  0.4395500000000  0.5955900000000  0.5310480000000 1.0
C      1  0.5194480000000  0.5407900000000  0.6304260000000 1.0
C      1  0.5173630000000  0.5955430000000  0.4411220000000 1.0
C      1  0.5207170000000  0.4673270000000  0.4809970000000 1.0
C      1  0.5456930000000  0.3945760000000  0.5241680000000 1.0
C      1  0.4743640000000  0.5448970000000  0.3907580000000 1.0
C      1  0.4679010000000  0.5997960000000  0.4212390000000 1.0
C      1  0.4564990000000  0.5068850000000  0.6302250000000 1.0
C      1  0.4739870000000  0.4651230000000  0.4242370000000 1.0
C      1  0.4857100000000  0.3884020000000  0.5479820000000 1.0
C      1  0.5544300000000  0.5799500000000  0.4646650000000 1.0
C      1  0.5314040000000  0.4374880000000  0.5895760000000 1.0
C      1  0.6238540000000  0.5075800000000  0.5039630000000 1.0
C      1  0.5337540000000  0.4516310000000  0.4997760000000 1.0
C      1  0.4102770000000  0.4981770000000  0.4902170000000 1.0
C      1  0.5829090000000  0.4275580000000  0.4701050000000 1.0
C      1  0.3818160000000  0.5238050000000  0.3933840000000 1.0
C      1  0.4528090000000  0.5091690000000  0.5456830000000 1.0
C      1  0.5017140000000  0.5778180000000  0.5889940000000 1.0
C      1  0.5452770000000  0.4629370000000  0.5900270000000 1.0
C      1  0.5671760000000  0.4839850000000  0.4796390000000 1.0
END
