TITL C-599891-72-58 -150.678298601947 125000 -961.639059030068 0 0 159 (C1) n - 1
REM
REM in /home/nfs/bkarasulu/CARBON/AIRSS/Generating-Clusters/TERSOFF/Only-C1/FIRE-HFTN
REM
REM
REM
REM
REM
REM ./C.cell (11c1c37f851c82e70ff6c80c92926a4b)
REM AIRSS Version 0.9.1 bugfix July 2018 build 013d7b7c2542+ Fri, 06 Jul 2018 19:26:36 +0100
REM compiler GCC version 9.2.1 20190827 (Red Hat 9.2.1-1)
REM options -cpp -mtune=generic -march=x86-64 -g -O0 -fpre-include=/usr/include/finclude/math-vector-fortran.h
REM seed 169765149 -1517762005 -581595878 202974470 1373308061 -371885714 1961667753 -1399787866 1749227800 -1869549396 800996291 -622318746 -275175375 1361778042 562846007 -1062362283 -1367606194 2005924366 -1944658339 -388552402 -1658187517 702150878 1998853669 722222283 -754763620 692981393 -1884584048 1560044814 913320506 -1414087036 685918574 -1590282073 31257940
REM
CELL 1.54180   50.00000   50.00000   50.00000   90.00000   90.00000   90.00000
LATT -1
SFAC C  
C      1  0.5284160000000  0.5307160000000  0.5497290000000 1.0
C      1  0.5480430000000  0.4988050000000  0.4081980000000 1.0
C      1  0.4254330000000  0.4785210000000  0.5074060000000 1.0
C      1  0.4943340000000  0.5796310000000  0.5691230000000 1.0
C      1  0.4743440000000  0.4995140000000  0.3863740000000 1.0
C      1  0.4547640000000  0.5538870000000  0.5158440000000 1.0
C      1  0.4428040000000  0.5802210000000  0.5217720000000 1.0
C      1  0.5808620000000  0.4501990000000  0.4364660000000 1.0
C      1  0.5644650000000  0.4366600000000  0.5847580000000 1.0
C      1  0.4736410000000  0.3982720000000  0.5684590000000 1.0
C      1  0.4207800000000  0.5479990000000  0.4591150000000 1.0
C      1  0.5015940000000  0.4305770000000  0.4705820000000 1.0
C      1  0.4334440000000  0.4894970000000  0.5890430000000 1.0
C      1  0.5015720000000  0.5677810000000  0.5947360000000 1.0
C      1  0.5729570000000  0.4926860000000  0.5730760000000 1.0
C      1  0.4192430000000  0.5357780000000  0.5452670000000 1.0
C      1  0.5246500000000  0.4330710000000  0.4854990000000 1.0
C      1  0.5377740000000  0.4678090000000  0.4518160000000 1.0
C      1  0.5010230000000  0.3664920000000  0.4358310000000 1.0
C      1  0.4832330000000  0.4512900000000  0.4765210000000 1.0
C      1  0.5389990000000  0.3834420000000  0.4594020000000 1.0
C      1  0.5853220000000  0.5568450000000  0.5560320000000 1.0
C      1  0.4464650000000  0.5658700000000  0.5727280000000 1.0
C      1  0.5102240000000  0.4979310000000  0.4886560000000 1.0
C      1  0.4980160000000  0.4525130000000  0.4217940000000 1.0
C      1  0.5118480000000  0.4639640000000  0.3980920000000 1.0
C      1  0.5774810000000  0.5938350000000  0.4644830000000 1.0
C      1  0.6012390000000  0.4668740000000  0.4490880000000 1.0
C      1  0.5443080000000  0.4204260000000  0.5990290000000 1.0
C      1  0.4402820000000  0.5447050000000  0.4381620000000 1.0
C      1  0.5209810000000  0.6401320000000  0.4354790000000 1.0
C      1  0.4952890000000  0.5565910000000  0.3841950000000 1.0
C      1  0.4870880000000  0.4733330000000  0.3828600000000 1.0
C      1  0.4729050000000  0.5583500000000  0.4948150000000 1.0
C      1  0.5173700000000  0.4878470000000  0.4431070000000 1.0
C      1  0.4379300000000  0.5260450000000  0.4156130000000 1.0
C      1  0.4512880000000  0.5057140000000  0.5442810000000 1.0
C      1  0.4363350000000  0.4476140000000  0.4479810000000 1.0
C      1  0.4914680000000  0.4862930000000  0.5518830000000 1.0
C      1  0.5137670000000  0.3874650000000  0.4479980000000 1.0
C      1  0.5196330000000  0.5500300000000  0.3965440000000 1.0
C      1  0.5496490000000  0.5020380000000  0.5170430000000 1.0
C      1  0.5303930000000  0.5360480000000  0.4660380000000 1.0
C      1  0.5403030000000  0.4702720000000  0.6034450000000 1.0
C      1  0.4409050000000  0.4554310000000  0.4208740000000 1.0
C      1  0.5349650000000  0.5219710000000  0.6006510000000 1.0
C      1  0.4206240000000  0.5622700000000  0.5559770000000 1.0
C      1  0.3801110000000  0.5711070000000  0.4691400000000 1.0
C      1  0.4464960000000  0.3949060000000  0.4871160000000 1.0
C      1  0.4591630000000  0.5234520000000  0.3945870000000 1.0
C      1  0.4063700000000  0.4970620000000  0.5211790000000 1.0
C      1  0.4016430000000  0.5567990000000  0.4786920000000 1.0
C      1  0.5182290000000  0.5254210000000  0.4896540000000 1.0
C      1  0.4604060000000  0.5969030000000  0.5368010000000 1.0
C      1  0.6264890000000  0.5102710000000  0.4973540000000 1.0
C      1  0.5018870000000  0.4131490000000  0.4485770000000 1.0
C      1  0.5677580000000  0.4820080000000  0.5111050000000 1.0
C      1  0.4722930000000  0.4210240000000  0.5493250000000 1.0
C      1  0.4533670000000  0.4982810000000  0.4659460000000 1.0
C      1  0.5281750000000  0.5729620000000  0.6034310000000 1.0
C      1  0.4469220000000  0.4903350000000  0.4921470000000 1.0
C      1  0.5434390000000  0.5589140000000  0.3865390000000 1.0
C      1  0.5411780000000  0.5881370000000  0.5603560000000 1.0
C      1  0.4061140000000  0.4873830000000  0.5487280000000 1.0
C      1  0.5635730000000  0.4661290000000  0.5862580000000 1.0
C      1  0.5215180000000  0.4053540000000  0.5958920000000 1.0
C      1  0.4351460000000  0.4528110000000  0.5211030000000 1.0
C      1  0.4338870000000  0.4849020000000  0.6417640000000 1.0
C      1  0.4033520000000  0.5269680000000  0.5215780000000 1.0
C      1  0.4994440000000  0.5678320000000  0.4961320000000 1.0
C      1  0.4659650000000  0.4889420000000  0.4419730000000 1.0
C      1  0.4537530000000  0.3796700000000  0.5709300000000 1.0
C      1  0.4655400000000  0.5569710000000  0.4421210000000 1.0
C      1  0.4878330000000  0.5429170000000  0.5997050000000 1.0
C      1  0.4484090000000  0.4014350000000  0.4367430000000 1.0
C      1  0.4387270000000  0.4047460000000  0.5131990000000 1.0
C      1  0.5728850000000  0.5247850000000  0.4438530000000 1.0
C      1  0.4242400000000  0.5010760000000  0.4210070000000 1.0
C      1  0.5932710000000  0.4864620000000  0.5229620000000 1.0
C      1  0.5233340000000  0.4315830000000  0.5389910000000 1.0
C      1  0.4159380000000  0.5764870000000  0.5300500000000 1.0
C      1  0.5138420000000  0.5468440000000  0.5085300000000 1.0
C      1  0.5702540000000  0.5519990000000  0.4881450000000 1.0
C      1  0.5124870000000  0.4681950000000  0.5998940000000 1.0
C      1  0.5417310000000  0.4700830000000  0.4043480000000 1.0
C      1  0.4645770000000  0.4164480000000  0.4176660000000 1.0
C      1  0.4979320000000  0.5930220000000  0.4419390000000 1.0
C      1  0.5593010000000  0.5359450000000  0.4662890000000 1.0
C      1  0.4085840000000  0.4438310000000  0.4541120000000 1.0
C      1  0.4311950000000  0.4931720000000  0.5615110000000 1.0
C      1  0.5063480000000  0.5198480000000  0.6041430000000 1.0
C      1  0.5079770000000  0.6171250000000  0.4374810000000 1.0
C      1  0.3848640000000  0.4747660000000  0.5601360000000 1.0
C      1  0.5249630000000  0.5076000000000  0.4230960000000 1.0
C      1  0.5628390000000  0.5798600000000  0.4840050000000 1.0
C      1  0.4025250000000  0.5523110000000  0.5068750000000 1.0
C      1  0.5182750000000  0.5345430000000  0.4203900000000 1.0
C      1  0.4907460000000  0.4251070000000  0.4258750000000 1.0
C      1  0.5419560000000  0.5945510000000  0.4972940000000 1.0
C      1  0.5477620000000  0.4156230000000  0.5466770000000 1.0
C      1  0.5129670000000  0.5929990000000  0.4958830000000 1.0
C      1  0.4971140000000  0.6143470000000  0.5057350000000 1.0
C      1  0.4082740000000  0.4162550000000  0.4621030000000 1.0
C      1  0.5611780000000  0.5978770000000  0.5426770000000 1.0
C      1  0.5852540000000  0.5826610000000  0.5432790000000 1.0
C      1  0.4916320000000  0.4759010000000  0.4905130000000 1.0
C      1  0.4708310000000  0.4854840000000  0.5067050000000 1.0
C      1  0.4722650000000  0.4915260000000  0.5332190000000 1.0
C      1  0.3936640000000  0.4668010000000  0.4458490000000 1.0
C      1  0.5329140000000  0.5060740000000  0.5386790000000 1.0
C      1  0.5163080000000  0.5770610000000  0.5506480000000 1.0
C      1  0.5879530000000  0.5039660000000  0.5471160000000 1.0
C      1  0.4976510000000  0.4343130000000  0.5556850000000 1.0
C      1  0.5138570000000  0.5471080000000  0.4452340000000 1.0
C      1  0.4596170000000  0.5461920000000  0.5910030000000 1.0
C      1  0.5727520000000  0.5593000000000  0.5816600000000 1.0
C      1  0.6147100000000  0.5345060000000  0.4987680000000 1.0
C      1  0.4669470000000  0.3764370000000  0.4866140000000 1.0
C      1  0.4004390000000  0.4899680000000  0.4324710000000 1.0
C      1  0.4173290000000  0.3919720000000  0.5252090000000 1.0
C      1  0.5497040000000  0.5758300000000  0.5852550000000 1.0
C      1  0.4466690000000  0.5318650000000  0.5344440000000 1.0
C      1  0.5863950000000  0.5338630000000  0.5383610000000 1.0
C      1  0.4815610000000  0.4905130000000  0.5776830000000 1.0
C      1  0.5184360000000  0.4836590000000  0.5456970000000 1.0
C      1  0.6128140000000  0.4857830000000  0.5010950000000 1.0
C      1  0.5876940000000  0.4241420000000  0.4306760000000 1.0
C      1  0.6183600000000  0.4798420000000  0.4316310000000 1.0
C      1  0.5210480000000  0.4234610000000  0.5111400000000 1.0
C      1  0.4701690000000  0.5473750000000  0.3842740000000 1.0
C      1  0.4530640000000  0.4381210000000  0.4021390000000 1.0
C      1  0.4669440000000  0.5845800000000  0.5618980000000 1.0
C      1  0.5887310000000  0.5412280000000  0.5088750000000 1.0
C      1  0.4501520000000  0.4275400000000  0.5280840000000 1.0
C      1  0.5616880000000  0.4617400000000  0.4937070000000 1.0
C      1  0.4973780000000  0.4929600000000  0.6004310000000 1.0
C      1  0.5348340000000  0.6621890000000  0.4343970000000 1.0
C      1  0.4332960000000  0.4012440000000  0.4619670000000 1.0
C      1  0.5316150000000  0.4598510000000  0.5404600000000 1.0
C      1  0.4323320000000  0.4867830000000  0.6153740000000 1.0
C      1  0.5893520000000  0.6064080000000  0.4449890000000 1.0
C      1  0.4914930000000  0.4763350000000  0.4384280000000 1.0
C      1  0.4461000000000  0.4826520000000  0.4222580000000 1.0
C      1  0.5017120000000  0.4478990000000  0.5816440000000 1.0
C      1  0.5190310000000  0.5526130000000  0.5357640000000 1.0
C      1  0.5522000000000  0.6096390000000  0.5190190000000 1.0
C      1  0.6072250000000  0.4704520000000  0.4770630000000 1.0
C      1  0.5576890000000  0.5131620000000  0.5884930000000 1.0
C      1  0.4976780000000  0.3971880000000  0.5850970000000 1.0
C      1  0.4922380000000  0.5657810000000  0.4448300000000 1.0
C      1  0.5542230000000  0.4588480000000  0.4294280000000 1.0
C      1  0.4675760000000  0.4513620000000  0.3810230000000 1.0
C      1  0.5707760000000  0.5116500000000  0.4199450000000 1.0
C      1  0.4360520000000  0.4831960000000  0.6676870000000 1.0
C      1  0.5696770000000  0.4239080000000  0.5601620000000 1.0
C      1  0.4767730000000  0.6153260000000  0.5233640000000 1.0
C      1  0.5418640000000  0.4535480000000  0.4763520000000 1.0
C      1  0.4568670000000  0.4473620000000  0.4671500000000 1.0
C      1  0.5614630000000  0.3780420000000  0.4714670000000 1.0
END
