TITL C-599895-9959-190 87.1951826795696 125000 -812.885436051922 0 0 133 (C1) n - 1
REM
REM in /home/nfs/bkarasulu/CARBON/AIRSS/Generating-Clusters/TERSOFF/Only-C1/FIRE-HFTN
REM
REM
REM
REM
REM
REM ./C.cell (11c1c37f851c82e70ff6c80c92926a4b)
REM AIRSS Version 0.9.1 bugfix July 2018 build 013d7b7c2542+ Fri, 06 Jul 2018 19:26:36 +0100
REM compiler GCC version 9.2.1 20190827 (Red Hat 9.2.1-1)
REM options -cpp -mtune=generic -march=x86-64 -g -O0 -fpre-include=/usr/include/finclude/math-vector-fortran.h
REM seed -810068278 13665940 -771560046 1724090090 -374748952 -1527129197 -397961935 1340312203 -1728769706 -183796134 1067495162 845117682 -2020742679 -590825159 1379458355 -2074252283 297634500 -742848339 -582971975 149244555 -712220678 -410712471 -749568070 1042084447 866238786 201588604 669592856 1244388736 -291151015 -2045652318 412164530 575167817 1239311247
REM
CELL 1.54180   50.00000   50.00000   50.00000   90.00000   90.00000   90.00000
LATT -1
SFAC C  
C      1  0.5714590000000  0.4987300000000  0.5892250000000 1.0
C      1  0.5632460000000  0.3926150000000  0.4337550000000 1.0
C      1  0.4633340000000  0.3656150000000  0.5101150000000 1.0
C      1  0.4191890000000  0.4367670000000  0.4687780000000 1.0
C      1  0.4966970000000  0.3904240000000  0.4840660000000 1.0
C      1  0.5128160000000  0.5558000000000  0.5511010000000 1.0
C      1  0.6263020000000  0.5218790000000  0.5118660000000 1.0
C      1  0.3986280000000  0.5126670000000  0.5266830000000 1.0
C      1  0.5421730000000  0.4990540000000  0.5392080000000 1.0
C      1  0.5791460000000  0.5681780000000  0.4618650000000 1.0
C      1  0.5146090000000  0.5039180000000  0.5402340000000 1.0
C      1  0.5234920000000  0.5958490000000  0.4807340000000 1.0
C      1  0.5114230000000  0.4587900000000  0.5205050000000 1.0
C      1  0.4500940000000  0.3308580000000  0.5407010000000 1.0
C      1  0.4974290000000  0.4661020000000  0.5802500000000 1.0
C      1  0.4154950000000  0.4044560000000  0.4319490000000 1.0
C      1  0.5379320000000  0.4723790000000  0.4658430000000 1.0
C      1  0.4573950000000  0.5698090000000  0.4209050000000 1.0
C      1  0.5952020000000  0.5262300000000  0.5764290000000 1.0
C      1  0.5334520000000  0.5642810000000  0.5337160000000 1.0
C      1  0.5150450000000  0.6207880000000  0.5319470000000 1.0
C      1  0.4768600000000  0.5115580000000  0.5788470000000 1.0
C      1  0.5193410000000  0.4445970000000  0.4087760000000 1.0
C      1  0.4412920000000  0.4322650000000  0.4858620000000 1.0
C      1  0.4549000000000  0.4527160000000  0.4997210000000 1.0
C      1  0.4525130000000  0.4451990000000  0.4095170000000 1.0
C      1  0.3979630000000  0.4554360000000  0.4727220000000 1.0
C      1  0.5816610000000  0.5507230000000  0.5686330000000 1.0
C      1  0.5189020000000  0.5105570000000  0.4870390000000 1.0
C      1  0.5089630000000  0.4700390000000  0.4053650000000 1.0
C      1  0.5377970000000  0.5310820000000  0.4960280000000 1.0
C      1  0.4464910000000  0.4811530000000  0.5659270000000 1.0
C      1  0.4209870000000  0.5532110000000  0.5414830000000 1.0
C      1  0.4687030000000  0.5295330000000  0.5277170000000 1.0
C      1  0.5045250000000  0.3933400000000  0.4572220000000 1.0
C      1  0.5551610000000  0.5393900000000  0.5661110000000 1.0
C      1  0.4899450000000  0.5134270000000  0.4069150000000 1.0
C      1  0.5091880000000  0.5278220000000  0.5547390000000 1.0
C      1  0.5287270000000  0.5562510000000  0.5069340000000 1.0
C      1  0.5414910000000  0.4948410000000  0.5945610000000 1.0
C      1  0.4160220000000  0.5645870000000  0.5156210000000 1.0
C      1  0.5581350000000  0.5219710000000  0.5424660000000 1.0
C      1  0.5152240000000  0.4870090000000  0.4705550000000 1.0
C      1  0.5457140000000  0.4380180000000  0.4186190000000 1.0
C      1  0.4722320000000  0.5758400000000  0.4428170000000 1.0
C      1  0.4511720000000  0.4061470000000  0.4871400000000 1.0
C      1  0.5389630000000  0.6105660000000  0.5399880000000 1.0
C      1  0.5064100000000  0.4372390000000  0.5386190000000 1.0
C      1  0.4261910000000  0.5024820000000  0.4256770000000 1.0
C      1  0.5822590000000  0.3753790000000  0.4382840000000 1.0
C      1  0.4300640000000  0.5290760000000  0.4341730000000 1.0
C      1  0.4918450000000  0.5733790000000  0.5590880000000 1.0
C      1  0.5667750000000  0.5309000000000  0.4951050000000 1.0
C      1  0.4780050000000  0.5102210000000  0.5092460000000 1.0
C      1  0.5024920000000  0.5211390000000  0.5819860000000 1.0
C      1  0.4723960000000  0.5591380000000  0.4676070000000 1.0
C      1  0.4171520000000  0.4764620000000  0.4311420000000 1.0
C      1  0.5523690000000  0.6351770000000  0.4775240000000 1.0
C      1  0.4412540000000  0.5680860000000  0.5554260000000 1.0
C      1  0.5164500000000  0.5289760000000  0.4451550000000 1.0
C      1  0.4242540000000  0.4434250000000  0.5462110000000 1.0
C      1  0.4324230000000  0.5750930000000  0.4947470000000 1.0
C      1  0.3809870000000  0.4527070000000  0.4945380000000 1.0
C      1  0.4674560000000  0.5722270000000  0.5449500000000 1.0
C      1  0.4958890000000  0.4859830000000  0.4490760000000 1.0
C      1  0.5130290000000  0.4119430000000  0.5281710000000 1.0
C      1  0.4582970000000  0.3565290000000  0.5361840000000 1.0
C      1  0.5687620000000  0.5244220000000  0.4477010000000 1.0
C      1  0.5431080000000  0.5649520000000  0.3971000000000 1.0
C      1  0.4364400000000  0.5083000000000  0.5576400000000 1.0
C      1  0.4693260000000  0.3958870000000  0.5713360000000 1.0
C      1  0.6085880000000  0.5107660000000  0.5562330000000 1.0
C      1  0.5782020000000  0.5255970000000  0.5211620000000 1.0
C      1  0.5735260000000  0.4438710000000  0.4764390000000 1.0
C      1  0.4911640000000  0.5350090000000  0.4619380000000 1.0
C      1  0.4838280000000  0.5673180000000  0.4950390000000 1.0
C      1  0.4737230000000  0.4288470000000  0.4102560000000 1.0
C      1  0.3813580000000  0.4440770000000  0.5197870000000 1.0
C      1  0.4262070000000  0.5361370000000  0.4618360000000 1.0
C      1  0.5133010000000  0.3974000000000  0.5057080000000 1.0
C      1  0.5877740000000  0.4769880000000  0.5814970000000 1.0
C      1  0.5418960000000  0.5419690000000  0.5912730000000 1.0
C      1  0.5549130000000  0.6611120000000  0.4776910000000 1.0
C      1  0.5203240000000  0.5523950000000  0.3912640000000 1.0
C      1  0.4626900000000  0.4655340000000  0.5235030000000 1.0
C      1  0.4956030000000  0.4412480000000  0.5649260000000 1.0
C      1  0.4454040000000  0.4616510000000  0.5456260000000 1.0
C      1  0.5428510000000  0.4109500000000  0.4297970000000 1.0
C      1  0.4421980000000  0.5564770000000  0.4743860000000 1.0
C      1  0.3967630000000  0.5131690000000  0.4999960000000 1.0
C      1  0.5240790000000  0.4707930000000  0.5937220000000 1.0
C      1  0.4695760000000  0.3856920000000  0.4916370000000 1.0
C      1  0.5436600000000  0.5633850000000  0.6079720000000 1.0
C      1  0.4215350000000  0.4293010000000  0.4413750000000 1.0
C      1  0.4727900000000  0.4830550000000  0.5802590000000 1.0
C      1  0.3990700000000  0.4386500000000  0.5389810000000 1.0
C      1  0.4914820000000  0.4843380000000  0.5235370000000 1.0
C      1  0.4718680000000  0.5575220000000  0.5200640000000 1.0
C      1  0.5790820000000  0.5728930000000  0.4338430000000 1.0
C      1  0.5644310000000  0.5719240000000  0.4115140000000 1.0
C      1  0.4809860000000  0.4195010000000  0.5752590000000 1.0
C      1  0.5003710000000  0.4240170000000  0.4166780000000 1.0
C      1  0.4158740000000  0.5243870000000  0.5456400000000 1.0
C      1  0.5709080000000  0.5899270000000  0.4774660000000 1.0
C      1  0.4401750000000  0.5493530000000  0.4173150000000 1.0
C      1  0.5387770000000  0.4600910000000  0.5114940000000 1.0
C      1  0.5812540000000  0.4466490000000  0.4502230000000 1.0
C      1  0.4071660000000  0.5225330000000  0.4773230000000 1.0
C      1  0.3969970000000  0.4741600000000  0.4515400000000 1.0
C      1  0.5762270000000  0.5406820000000  0.4696750000000 1.0
C      1  0.4955520000000  0.4895020000000  0.4205800000000 1.0
C      1  0.5335280000000  0.4491700000000  0.6084800000000 1.0
C      1  0.4620060000000  0.5220490000000  0.5553300000000 1.0
C      1  0.5769250000000  0.5765720000000  0.5554050000000 1.0
C      1  0.6051670000000  0.5194750000000  0.5289740000000 1.0
C      1  0.5262370000000  0.5192920000000  0.5966490000000 1.0
C      1  0.4901540000000  0.6214320000000  0.5212510000000 1.0
C      1  0.4918000000000  0.5198300000000  0.4870550000000 1.0
C      1  0.5457420000000  0.5106380000000  0.4393970000000 1.0
C      1  0.5006820000000  0.5346620000000  0.3946930000000 1.0
C      1  0.5535980000000  0.4755740000000  0.5295170000000 1.0
C      1  0.6077730000000  0.4830710000000  0.5636060000000 1.0
C      1  0.5517180000000  0.5850860000000  0.5424090000000 1.0
C      1  0.4618850000000  0.3744280000000  0.5575160000000 1.0
C      1  0.5496420000000  0.4562150000000  0.4857020000000 1.0
C      1  0.4297280000000  0.4512430000000  0.4245590000000 1.0
C      1  0.5144170000000  0.4055970000000  0.4341200000000 1.0
C      1  0.5628580000000  0.4574670000000  0.4307680000000 1.0
C      1  0.5114930000000  0.5739420000000  0.4932250000000 1.0
C      1  0.4462200000000  0.5999400000000  0.4996020000000 1.0
C      1  0.4665530000000  0.6148580000000  0.5096600000000 1.0
C      1  0.5489840000000  0.6075810000000  0.4786330000000 1.0
C      1  0.5496500000000  0.4814180000000  0.4411130000000 1.0
END
