TITL C-599892-9790-86 9.19394145179753 125000 -208.634485880565 0 0 35 (C1) n - 1
REM
REM in /home/nfs/bkarasulu/CARBON/AIRSS/Generating-Clusters/TERSOFF/Only-C1/FIRE-HFTN
REM
REM
REM
REM
REM
REM ./C.cell (11c1c37f851c82e70ff6c80c92926a4b)
REM AIRSS Version 0.9.1 bugfix July 2018 build 013d7b7c2542+ Fri, 06 Jul 2018 19:26:36 +0100
REM compiler GCC version 9.2.1 20190827 (Red Hat 9.2.1-1)
REM options -cpp -mtune=generic -march=x86-64 -g -O0 -fpre-include=/usr/include/finclude/math-vector-fortran.h
REM seed -1024198299 1826717344 693300432 -403704534 -718713361 -658758586 1061505385 1869664816 -907371184 -61319782 1725415200 721474579 -1581838019 -2121503530 2003339509 -1231610716 -1438565687 -1926168735 -949704658 -254792347 -1122021071 129248752 -1140036399 -873701819 -2097382058 -1891424416 -1125141472 -1355547720 -1978078982 396912645 -1491716843 -880885053 250576234
REM
CELL 1.54180   50.00000   50.00000   50.00000   90.00000   90.00000   90.00000
LATT -1
SFAC C  
C      1  0.5727270000000  0.5475900000000  0.4126800000000 1.0
C      1  0.3991270000000  0.4276460000000  0.5599440000000 1.0
C      1  0.5057060000000  0.5745180000000  0.4905540000000 1.0
C      1  0.5007050000000  0.5320710000000  0.4579570000000 1.0
C      1  0.3793520000000  0.4154250000000  0.5726780000000 1.0
C      1  0.5565710000000  0.6092250000000  0.4488950000000 1.0
C      1  0.4485730000000  0.4608750000000  0.4817260000000 1.0
C      1  0.4827140000000  0.4874720000000  0.4526630000000 1.0
C      1  0.5756810000000  0.5736430000000  0.4170160000000 1.0
C      1  0.4849070000000  0.4776430000000  0.5528230000000 1.0
C      1  0.5320470000000  0.4506590000000  0.5425230000000 1.0
C      1  0.5045210000000  0.5049380000000  0.4524030000000 1.0
C      1  0.4983250000000  0.5692570000000  0.5169800000000 1.0
C      1  0.5469410000000  0.4344480000000  0.5596880000000 1.0
C      1  0.5401040000000  0.4759670000000  0.4681990000000 1.0
C      1  0.5385010000000  0.6095240000000  0.4684030000000 1.0
C      1  0.5700360000000  0.5960930000000  0.4300940000000 1.0
C      1  0.5401830000000  0.4543760000000  0.5160300000000 1.0
C      1  0.5608080000000  0.4193140000000  0.5757480000000 1.0
C      1  0.5480440000000  0.5052930000000  0.4301950000000 1.0
C      1  0.4401050000000  0.4541060000000  0.5059340000000 1.0
C      1  0.5088670000000  0.4633150000000  0.5516670000000 1.0
C      1  0.4397190000000  0.4527220000000  0.5338680000000 1.0
C      1  0.3599020000000  0.4034050000000  0.5852030000000 1.0
C      1  0.4188900000000  0.4398580000000  0.5472190000000 1.0
C      1  0.5626390000000  0.5235030000000  0.4175440000000 1.0
C      1  0.5203370000000  0.5972370000000  0.4834270000000 1.0
C      1  0.4922730000000  0.5536960000000  0.5376180000000 1.0
C      1  0.5428410000000  0.4627110000000  0.4910030000000 1.0
C      1  0.4635230000000  0.4724230000000  0.4630960000000 1.0
C      1  0.5309650000000  0.4947780000000  0.4496440000000 1.0
C      1  0.4853910000000  0.5053710000000  0.5563450000000 1.0
C      1  0.5004310000000  0.5551190000000  0.4710370000000 1.0
C      1  0.4878530000000  0.5312550000000  0.5510860000000 1.0
C      1  0.4606900000000  0.4645240000000  0.5481130000000 1.0
END
