TITL C-599897-7526-1419 3.09984300769414e-05 125000 -771.194652252928 0 0 124 (C1) n - 1
REM
REM in /home/nfs/bkarasulu/CARBON/AIRSS/Generating-Clusters/TERSOFF/Only-C1/FIRE-HFTN
REM
REM
REM
REM
REM
REM ./C.cell (11c1c37f851c82e70ff6c80c92926a4b)
REM AIRSS Version 0.9.1 bugfix July 2018 build 013d7b7c2542+ Fri, 06 Jul 2018 19:26:36 +0100
REM compiler GCC version 9.2.1 20190827 (Red Hat 9.2.1-1)
REM options -cpp -mtune=generic -march=x86-64 -g -O0 -fpre-include=/usr/include/finclude/math-vector-fortran.h
REM seed -508260626 -653754793 -577871218 680622349 112048649 1846413679 -465495312 252015710 -577645120 430052847 -1272493160 153373843 2025739686 -1367998844 236797377 -774916981 -712094700 1838181411 -801283917 -2102624905 752528186 -1004816797 -1022629386 -2067808777 401909955 1120217445 -460901587 1954726235 449999851 1691393666 -1111208031 -1437328241 1599503180
REM
CELL 1.54180   50.00000   50.00000   50.00000   90.00000   90.00000   90.00000
LATT -1
SFAC C  
C      1  0.4820970000000  0.4909080000000  0.4281900000000 1.0
C      1  0.4928680000000  0.5418650000000  0.5763480000000 1.0
C      1  0.4732070000000  0.5115260000000  0.3856760000000 1.0
C      1  0.6158420000000  0.4849410000000  0.5599930000000 1.0
C      1  0.5467140000000  0.4063840000000  0.5260470000000 1.0
C      1  0.6225260000000  0.4584530000000  0.5497760000000 1.0
C      1  0.4522300000000  0.5802290000000  0.5143850000000 1.0
C      1  0.5319160000000  0.3972280000000  0.5052720000000 1.0
C      1  0.5477110000000  0.4946490000000  0.4438270000000 1.0
C      1  0.5119550000000  0.5603080000000  0.4935070000000 1.0
C      1  0.5414470000000  0.4949490000000  0.4716410000000 1.0
C      1  0.4752600000000  0.4784260000000  0.4533690000000 1.0
C      1  0.4424470000000  0.5151360000000  0.6016470000000 1.0
C      1  0.4193420000000  0.5112400000000  0.5014860000000 1.0
C      1  0.4279810000000  0.5775190000000  0.4306770000000 1.0
C      1  0.5485010000000  0.5051070000000  0.5625330000000 1.0
C      1  0.5174400000000  0.5020100000000  0.6046360000000 1.0
C      1  0.5038850000000  0.4190800000000  0.5685310000000 1.0
C      1  0.4207390000000  0.4948370000000  0.5494870000000 1.0
C      1  0.5094820000000  0.4484130000000  0.4519010000000 1.0
C      1  0.5114740000000  0.5356240000000  0.5081520000000 1.0
C      1  0.6019080000000  0.4269320000000  0.4898610000000 1.0
C      1  0.4038600000000  0.5107770000000  0.4781610000000 1.0
C      1  0.4672970000000  0.4284750000000  0.4381340000000 1.0
C      1  0.6046100000000  0.5335010000000  0.5463180000000 1.0
C      1  0.4884790000000  0.5138650000000  0.5734830000000 1.0
C      1  0.5265750000000  0.5589550000000  0.4697570000000 1.0
C      1  0.4585130000000  0.5348610000000  0.3959560000000 1.0
C      1  0.5259500000000  0.4623850000000  0.5628710000000 1.0
C      1  0.4533450000000  0.4673650000000  0.4672770000000 1.0
C      1  0.5204350000000  0.5676730000000  0.4213670000000 1.0
C      1  0.4087880000000  0.5606330000000  0.5210340000000 1.0
C      1  0.5220640000000  0.5430800000000  0.5775130000000 1.0
C      1  0.6146760000000  0.4973460000000  0.5139890000000 1.0
C      1  0.4092280000000  0.4803200000000  0.4406930000000 1.0
C      1  0.4910000000000  0.4035260000000  0.5483640000000 1.0
C      1  0.5740260000000  0.5781620000000  0.5437020000000 1.0
C      1  0.4966480000000  0.5837190000000  0.4977190000000 1.0
C      1  0.4746840000000  0.5582250000000  0.3971690000000 1.0
C      1  0.5278820000000  0.5536680000000  0.5519880000000 1.0
C      1  0.5136880000000  0.4929510000000  0.4792390000000 1.0
C      1  0.4886720000000  0.4991400000000  0.5985230000000 1.0
C      1  0.4926450000000  0.5353700000000  0.4439270000000 1.0
C      1  0.4561860000000  0.4868160000000  0.5161800000000 1.0
C      1  0.5342010000000  0.5181350000000  0.5851060000000 1.0
C      1  0.5314170000000  0.4566330000000  0.5064510000000 1.0
C      1  0.5070680000000  0.4742160000000  0.5451190000000 1.0
C      1  0.4707990000000  0.5192190000000  0.4856210000000 1.0
C      1  0.4796310000000  0.5843990000000  0.5203740000000 1.0
C      1  0.4631590000000  0.6133600000000  0.4387090000000 1.0
C      1  0.5282560000000  0.4335050000000  0.5624790000000 1.0
C      1  0.5231800000000  0.5814180000000  0.5462200000000 1.0
C      1  0.4291340000000  0.4690980000000  0.4236390000000 1.0
C      1  0.5551790000000  0.5566520000000  0.4696620000000 1.0
C      1  0.4294200000000  0.4689120000000  0.5610950000000 1.0
C      1  0.4480610000000  0.5070320000000  0.4981200000000 1.0
C      1  0.4821740000000  0.6145570000000  0.4573200000000 1.0
C      1  0.4288340000000  0.5689000000000  0.5028200000000 1.0
C      1  0.4563310000000  0.4067700000000  0.5095600000000 1.0
C      1  0.4086290000000  0.5072210000000  0.4506870000000 1.0
C      1  0.4361400000000  0.5209400000000  0.4117970000000 1.0
C      1  0.4446490000000  0.4607160000000  0.5142110000000 1.0
C      1  0.5279200000000  0.5349840000000  0.5311660000000 1.0
C      1  0.6017130000000  0.4431210000000  0.5363140000000 1.0
C      1  0.5115960000000  0.5559900000000  0.4458840000000 1.0
C      1  0.5609110000000  0.4971440000000  0.4915340000000 1.0
C      1  0.4238190000000  0.5553110000000  0.4475290000000 1.0
C      1  0.4338440000000  0.4510260000000  0.5388360000000 1.0
C      1  0.4215610000000  0.5288120000000  0.4358060000000 1.0
C      1  0.4912230000000  0.3986550000000  0.4704260000000 1.0
C      1  0.4596520000000  0.4916910000000  0.6007670000000 1.0
C      1  0.4086880000000  0.5123900000000  0.5290040000000 1.0
C      1  0.5702020000000  0.4578600000000  0.4150990000000 1.0
C      1  0.5734580000000  0.4634010000000  0.5695880000000 1.0
C      1  0.5667930000000  0.5436060000000  0.4927450000000 1.0
C      1  0.4450280000000  0.5109890000000  0.5554200000000 1.0
C      1  0.4948000000000  0.4346730000000  0.4311810000000 1.0
C      1  0.4427900000000  0.5996100000000  0.4283790000000 1.0
C      1  0.4052770000000  0.5397470000000  0.5395970000000 1.0
C      1  0.5499210000000  0.5913440000000  0.5426000000000 1.0
C      1  0.5074510000000  0.4596320000000  0.5206090000000 1.0
C      1  0.4986300000000  0.5135810000000  0.4941970000000 1.0
C      1  0.4891430000000  0.4390540000000  0.5179600000000 1.0
C      1  0.5488730000000  0.5712480000000  0.4222930000000 1.0
C      1  0.5649430000000  0.5650010000000  0.4439450000000 1.0
C      1  0.5331290000000  0.4282080000000  0.3974830000000 1.0
C      1  0.4708000000000  0.5337140000000  0.4615120000000 1.0
C      1  0.5131500000000  0.3949540000000  0.4859020000000 1.0
C      1  0.5496820000000  0.4464300000000  0.4908470000000 1.0
C      1  0.4856920000000  0.4298510000000  0.5873720000000 1.0
C      1  0.4459710000000  0.4492700000000  0.4881180000000 1.0
C      1  0.4633010000000  0.4443710000000  0.5897250000000 1.0
C      1  0.4258460000000  0.5613560000000  0.4754840000000 1.0
C      1  0.4814360000000  0.5655540000000  0.5656800000000 1.0
C      1  0.5951340000000  0.4793650000000  0.5786820000000 1.0
C      1  0.5499390000000  0.5168760000000  0.5347300000000 1.0
C      1  0.4903060000000  0.4963600000000  0.5510380000000 1.0
C      1  0.5768320000000  0.4405230000000  0.5515210000000 1.0
C      1  0.5011490000000  0.5119110000000  0.4303360000000 1.0
C      1  0.4933860000000  0.5826640000000  0.5455590000000 1.0
C      1  0.4359750000000  0.5277730000000  0.5770160000000 1.0
C      1  0.5284420000000  0.5066160000000  0.4271630000000 1.0
C      1  0.6032960000000  0.4471820000000  0.5080170000000 1.0
C      1  0.4687730000000  0.4893040000000  0.4033780000000 1.0
C      1  0.5494440000000  0.4771090000000  0.5665360000000 1.0
C      1  0.5003650000000  0.4716040000000  0.4656130000000 1.0
C      1  0.4401670000000  0.4907010000000  0.4083240000000 1.0
C      1  0.4512650000000  0.4211680000000  0.4852420000000 1.0
C      1  0.5087030000000  0.4269440000000  0.4082520000000 1.0
C      1  0.4994330000000  0.5686050000000  0.4020960000000 1.0
C      1  0.5670160000000  0.4780850000000  0.4322340000000 1.0
C      1  0.5571400000000  0.4394210000000  0.4008670000000 1.0
C      1  0.4671680000000  0.4129160000000  0.4628580000000 1.0
C      1  0.4485500000000  0.4683840000000  0.5851870000000 1.0
C      1  0.6099350000000  0.4740180000000  0.5011160000000 1.0
C      1  0.4446340000000  0.4442900000000  0.4276430000000 1.0
C      1  0.4944430000000  0.6038240000000  0.4783570000000 1.0
C      1  0.5521790000000  0.4242250000000  0.5477400000000 1.0
C      1  0.5913460000000  0.5572630000000  0.5459590000000 1.0
C      1  0.4651710000000  0.4983710000000  0.5397680000000 1.0
C      1  0.5641680000000  0.5191620000000  0.5087480000000 1.0
C      1  0.4781150000000  0.4143660000000  0.5258380000000 1.0
C      1  0.4143080000000  0.5433960000000  0.5669110000000 1.0
C      1  0.6134900000000  0.5067400000000  0.5409650000000 1.0
END
