TITL C-599895-9959-815 120752.380059271 125000 -707.685793959178 0 0 120 (C1) n - 1
REM
REM in /home/nfs/bkarasulu/CARBON/AIRSS/Generating-Clusters/TERSOFF/Only-C1/FIRE-HFTN
REM
REM
REM
REM
REM
REM ./C.cell (11c1c37f851c82e70ff6c80c92926a4b)
REM AIRSS Version 0.9.1 bugfix July 2018 build 013d7b7c2542+ Fri, 06 Jul 2018 19:26:36 +0100
REM compiler GCC version 9.2.1 20190827 (Red Hat 9.2.1-1)
REM options -cpp -mtune=generic -march=x86-64 -g -O0 -fpre-include=/usr/include/finclude/math-vector-fortran.h
REM seed -1333955070 1679944624 1198396688 -512966343 -29095021 -100250352 466060576 1744120265 -836275262 -527222718 960539302 1301279183 -736915884 -980409517 959935030 -1813827667 -830701561 -1543896467 -235239573 756898878 -1058245499 1865501947 864906485 2032731403 323943375 -230809918 -58066280 -380049674 868362048 2087167766 -131298568 -422041018 435185919
REM
CELL 1.54180   50.00000   50.00000   50.00000   90.00000   90.00000   90.00000
LATT -1
SFAC C  
C      1  0.5593390000000  0.4795110000000  0.4216660000000 1.0
C      1  0.5851300000000  0.4797650000000  0.5042660000000 1.0
C      1  0.4358830000000  0.5409800000000  0.5843230000000 1.0
C      1  0.4600660000000  0.5910890000000  0.5241850000000 1.0
C      1  0.5588810000000  0.4275290000000  0.4673670000000 1.0
C      1  0.5669910000000  0.5712690000000  0.4480010000000 1.0
C      1  0.5506730000000  0.4436660000000  0.5532670000000 1.0
C      1  0.5393790000000  0.5375780000000  0.5123410000000 1.0
C      1  0.4191510000000  0.5233650000000  0.5428220000000 1.0
C      1  0.5680000000000  0.5339400000000  0.5617380000000 1.0
C      1  0.4928710000000  0.4546720000000  0.4762860000000 1.0
C      1  0.4495290000000  0.5213660000000  0.3751420000000 1.0
C      1  0.5261670000000  0.5779050000000  0.5332250000000 1.0
C      1  0.5540800000000  0.5302390000000  0.4801110000000 1.0
C      1  0.5189150000000  0.4552210000000  0.4589240000000 1.0
C      1  0.5116440000000  0.4063220000000  0.4669750000000 1.0
C      1  0.5005130000000  0.5130670000000  0.3981500000000 1.0
C      1  0.4659590000000  0.5438370000000  0.3810220000000 1.0
C      1  0.5821920000000  0.4891540000000  0.4767260000000 1.0
C      1  0.4885830000000  0.6009480000000  0.5199150000000 1.0
C      1  0.4177310000000  0.5711660000000  0.4285800000000 1.0
C      1  0.4175640000000  0.4613450000000  0.4010150000000 1.0
C      1  0.4623980000000  0.4140890000000  0.4670480000000 1.0
C      1  0.5175440000000  0.4385030000000  0.5168520000000 1.0
C      1  0.4162100000000  0.4997320000000  0.5601920000000 1.0
C      1  0.4912020000000  0.5551380000000  0.4356270000000 1.0
C      1  0.4835730000000  0.5715220000000  0.5590550000000 1.0
C      1  0.4887680000000  0.5268550000000  0.5798260000000 1.0
C      1  0.5403550000000  0.4987630000000  0.4216980000000 1.0
C      1  0.4574770000000  0.5641920000000  0.3988930000000 1.0
C      1  0.4936580000000  0.4479110000000  0.5041980000000 1.0
C      1  0.5681420000000  0.5752170000000  0.4967520000000 1.0
C      1  0.5481700000000  0.4067560000000  0.5097460000000 1.0
C      1  0.5420450000000  0.6015550000000  0.4922910000000 1.0
C      1  0.4278800000000  0.4779770000000  0.5747650000000 1.0
C      1  0.4367120000000  0.4916200000000  0.5988580000000 1.0
C      1  0.5565490000000  0.5013540000000  0.4713960000000 1.0
C      1  0.4388960000000  0.5627520000000  0.4747450000000 1.0
C      1  0.4375530000000  0.5190760000000  0.6006180000000 1.0
C      1  0.5661080000000  0.4262960000000  0.4954940000000 1.0
C      1  0.5343110000000  0.5151960000000  0.5954280000000 1.0
C      1  0.4616770000000  0.5572260000000  0.4873120000000 1.0
C      1  0.4792240000000  0.5115270000000  0.4587550000000 1.0
C      1  0.5409940000000  0.4806560000000  0.5223100000000 1.0
C      1  0.4575920000000  0.5036360000000  0.5145250000000 1.0
C      1  0.4360580000000  0.4757410000000  0.3886190000000 1.0
C      1  0.5340460000000  0.4818210000000  0.4719340000000 1.0
C      1  0.5461600000000  0.5367820000000  0.5805890000000 1.0
C      1  0.4728240000000  0.5147900000000  0.5595830000000 1.0
C      1  0.4990740000000  0.4896660000000  0.5103210000000 1.0
C      1  0.4198130000000  0.4583960000000  0.5132580000000 1.0
C      1  0.4774570000000  0.4874250000000  0.4445840000000 1.0
C      1  0.5796980000000  0.5564880000000  0.5175820000000 1.0
C      1  0.4924380000000  0.5354030000000  0.5213430000000 1.0
C      1  0.5666580000000  0.5576790000000  0.4727500000000 1.0
C      1  0.4638240000000  0.4433300000000  0.5722010000000 1.0
C      1  0.4449290000000  0.4258320000000  0.4873210000000 1.0
C      1  0.4691980000000  0.5243000000000  0.5321270000000 1.0
C      1  0.5383870000000  0.4530910000000  0.5299310000000 1.0
C      1  0.4221070000000  0.5679250000000  0.4547320000000 1.0
C      1  0.5193870000000  0.4102240000000  0.5159220000000 1.0
C      1  0.4764060000000  0.5698620000000  0.4191050000000 1.0
C      1  0.4660490000000  0.4217110000000  0.4398400000000 1.0
C      1  0.4483380000000  0.4740920000000  0.4772800000000 1.0
C      1  0.4350830000000  0.5475080000000  0.5551950000000 1.0
C      1  0.5278510000000  0.4999240000000  0.5411760000000 1.0
C      1  0.4849840000000  0.4350380000000  0.4254920000000 1.0
C      1  0.4609910000000  0.4783580000000  0.5301350000000 1.0
C      1  0.5499660000000  0.4183020000000  0.5669270000000 1.0
C      1  0.4333460000000  0.4526020000000  0.4881760000000 1.0
C      1  0.5948330000000  0.4789200000000  0.4538730000000 1.0
C      1  0.4565940000000  0.5015080000000  0.4860370000000 1.0
C      1  0.5027880000000  0.5292570000000  0.4469000000000 1.0
C      1  0.5414460000000  0.4223280000000  0.5929660000000 1.0
C      1  0.4002830000000  0.4500940000000  0.4169750000000 1.0
C      1  0.4518960000000  0.4171260000000  0.5147720000000 1.0
C      1  0.5816200000000  0.5289760000000  0.5078730000000 1.0
C      1  0.4860480000000  0.4021400000000  0.4793430000000 1.0
C      1  0.4559690000000  0.5700370000000  0.5464660000000 1.0
C      1  0.5021410000000  0.4878500000000  0.5403860000000 1.0
C      1  0.4773930000000  0.4369070000000  0.5478970000000 1.0
C      1  0.4850600000000  0.4026790000000  0.5083020000000 1.0
C      1  0.5689300000000  0.4853770000000  0.5694050000000 1.0
C      1  0.4810090000000  0.4496170000000  0.5937550000000 1.0
C      1  0.4772370000000  0.4873670000000  0.5535390000000 1.0
C      1  0.4556010000000  0.4948460000000  0.3837410000000 1.0
C      1  0.5067850000000  0.4508020000000  0.4307590000000 1.0
C      1  0.5261240000000  0.5575060000000  0.5793340000000 1.0
C      1  0.5770740000000  0.5563070000000  0.5459900000000 1.0
C      1  0.4370670000000  0.4522410000000  0.5630550000000 1.0
C      1  0.5760350000000  0.5069490000000  0.5519100000000 1.0
C      1  0.5113650000000  0.5584590000000  0.4858110000000 1.0
C      1  0.5516860000000  0.4637480000000  0.5752450000000 1.0
C      1  0.4075510000000  0.4844890000000  0.5139850000000 1.0
C      1  0.4868190000000  0.5511970000000  0.4977350000000 1.0
C      1  0.5785700000000  0.4639590000000  0.4359370000000 1.0
C      1  0.5161980000000  0.5137580000000  0.4223970000000 1.0
C      1  0.5131500000000  0.6072870000000  0.5019700000000 1.0
C      1  0.5285660000000  0.5633760000000  0.5090590000000 1.0
C      1  0.5484880000000  0.6113090000000  0.4664250000000 1.0
C      1  0.4709530000000  0.4661600000000  0.4618530000000 1.0
C      1  0.5071550000000  0.5115800000000  0.5956220000000 1.0
C      1  0.5208170000000  0.5253690000000  0.5287200000000 1.0
C      1  0.4095510000000  0.5118450000000  0.5180100000000 1.0
C      1  0.4741210000000  0.4531310000000  0.5240800000000 1.0
C      1  0.5245110000000  0.4854640000000  0.4981690000000 1.0
C      1  0.5218330000000  0.5392830000000  0.4681080000000 1.0
C      1  0.4975300000000  0.5538640000000  0.5760260000000 1.0
C      1  0.5587650000000  0.5970550000000  0.4457630000000 1.0
C      1  0.4826760000000  0.4916420000000  0.3921310000000 1.0
C      1  0.5834490000000  0.5038760000000  0.5227950000000 1.0
C      1  0.4313120000000  0.4407310000000  0.5346040000000 1.0
C      1  0.5015760000000  0.5876890000000  0.5428910000000 1.0
C      1  0.5342080000000  0.4505970000000  0.5963120000000 1.0
C      1  0.4937210000000  0.5365650000000  0.3835060000000 1.0
C      1  0.5736100000000  0.4377130000000  0.4455000000000 1.0
C      1  0.5804180000000  0.4503510000000  0.5059950000000 1.0
C      1  0.4308330000000  0.5702750000000  0.4051840000000 1.0
C      1  0.5307210000000  0.4274730000000  0.4635680000000 1.0
C      1  0.5065650000000  0.4551470000000  0.6007710000000 1.0
END
