TITL C-599896-8500-313 0.0148640895220826 125000 -111.590224058063 0 0 19 (C1) n - 1
REM
REM in /home/nfs/bkarasulu/CARBON/AIRSS/Generating-Clusters/TERSOFF/Only-C1/FIRE-HFTN
REM
REM
REM
REM
REM
REM ./C.cell (11c1c37f851c82e70ff6c80c92926a4b)
REM AIRSS Version 0.9.1 bugfix July 2018 build 013d7b7c2542+ Fri, 06 Jul 2018 19:26:36 +0100
REM compiler GCC version 9.2.1 20190827 (Red Hat 9.2.1-1)
REM options -cpp -mtune=generic -march=x86-64 -g -O0 -fpre-include=/usr/include/finclude/math-vector-fortran.h
REM seed 524372297 -1020757423 -1690648049 364446818 -230268386 -1194515680 263327450 1526685176 -1489015884 -1669400878 1284980582 432445120 1133064933 1628618614 1102594934 325892302 1013323279 -1180059908 -192220673 -2088046538 1336077824 -1986302569 -1454451023 -250863453 -1301311319 -1609909964 916542426 1551222833 -1023671526 1874688127 1844878078 -658891297 610874784
REM
CELL 1.54180   50.00000   50.00000   50.00000   90.00000   90.00000   90.00000
LATT -1
SFAC C  
C      1  0.5065790000000  0.5606670000000  0.5375470000000 1.0
C      1  0.5357190000000  0.4635540000000  0.4325210000000 1.0
C      1  0.4886720000000  0.4694280000000  0.4501960000000 1.0
C      1  0.5111600000000  0.5126250000000  0.5156750000000 1.0
C      1  0.5548630000000  0.4696780000000  0.4773160000000 1.0
C      1  0.5019180000000  0.6087140000000  0.5594430000000 1.0
C      1  0.4750030000000  0.4619510000000  0.5231190000000 1.0
C      1  0.4358860000000  0.4518110000000  0.4992590000000 1.0
C      1  0.4484880000000  0.4597410000000  0.4764860000000 1.0
C      1  0.5127860000000  0.4871850000000  0.5041930000000 1.0
C      1  0.5091220000000  0.4663260000000  0.4334180000000 1.0
C      1  0.4757060000000  0.4681840000000  0.4748610000000 1.0
C      1  0.5377420000000  0.4771760000000  0.4963400000000 1.0
C      1  0.4890350000000  0.4721650000000  0.5004130000000 1.0
C      1  0.4494330000000  0.4526520000000  0.5228610000000 1.0
C      1  0.5089080000000  0.5366470000000  0.5266020000000 1.0
C      1  0.5042490000000  0.5846870000000  0.5484940000000 1.0
C      1  0.5551050000000  0.4644640000000  0.4510440000000 1.0
C      1  0.4996250000000  0.6323450000000  0.5702110000000 1.0
END
