TITL C-599893-4344-377 125.083393945848 125000 -888.267960695543 0 0 146 (C1) n - 1
REM
REM in /home/nfs/bkarasulu/CARBON/AIRSS/Generating-Clusters/TERSOFF/Only-C1/FIRE-HFTN
REM
REM
REM
REM
REM
REM ./C.cell (11c1c37f851c82e70ff6c80c92926a4b)
REM AIRSS Version 0.9.1 bugfix July 2018 build 013d7b7c2542+ Fri, 06 Jul 2018 19:26:36 +0100
REM compiler GCC version 9.2.1 20190827 (Red Hat 9.2.1-1)
REM options -cpp -mtune=generic -march=x86-64 -g -O0 -fpre-include=/usr/include/finclude/math-vector-fortran.h
REM seed 424974352 -587385142 1328490622 1680098932 896041228 1982013646 -1319046815 1553520098 -720233507 1635301662 -719951756 686385254 -2114983508 1668020498 829204975 270242054 139383525 -408841026 1154836053 -1157479782 -687543498 -1557985601 -443231850 -2048518893 1443171185 1134313592 603130879 81955857 -1235432291 584956509 587000767 -1547547703 -392488831
REM
CELL 1.54180   50.00000   50.00000   50.00000   90.00000   90.00000   90.00000
LATT -1
SFAC C  
C      1  0.4673750000000  0.5317300000000  0.4767340000000 1.0
C      1  0.5498790000000  0.5614150000000  0.5839120000000 1.0
C      1  0.4301910000000  0.4567480000000  0.4660830000000 1.0
C      1  0.4977520000000  0.4750650000000  0.4035020000000 1.0
C      1  0.4138730000000  0.5036020000000  0.5702240000000 1.0
C      1  0.4725950000000  0.4514420000000  0.5065800000000 1.0
C      1  0.5128300000000  0.5172790000000  0.5931350000000 1.0
C      1  0.5028280000000  0.5816600000000  0.5775630000000 1.0
C      1  0.5685230000000  0.4923100000000  0.4620770000000 1.0
C      1  0.6036790000000  0.4831330000000  0.5176920000000 1.0
C      1  0.4625570000000  0.4899410000000  0.4869340000000 1.0
C      1  0.4343900000000  0.4819100000000  0.4803970000000 1.0
C      1  0.5956630000000  0.4500390000000  0.4733790000000 1.0
C      1  0.4786830000000  0.4117310000000  0.5547370000000 1.0
C      1  0.5113550000000  0.4853040000000  0.5570600000000 1.0
C      1  0.4228150000000  0.4439210000000  0.5101600000000 1.0
C      1  0.4180630000000  0.4400940000000  0.4219740000000 1.0
C      1  0.5889130000000  0.4879950000000  0.5434790000000 1.0
C      1  0.3943670000000  0.4492550000000  0.5504760000000 1.0
C      1  0.5626460000000  0.5260730000000  0.4029720000000 1.0
C      1  0.5650570000000  0.5386110000000  0.5864970000000 1.0
C      1  0.5122750000000  0.5322970000000  0.4487760000000 1.0
C      1  0.5227700000000  0.5877170000000  0.4694200000000 1.0
C      1  0.4853950000000  0.4512030000000  0.4789060000000 1.0
C      1  0.5765680000000  0.4560310000000  0.4190280000000 1.0
C      1  0.4906440000000  0.4692130000000  0.5200510000000 1.0
C      1  0.5109370000000  0.4373430000000  0.4753740000000 1.0
C      1  0.5064540000000  0.5573580000000  0.4350960000000 1.0
C      1  0.5303260000000  0.5781390000000  0.5695680000000 1.0
C      1  0.4679030000000  0.5030740000000  0.5701060000000 1.0
C      1  0.4226790000000  0.5431990000000  0.4449620000000 1.0
C      1  0.4502270000000  0.5968320000000  0.4956070000000 1.0
C      1  0.5761890000000  0.5136360000000  0.5841430000000 1.0
C      1  0.4377490000000  0.5105610000000  0.5158140000000 1.0
C      1  0.4791280000000  0.4683430000000  0.4532800000000 1.0
C      1  0.4834720000000  0.5440130000000  0.5217320000000 1.0
C      1  0.5222470000000  0.4915890000000  0.5834120000000 1.0
C      1  0.4668520000000  0.4483690000000  0.4328870000000 1.0
C      1  0.4128620000000  0.5442050000000  0.4719860000000 1.0
C      1  0.6105690000000  0.4627900000000  0.4519190000000 1.0
C      1  0.4820340000000  0.5553550000000  0.4769150000000 1.0
C      1  0.4482190000000  0.4021750000000  0.5118640000000 1.0
C      1  0.6106580000000  0.5079520000000  0.5032150000000 1.0
C      1  0.5108530000000  0.4265980000000  0.4480740000000 1.0
C      1  0.4197360000000  0.5254510000000  0.4224620000000 1.0
C      1  0.5058050000000  0.4065480000000  0.5653160000000 1.0
C      1  0.4191710000000  0.5026800000000  0.4938520000000 1.0
C      1  0.4176610000000  0.5292270000000  0.5621440000000 1.0
C      1  0.5683850000000  0.5052190000000  0.5341940000000 1.0
C      1  0.5737030000000  0.5250470000000  0.4289510000000 1.0
C      1  0.4178260000000  0.5627290000000  0.4927370000000 1.0
C      1  0.4791170000000  0.5983330000000  0.4495400000000 1.0
C      1  0.5835110000000  0.5001390000000  0.4390290000000 1.0
C      1  0.5695450000000  0.5519970000000  0.5206140000000 1.0
C      1  0.5350800000000  0.5789140000000  0.5413010000000 1.0
C      1  0.5933450000000  0.5802920000000  0.4769000000000 1.0
C      1  0.5246290000000  0.5270260000000  0.4740780000000 1.0
C      1  0.5130550000000  0.5049590000000  0.4905060000000 1.0
C      1  0.5400740000000  0.5251990000000  0.3882840000000 1.0
C      1  0.5152790000000  0.5840130000000  0.4975410000000 1.0
C      1  0.4149960000000  0.4521030000000  0.5694270000000 1.0
C      1  0.4598720000000  0.5288480000000  0.5081480000000 1.0
C      1  0.5646990000000  0.5438720000000  0.4492040000000 1.0
C      1  0.4639290000000  0.6026780000000  0.4732080000000 1.0
C      1  0.4717750000000  0.6105300000000  0.4261520000000 1.0
C      1  0.3933650000000  0.5148500000000  0.4201660000000 1.0
C      1  0.5065910000000  0.5547580000000  0.4065850000000 1.0
C      1  0.4359300000000  0.5506520000000  0.5582890000000 1.0
C      1  0.4904180000000  0.4552270000000  0.6024080000000 1.0
C      1  0.4872090000000  0.3893580000000  0.4817200000000 1.0
C      1  0.5492330000000  0.5887470000000  0.4601990000000 1.0
C      1  0.4614860000000  0.4304410000000  0.5697030000000 1.0
C      1  0.4275220000000  0.4344280000000  0.4837460000000 1.0
C      1  0.5721420000000  0.5370190000000  0.4965030000000 1.0
C      1  0.5173290000000  0.4204540000000  0.5877630000000 1.0
C      1  0.4961670000000  0.5070290000000  0.4067630000000 1.0
C      1  0.4809270000000  0.4216140000000  0.4436490000000 1.0
C      1  0.4755640000000  0.5753540000000  0.5722090000000 1.0
C      1  0.4011650000000  0.5193280000000  0.4805520000000 1.0
C      1  0.4884430000000  0.5220440000000  0.6082460000000 1.0
C      1  0.4429130000000  0.4849800000000  0.5288820000000 1.0
C      1  0.5667560000000  0.5716990000000  0.4489760000000 1.0
C      1  0.5285910000000  0.5305900000000  0.5308340000000 1.0
C      1  0.6004650000000  0.5318430000000  0.4911620000000 1.0
C      1  0.4394390000000  0.5729060000000  0.5382670000000 1.0
C      1  0.4606450000000  0.5888730000000  0.5511240000000 1.0
C      1  0.4676580000000  0.5257320000000  0.5883460000000 1.0
C      1  0.5345960000000  0.4916750000000  0.5039390000000 1.0
C      1  0.4593140000000  0.5508640000000  0.5771010000000 1.0
C      1  0.4719770000000  0.4963080000000  0.4608230000000 1.0
C      1  0.4895920000000  0.5035580000000  0.5510010000000 1.0
C      1  0.4730730000000  0.4598760000000  0.4052990000000 1.0
C      1  0.4508880000000  0.4676540000000  0.3893710000000 1.0
C      1  0.4260670000000  0.4781980000000  0.5750000000000 1.0
C      1  0.6092070000000  0.5574560000000  0.4805560000000 1.0
C      1  0.4401550000000  0.5126630000000  0.4069930000000 1.0
C      1  0.5099560000000  0.5086670000000  0.4337440000000 1.0
C      1  0.4330060000000  0.4296960000000  0.5708540000000 1.0
C      1  0.5336000000000  0.4640620000000  0.5093340000000 1.0
C      1  0.5911670000000  0.5620960000000  0.5341390000000 1.0
C      1  0.4720580000000  0.3999130000000  0.5281970000000 1.0
C      1  0.5302420000000  0.4393100000000  0.4306650000000 1.0
C      1  0.5626290000000  0.4654170000000  0.5807970000000 1.0
C      1  0.3988610000000  0.4440210000000  0.5244510000000 1.0
C      1  0.5332020000000  0.5949440000000  0.5175560000000 1.0
C      1  0.5594910000000  0.4395540000000  0.4361020000000 1.0
C      1  0.5388740000000  0.3980570000000  0.5259650000000 1.0
C      1  0.5436780000000  0.4830680000000  0.4590880000000 1.0
C      1  0.5579190000000  0.6054330000000  0.5073730000000 1.0
C      1  0.4880890000000  0.4927490000000  0.5022380000000 1.0
C      1  0.4451870000000  0.4118540000000  0.4840280000000 1.0
C      1  0.3758790000000  0.5077670000000  0.4394730000000 1.0
C      1  0.3788820000000  0.5097600000000  0.4662270000000 1.0
C      1  0.5953880000000  0.4750450000000  0.4304680000000 1.0
C      1  0.5434820000000  0.5080240000000  0.5243260000000 1.0
C      1  0.5420440000000  0.4156930000000  0.5059900000000 1.0
C      1  0.5757000000000  0.5974890000000  0.4880610000000 1.0
C      1  0.5728300000000  0.4355070000000  0.4620310000000 1.0
C      1  0.4548570000000  0.4788790000000  0.5774640000000 1.0
C      1  0.4906350000000  0.3884380000000  0.5089880000000 1.0
C      1  0.4370440000000  0.4494420000000  0.4393060000000 1.0
C      1  0.4698320000000  0.4549750000000  0.5832240000000 1.0
C      1  0.5124280000000  0.5295740000000  0.3931040000000 1.0
C      1  0.5013990000000  0.5305550000000  0.5434380000000 1.0
C      1  0.5201500000000  0.4643770000000  0.4200610000000 1.0
C      1  0.5161950000000  0.4639270000000  0.5349700000000 1.0
C      1  0.5243210000000  0.3935570000000  0.5481100000000 1.0
C      1  0.5328720000000  0.4440570000000  0.5496650000000 1.0
C      1  0.4685070000000  0.4057740000000  0.4664850000000 1.0
C      1  0.5021950000000  0.5812880000000  0.4502230000000 1.0
C      1  0.4857460000000  0.5227610000000  0.6352000000000 1.0
C      1  0.5110560000000  0.5373830000000  0.5719700000000 1.0
C      1  0.5809740000000  0.4868630000000  0.5725320000000 1.0
C      1  0.5175020000000  0.4467680000000  0.5992250000000 1.0
C      1  0.4346390000000  0.4892130000000  0.3917960000000 1.0
C      1  0.5252400000000  0.4856180000000  0.4387830000000 1.0
C      1  0.5995610000000  0.4603640000000  0.5000830000000 1.0
C      1  0.4678610000000  0.5172410000000  0.4085610000000 1.0
C      1  0.5440740000000  0.5537890000000  0.5316690000000 1.0
C      1  0.4343300000000  0.5779580000000  0.5100660000000 1.0
C      1  0.5531800000000  0.5347360000000  0.4748380000000 1.0
C      1  0.5364370000000  0.4691780000000  0.5942840000000 1.0
C      1  0.5314520000000  0.4393450000000  0.4947940000000 1.0
C      1  0.4947140000000  0.5638930000000  0.5018310000000 1.0
C      1  0.5572950000000  0.4448510000000  0.5616350000000 1.0
C      1  0.4462710000000  0.4578360000000  0.5191230000000 1.0
END
