TITL C-599897-7526-972 -0.000441666513243691 125000 -728.280777379627 0 0 119 (C1) n - 1
REM
REM in /home/nfs/bkarasulu/CARBON/AIRSS/Generating-Clusters/TERSOFF/Only-C1/FIRE-HFTN
REM
REM
REM
REM
REM
REM ./C.cell (11c1c37f851c82e70ff6c80c92926a4b)
REM AIRSS Version 0.9.1 bugfix July 2018 build 013d7b7c2542+ Fri, 06 Jul 2018 19:26:36 +0100
REM compiler GCC version 9.2.1 20190827 (Red Hat 9.2.1-1)
REM options -cpp -mtune=generic -march=x86-64 -g -O0 -fpre-include=/usr/include/finclude/math-vector-fortran.h
REM seed 649442309 744851200 -1540763852 -1072116469 1392992493 1586218703 -1879888191 1725331994 -992655104 969049612 1704710497 988293401 -1864832970 2087399375 1090185532 -1201916615 2043767234 1595822176 1443379434 106870741 1187829057 -1409415133 1471041707 365484763 -29351348 1580849251 -79558248 1303223387 -2087630205 442447657 -467393318 1507251510 720966655
REM
CELL 1.54180   50.00000   50.00000   50.00000   90.00000   90.00000   90.00000
LATT -1
SFAC C  
C      1  0.5792700000000  0.5731650000000  0.5218050000000 1.0
C      1  0.4340470000000  0.5603440000000  0.4350280000000 1.0
C      1  0.4570970000000  0.4413730000000  0.5089300000000 1.0
C      1  0.5691980000000  0.5780220000000  0.5465010000000 1.0
C      1  0.4569170000000  0.4390520000000  0.5637720000000 1.0
C      1  0.5041720000000  0.5590610000000  0.5400450000000 1.0
C      1  0.5368760000000  0.5270430000000  0.5186150000000 1.0
C      1  0.5536090000000  0.5870720000000  0.5686750000000 1.0
C      1  0.5218430000000  0.4721460000000  0.4001230000000 1.0
C      1  0.4559790000000  0.4963200000000  0.5872150000000 1.0
C      1  0.4579400000000  0.4669800000000  0.5232520000000 1.0
C      1  0.4802890000000  0.4368040000000  0.3696550000000 1.0
C      1  0.5759480000000  0.5050940000000  0.5409410000000 1.0
C      1  0.5972820000000  0.5157410000000  0.4131350000000 1.0
C      1  0.5197280000000  0.3881320000000  0.5648590000000 1.0
C      1  0.5964800000000  0.5014110000000  0.5205100000000 1.0
C      1  0.5481140000000  0.5268670000000  0.4903570000000 1.0
C      1  0.5366200000000  0.4275510000000  0.4167540000000 1.0
C      1  0.4833610000000  0.4379660000000  0.4975010000000 1.0
C      1  0.5828930000000  0.4594430000000  0.5376780000000 1.0
C      1  0.4566100000000  0.5719010000000  0.5432790000000 1.0
C      1  0.4769200000000  0.5411380000000  0.6046750000000 1.0
C      1  0.5161700000000  0.4119260000000  0.4315930000000 1.0
C      1  0.4540400000000  0.4647350000000  0.5517360000000 1.0
C      1  0.4958380000000  0.4093960000000  0.4107900000000 1.0
C      1  0.5680400000000  0.4368600000000  0.5791370000000 1.0
C      1  0.5107940000000  0.5586000000000  0.4199600000000 1.0
C      1  0.5455200000000  0.4446770000000  0.5915140000000 1.0
C      1  0.5216390000000  0.4993660000000  0.5207050000000 1.0
C      1  0.4702040000000  0.4829510000000  0.3915130000000 1.0
C      1  0.4093750000000  0.4443760000000  0.5213570000000 1.0
C      1  0.4561700000000  0.5219410000000  0.5997730000000 1.0
C      1  0.5427610000000  0.5502810000000  0.6011840000000 1.0
C      1  0.4198730000000  0.5704230000000  0.4816730000000 1.0
C      1  0.4407670000000  0.4979830000000  0.4288390000000 1.0
C      1  0.4810120000000  0.5459700000000  0.4767850000000 1.0
C      1  0.4837250000000  0.4862230000000  0.5839150000000 1.0
C      1  0.5773230000000  0.5361710000000  0.4849200000000 1.0
C      1  0.4561130000000  0.5047540000000  0.4056160000000 1.0
C      1  0.4026190000000  0.5204160000000  0.4873020000000 1.0
C      1  0.5568790000000  0.6134130000000  0.5761180000000 1.0
C      1  0.4307130000000  0.5152120000000  0.5285150000000 1.0
C      1  0.5411530000000  0.4929680000000  0.4039240000000 1.0
C      1  0.4748810000000  0.5667910000000  0.4567980000000 1.0
C      1  0.5244770000000  0.4440080000000  0.3959360000000 1.0
C      1  0.4603910000000  0.5734660000000  0.5710440000000 1.0
C      1  0.5492360000000  0.5186720000000  0.4143300000000 1.0
C      1  0.4823540000000  0.5635750000000  0.5002460000000 1.0
C      1  0.5183710000000  0.5748990000000  0.4433380000000 1.0
C      1  0.4945210000000  0.4788650000000  0.4103140000000 1.0
C      1  0.4398030000000  0.4858450000000  0.5657780000000 1.0
C      1  0.5793260000000  0.5316560000000  0.4544570000000 1.0
C      1  0.4443830000000  0.4940680000000  0.4554710000000 1.0
C      1  0.4620950000000  0.5624640000000  0.4324610000000 1.0
C      1  0.4743760000000  0.4210640000000  0.3481140000000 1.0
C      1  0.5209860000000  0.4550570000000  0.5943740000000 1.0
C      1  0.5840380000000  0.4396980000000  0.5574960000000 1.0
C      1  0.4032060000000  0.5312890000000  0.4622350000000 1.0
C      1  0.3869560000000  0.4331380000000  0.5089960000000 1.0
C      1  0.4850670000000  0.4113140000000  0.5920830000000 1.0
C      1  0.5859740000000  0.4669280000000  0.4886750000000 1.0
C      1  0.4680980000000  0.4913980000000  0.5073510000000 1.0
C      1  0.4980670000000  0.4856370000000  0.5088800000000 1.0
C      1  0.5639780000000  0.4719670000000  0.4739790000000 1.0
C      1  0.5381600000000  0.4629470000000  0.4678200000000 1.0
C      1  0.4831970000000  0.4584300000000  0.4289410000000 1.0
C      1  0.5583610000000  0.5265240000000  0.5395350000000 1.0
C      1  0.3661740000000  0.4226360000000  0.4972930000000 1.0
C      1  0.4557270000000  0.4930760000000  0.4799490000000 1.0
C      1  0.5252130000000  0.4512370000000  0.5265190000000 1.0
C      1  0.5627490000000  0.4797190000000  0.5440310000000 1.0
C      1  0.4936090000000  0.4599420000000  0.5890510000000 1.0
C      1  0.5015450000000  0.3917980000000  0.5841280000000 1.0
C      1  0.5747990000000  0.5221500000000  0.4278030000000 1.0
C      1  0.4804460000000  0.5652590000000  0.5890590000000 1.0
C      1  0.4780670000000  0.5230090000000  0.4126390000000 1.0
C      1  0.5349060000000  0.5715370000000  0.5841250000000 1.0
C      1  0.5277560000000  0.5776970000000  0.5021210000000 1.0
C      1  0.4915890000000  0.4571060000000  0.4553310000000 1.0
C      1  0.4168570000000  0.5558090000000  0.4571510000000 1.0
C      1  0.5257290000000  0.5558770000000  0.5221250000000 1.0
C      1  0.4207410000000  0.5596740000000  0.5081530000000 1.0
C      1  0.4791660000000  0.5642930000000  0.5281280000000 1.0
C      1  0.5024140000000  0.4561170000000  0.5102590000000 1.0
C      1  0.5381500000000  0.5631230000000  0.4601790000000 1.0
C      1  0.4769780000000  0.4368110000000  0.5835920000000 1.0
C      1  0.5332360000000  0.4254490000000  0.5328570000000 1.0
C      1  0.5039480000000  0.5030090000000  0.4533750000000 1.0
C      1  0.4791830000000  0.5177040000000  0.5460150000000 1.0
C      1  0.4158530000000  0.5311700000000  0.5102150000000 1.0
C      1  0.5021200000000  0.5840860000000  0.4900660000000 1.0
C      1  0.5363220000000  0.4340760000000  0.4687610000000 1.0
C      1  0.4906410000000  0.4327490000000  0.4704370000000 1.0
C      1  0.5032110000000  0.5271860000000  0.4687230000000 1.0
C      1  0.4343650000000  0.4288240000000  0.5222940000000 1.0
C      1  0.5266430000000  0.5350560000000  0.6166650000000 1.0
C      1  0.5126910000000  0.4763910000000  0.4614610000000 1.0
C      1  0.4423620000000  0.4196770000000  0.5485850000000 1.0
C      1  0.4823850000000  0.5505110000000  0.4158130000000 1.0
C      1  0.4321450000000  0.5730780000000  0.5298620000000 1.0
C      1  0.5367920000000  0.4767760000000  0.5336840000000 1.0
C      1  0.4995860000000  0.4286310000000  0.3888770000000 1.0
C      1  0.4203610000000  0.4938980000000  0.5452920000000 1.0
C      1  0.5742290000000  0.5654900000000  0.4946020000000 1.0
C      1  0.4973310000000  0.5852820000000  0.4604600000000 1.0
C      1  0.4673850000000  0.4618530000000  0.3733630000000 1.0
C      1  0.4998970000000  0.5328930000000  0.6192170000000 1.0
C      1  0.4960800000000  0.5048340000000  0.4260320000000 1.0
C      1  0.4942290000000  0.5042540000000  0.5642470000000 1.0
C      1  0.5315890000000  0.5409490000000  0.4108020000000 1.0
C      1  0.5312160000000  0.4018970000000  0.5450840000000 1.0
C      1  0.4074920000000  0.4710090000000  0.5327420000000 1.0
C      1  0.5976210000000  0.5209450000000  0.5003190000000 1.0
C      1  0.4597050000000  0.5136070000000  0.5257600000000 1.0
C      1  0.5066880000000  0.5764670000000  0.5857440000000 1.0
C      1  0.5498860000000  0.5765550000000  0.4834470000000 1.0
C      1  0.5140160000000  0.4184230000000  0.4594230000000 1.0
C      1  0.5959430000000  0.4723620000000  0.5145890000000 1.0
C      1  0.5300060000000  0.5370690000000  0.4707220000000 1.0
END
