TITL C-599894-471-869 13.2657918698224 125000 -429.042594117318 0 0 74 (C1) n - 1
REM
REM in /home/nfs/bkarasulu/CARBON/AIRSS/Generating-Clusters/TERSOFF/Only-C1/FIRE-HFTN
REM
REM
REM
REM
REM
REM ./C.cell (11c1c37f851c82e70ff6c80c92926a4b)
REM AIRSS Version 0.9.1 bugfix July 2018 build 013d7b7c2542+ Fri, 06 Jul 2018 19:26:36 +0100
REM compiler GCC version 9.2.1 20190827 (Red Hat 9.2.1-1)
REM options -cpp -mtune=generic -march=x86-64 -g -O0 -fpre-include=/usr/include/finclude/math-vector-fortran.h
REM seed -1306647024 -1864975107 149960416 1074692450 -246982980 1514905723 -766694407 -1923251730 -1592877291 -145571057 -1260268955 1991564974 159987422 392339209 -782041172 -632417468 1064418571 500693814 1257028632 -426866869 837820120 426542563 1376815594 -1102097442 -967828571 468749388 -460898109 887805300 -1144594733 -1639541873 -1080041409 1204690055 112021915
REM
CELL 1.54180   50.00000   50.00000   50.00000   90.00000   90.00000   90.00000
LATT -1
SFAC C  
C      1  0.5204340000000  0.5753290000000  0.4947070000000 1.0
C      1  0.4511210000000  0.5518730000000  0.5038910000000 1.0
C      1  0.5572810000000  0.4765900000000  0.5240040000000 1.0
C      1  0.4319500000000  0.4849490000000  0.4885690000000 1.0
C      1  0.5183960000000  0.5443480000000  0.4061820000000 1.0
C      1  0.4865390000000  0.4654970000000  0.5817720000000 1.0
C      1  0.4604500000000  0.4820820000000  0.4896770000000 1.0
C      1  0.4721750000000  0.5238470000000  0.4498540000000 1.0
C      1  0.4438570000000  0.4638810000000  0.3874170000000 1.0
C      1  0.4563110000000  0.5772060000000  0.5110860000000 1.0
C      1  0.5608920000000  0.4689460000000  0.5534700000000 1.0
C      1  0.4754670000000  0.4972220000000  0.4379710000000 1.0
C      1  0.5491520000000  0.5798810000000  0.5041360000000 1.0
C      1  0.5912460000000  0.4960060000000  0.5858680000000 1.0
C      1  0.5491420000000  0.5042270000000  0.5292100000000 1.0
C      1  0.4660380000000  0.4713930000000  0.4304380000000 1.0
C      1  0.4836530000000  0.5102670000000  0.5636220000000 1.0
C      1  0.5439310000000  0.4920240000000  0.4209980000000 1.0
C      1  0.5659040000000  0.5469960000000  0.5432400000000 1.0
C      1  0.4265830000000  0.5076330000000  0.4716560000000 1.0
C      1  0.4975820000000  0.5409460000000  0.4517380000000 1.0
C      1  0.6145600000000  0.5351240000000  0.4847870000000 1.0
C      1  0.5401920000000  0.4391950000000  0.4982090000000 1.0
C      1  0.5336460000000  0.4191700000000  0.5146900000000 1.0
C      1  0.5674700000000  0.5946700000000  0.4904130000000 1.0
C      1  0.5384650000000  0.4734250000000  0.4027630000000 1.0
C      1  0.5347910000000  0.5062830000000  0.4673020000000 1.0
C      1  0.4619120000000  0.5274080000000  0.5028080000000 1.0
C      1  0.5252410000000  0.4858470000000  0.4860190000000 1.0
C      1  0.5033750000000  0.5011650000000  0.4987480000000 1.0
C      1  0.4217680000000  0.4638480000000  0.3735880000000 1.0
C      1  0.5885780000000  0.5371010000000  0.4854010000000 1.0
C      1  0.5524320000000  0.5701850000000  0.5321720000000 1.0
C      1  0.4918510000000  0.4573620000000  0.3915980000000 1.0
C      1  0.4234880000000  0.4630950000000  0.5057100000000 1.0
C      1  0.5333010000000  0.5325020000000  0.4843220000000 1.0
C      1  0.5024940000000  0.4252850000000  0.5559070000000 1.0
C      1  0.5094250000000  0.4489040000000  0.5714370000000 1.0
C      1  0.5621760000000  0.5386130000000  0.4874930000000 1.0
C      1  0.5197250000000  0.5549430000000  0.3824120000000 1.0
C      1  0.4762140000000  0.4164370000000  0.5511860000000 1.0
C      1  0.5218850000000  0.4148100000000  0.5382690000000 1.0
C      1  0.4799190000000  0.4901690000000  0.5433410000000 1.0
C      1  0.4443570000000  0.5248190000000  0.4589130000000 1.0
C      1  0.4420730000000  0.4388320000000  0.4677860000000 1.0
C      1  0.4561860000000  0.4122580000000  0.5340230000000 1.0
C      1  0.5427950000000  0.4670410000000  0.5004670000000 1.0
C      1  0.4791720000000  0.5875340000000  0.5212050000000 1.0
C      1  0.5004230000000  0.5428700000000  0.5282340000000 1.0
C      1  0.5238950000000  0.4990740000000  0.5403230000000 1.0
C      1  0.5377150000000  0.4576180000000  0.5680440000000 1.0
C      1  0.4324130000000  0.4376840000000  0.4945720000000 1.0
C      1  0.5668250000000  0.5183210000000  0.5468330000000 1.0
C      1  0.5748450000000  0.4951840000000  0.5643430000000 1.0
C      1  0.4364350000000  0.4747920000000  0.5590030000000 1.0
C      1  0.5267620000000  0.5786400000000  0.5429920000000 1.0
C      1  0.4560640000000  0.5451870000000  0.5571780000000 1.0
C      1  0.4356590000000  0.5282570000000  0.5635780000000 1.0
C      1  0.5046470000000  0.5729500000000  0.5225220000000 1.0
C      1  0.5041750000000  0.4809310000000  0.5364040000000 1.0
C      1  0.5333650000000  0.5100870000000  0.4393510000000 1.0
C      1  0.4302390000000  0.5018950000000  0.5659300000000 1.0
C      1  0.5167980000000  0.5320540000000  0.4310690000000 1.0
C      1  0.4411060000000  0.4181170000000  0.5127700000000 1.0
C      1  0.4583060000000  0.4614140000000  0.5733080000000 1.0
C      1  0.4547110000000  0.4523840000000  0.4482510000000 1.0
C      1  0.5147010000000  0.5260710000000  0.5084570000000 1.0
C      1  0.4671190000000  0.4640440000000  0.4028130000000 1.0
C      1  0.4828660000000  0.5362760000000  0.5515470000000 1.0
C      1  0.4250350000000  0.4659690000000  0.5342130000000 1.0
C      1  0.5182840000000  0.4603080000000  0.3913640000000 1.0
C      1  0.4908480000000  0.4941370000000  0.5863890000000 1.0
C      1  0.4758970000000  0.5034150000000  0.4970020000000 1.0
C      1  0.5152760000000  0.5551570000000  0.4730370000000 1.0
END
