TITL C-599897-7526-1285 195.684264996206 125000 -1056.72212878645 0 0 171 (C1) n - 1
REM
REM in /home/nfs/bkarasulu/CARBON/AIRSS/Generating-Clusters/TERSOFF/Only-C1/FIRE-HFTN
REM
REM
REM
REM
REM
REM ./C.cell (11c1c37f851c82e70ff6c80c92926a4b)
REM AIRSS Version 0.9.1 bugfix July 2018 build 013d7b7c2542+ Fri, 06 Jul 2018 19:26:36 +0100
REM compiler GCC version 9.2.1 20190827 (Red Hat 9.2.1-1)
REM options -cpp -mtune=generic -march=x86-64 -g -O0 -fpre-include=/usr/include/finclude/math-vector-fortran.h
REM seed -424301250 -1970865844 -1456793084 1825248798 1783969819 2104862639 2140266949 167614665 1676980866 -956838422 1039099275 -617376406 1940583155 1785170194 -1174705989 1951396282 1754505304 -973106906 -422764117 -1303682772 1254926984 -1034916600 -359767109 199861464 -967211830 -918372046 1982951675 850024396 1553831706 775562908 -1308547323 -1545878228 -1943825349
REM
CELL 1.54180   50.00000   50.00000   50.00000   90.00000   90.00000   90.00000
LATT -1
SFAC C  
C      1  0.4633650000000  0.5590910000000  0.4119170000000 1.0
C      1  0.4482180000000  0.4905560000000  0.5379190000000 1.0
C      1  0.4741570000000  0.3771640000000  0.4734480000000 1.0
C      1  0.5023130000000  0.5315060000000  0.4009030000000 1.0
C      1  0.5697330000000  0.4377610000000  0.5739700000000 1.0
C      1  0.4171130000000  0.5857260000000  0.5415910000000 1.0
C      1  0.4105590000000  0.4843900000000  0.5814070000000 1.0
C      1  0.4659710000000  0.5548390000000  0.4842970000000 1.0
C      1  0.4953100000000  0.3945890000000  0.5099100000000 1.0
C      1  0.5145410000000  0.4430130000000  0.4695150000000 1.0
C      1  0.4503770000000  0.3960820000000  0.5507300000000 1.0
C      1  0.4067660000000  0.4672770000000  0.5153810000000 1.0
C      1  0.4330320000000  0.4673710000000  0.4228110000000 1.0
C      1  0.4530950000000  0.4766710000000  0.4732330000000 1.0
C      1  0.6228960000000  0.5117050000000  0.5021240000000 1.0
C      1  0.5236440000000  0.4229450000000  0.5825490000000 1.0
C      1  0.4729020000000  0.4936600000000  0.5207300000000 1.0
C      1  0.5397460000000  0.5753030000000  0.4278540000000 1.0
C      1  0.5087290000000  0.6053700000000  0.5105790000000 1.0
C      1  0.5581210000000  0.4148030000000  0.4710110000000 1.0
C      1  0.4572850000000  0.4334990000000  0.5175930000000 1.0
C      1  0.4560930000000  0.4476130000000  0.5672890000000 1.0
C      1  0.6169780000000  0.4852950000000  0.4924990000000 1.0
C      1  0.5089180000000  0.5519650000000  0.5175270000000 1.0
C      1  0.4881860000000  0.5841170000000  0.5515350000000 1.0
C      1  0.5199520000000  0.5239100000000  0.5082630000000 1.0
C      1  0.4054240000000  0.4384690000000  0.5165840000000 1.0
C      1  0.5164960000000  0.5943570000000  0.4653530000000 1.0
C      1  0.5776360000000  0.5185940000000  0.4587300000000 1.0
C      1  0.4977750000000  0.5069970000000  0.4434810000000 1.0
C      1  0.5847610000000  0.5102000000000  0.5605100000000 1.0
C      1  0.4483090000000  0.5509450000000  0.5644590000000 1.0
C      1  0.4915180000000  0.4849100000000  0.4257330000000 1.0
C      1  0.5059780000000  0.4751020000000  0.5590690000000 1.0
C      1  0.5849440000000  0.4518140000000  0.4312170000000 1.0
C      1  0.4919760000000  0.5578310000000  0.4047970000000 1.0
C      1  0.4801110000000  0.4433290000000  0.4083080000000 1.0
C      1  0.5097220000000  0.4604900000000  0.5322290000000 1.0
C      1  0.4830160000000  0.5162350000000  0.4675220000000 1.0
C      1  0.4328960000000  0.5016740000000  0.5874150000000 1.0
C      1  0.4857470000000  0.6611400000000  0.4680150000000 1.0
C      1  0.4637630000000  0.5379540000000  0.4617170000000 1.0
C      1  0.5401590000000  0.5896430000000  0.5117630000000 1.0
C      1  0.5880890000000  0.5655520000000  0.5052110000000 1.0
C      1  0.4013560000000  0.4818030000000  0.4917750000000 1.0
C      1  0.5463910000000  0.3951800000000  0.5453500000000 1.0
C      1  0.4067390000000  0.4209660000000  0.5390120000000 1.0
C      1  0.4166670000000  0.5221600000000  0.4576920000000 1.0
C      1  0.5818860000000  0.5481430000000  0.5279900000000 1.0
C      1  0.4951710000000  0.4122470000000  0.5828310000000 1.0
C      1  0.4450400000000  0.4237850000000  0.4944240000000 1.0
C      1  0.5645610000000  0.5971860000000  0.4675500000000 1.0
C      1  0.5410600000000  0.5938970000000  0.4508970000000 1.0
C      1  0.4835970000000  0.5973490000000  0.5260060000000 1.0
C      1  0.4398000000000  0.4821600000000  0.3998280000000 1.0
C      1  0.3965210000000  0.5197370000000  0.5464650000000 1.0
C      1  0.4993160000000  0.5587120000000  0.5447980000000 1.0
C      1  0.5741980000000  0.4782390000000  0.4349440000000 1.0
C      1  0.4514890000000  0.3806540000000  0.5249120000000 1.0
C      1  0.5125090000000  0.4000840000000  0.4867980000000 1.0
C      1  0.4831940000000  0.4909340000000  0.3977410000000 1.0
C      1  0.5016670000000  0.4587300000000  0.4204800000000 1.0
C      1  0.5120890000000  0.4299040000000  0.5374200000000 1.0
C      1  0.5486640000000  0.4429150000000  0.5095760000000 1.0
C      1  0.4467590000000  0.5346880000000  0.4169270000000 1.0
C      1  0.5149970000000  0.5240990000000  0.4268810000000 1.0
C      1  0.5012790000000  0.4039250000000  0.4341580000000 1.0
C      1  0.5459020000000  0.4414430000000  0.5902030000000 1.0
C      1  0.5090040000000  0.5680090000000  0.4718460000000 1.0
C      1  0.5771630000000  0.5359100000000  0.6019280000000 1.0
C      1  0.5466070000000  0.5669290000000  0.6297470000000 1.0
C      1  0.5326410000000  0.4233840000000  0.4843340000000 1.0
C      1  0.5889450000000  0.5905980000000  0.4548430000000 1.0
C      1  0.6055120000000  0.5557720000000  0.4838260000000 1.0
C      1  0.4030850000000  0.4932880000000  0.5544870000000 1.0
C      1  0.4132410000000  0.4562570000000  0.5863900000000 1.0
C      1  0.4755830000000  0.5853420000000  0.5775040000000 1.0
C      1  0.3963260000000  0.5081540000000  0.4434320000000 1.0
C      1  0.4295450000000  0.4395090000000  0.4241280000000 1.0
C      1  0.6205430000000  0.5191690000000  0.5290780000000 1.0
C      1  0.5269890000000  0.4121400000000  0.4232280000000 1.0
C      1  0.4117960000000  0.5994500000000  0.5186960000000 1.0
C      1  0.4392880000000  0.5114180000000  0.4013400000000 1.0
C      1  0.5307210000000  0.4167060000000  0.5550760000000 1.0
C      1  0.4964970000000  0.5576940000000  0.6362980000000 1.0
C      1  0.5070410000000  0.6142490000000  0.4833340000000 1.0
C      1  0.4165750000000  0.4276770000000  0.4930940000000 1.0
C      1  0.5542110000000  0.5431060000000  0.5303330000000 1.0
C      1  0.5416260000000  0.4341660000000  0.4110380000000 1.0
C      1  0.4323460000000  0.4298570000000  0.4504640000000 1.0
C      1  0.4408720000000  0.5327680000000  0.4453390000000 1.0
C      1  0.4934150000000  0.4091920000000  0.5337490000000 1.0
C      1  0.4647310000000  0.4700720000000  0.3912130000000 1.0
C      1  0.5561450000000  0.5502400000000  0.4284300000000 1.0
C      1  0.4923290000000  0.5610310000000  0.4933840000000 1.0
C      1  0.4151350000000  0.6036830000000  0.4921440000000 1.0
C      1  0.4975970000000  0.3916550000000  0.4612500000000 1.0
C      1  0.4576650000000  0.4264090000000  0.4676850000000 1.0
C      1  0.4266850000000  0.4137290000000  0.5584720000000 1.0
C      1  0.5694150000000  0.4291540000000  0.5239280000000 1.0
C      1  0.5505470000000  0.5054870000000  0.4017690000000 1.0
C      1  0.4887590000000  0.5113670000000  0.6241850000000 1.0
C      1  0.5601960000000  0.4905010000000  0.5988860000000 1.0
C      1  0.5140920000000  0.5752910000000  0.4129610000000 1.0
C      1  0.5785700000000  0.5444340000000  0.4456090000000 1.0
C      1  0.4579540000000  0.5860280000000  0.5153020000000 1.0
C      1  0.6238650000000  0.5332440000000  0.4829650000000 1.0
C      1  0.4126970000000  0.5391880000000  0.5335730000000 1.0
C      1  0.5466570000000  0.4672450000000  0.6020210000000 1.0
C      1  0.4912450000000  0.5204850000000  0.5691210000000 1.0
C      1  0.5733170000000  0.4887480000000  0.5458650000000 1.0
C      1  0.6333800000000  0.5253950000000  0.4570660000000 1.0
C      1  0.4785300000000  0.4035170000000  0.5586880000000 1.0
C      1  0.5981020000000  0.5292310000000  0.5429430000000 1.0
C      1  0.5429570000000  0.5261360000000  0.4200640000000 1.0
C      1  0.4990860000000  0.4947790000000  0.5781850000000 1.0
C      1  0.5411340000000  0.5167530000000  0.5267510000000 1.0
C      1  0.4238570000000  0.5394580000000  0.5067400000000 1.0
C      1  0.3886260000000  0.4821870000000  0.4464010000000 1.0
C      1  0.5082020000000  0.5415520000000  0.5648040000000 1.0
C      1  0.4459490000000  0.5002010000000  0.4868940000000 1.0
C      1  0.4564100000000  0.5450100000000  0.6100090000000 1.0
C      1  0.4618910000000  0.4452730000000  0.5411060000000 1.0
C      1  0.5792740000000  0.4395590000000  0.5486390000000 1.0
C      1  0.5697590000000  0.4354050000000  0.4143010000000 1.0
C      1  0.4375230000000  0.5228710000000  0.6061910000000 1.0
C      1  0.6202550000000  0.5079510000000  0.4405440000000 1.0
C      1  0.5318070000000  0.4858870000000  0.3929700000000 1.0
C      1  0.5651530000000  0.4010140000000  0.5265180000000 1.0
C      1  0.5480410000000  0.4777560000000  0.4460680000000 1.0
C      1  0.5366290000000  0.5641890000000  0.5216560000000 1.0
C      1  0.5754280000000  0.5119760000000  0.5875680000000 1.0
C      1  0.5959680000000  0.5635130000000  0.4575800000000 1.0
C      1  0.5248880000000  0.5461440000000  0.4656280000000 1.0
C      1  0.4491550000000  0.5035410000000  0.5634610000000 1.0
C      1  0.4526740000000  0.5823560000000  0.4250770000000 1.0
C      1  0.6043820000000  0.4732590000000  0.4700470000000 1.0
C      1  0.4445990000000  0.4764830000000  0.4468040000000 1.0
C      1  0.5570640000000  0.5137680000000  0.4771140000000 1.0
C      1  0.5267660000000  0.4589560000000  0.4057230000000 1.0
C      1  0.5029160000000  0.5066780000000  0.3864190000000 1.0
C      1  0.4968840000000  0.6388360000000  0.4756060000000 1.0
C      1  0.5210660000000  0.5678890000000  0.6371260000000 1.0
C      1  0.5502940000000  0.4901220000000  0.5298660000000 1.0
C      1  0.5317310000000  0.5244540000000  0.4818560000000 1.0
C      1  0.5835120000000  0.4245110000000  0.4698960000000 1.0
C      1  0.3971340000000  0.4659320000000  0.4680240000000 1.0
C      1  0.4254930000000  0.6012690000000  0.4673000000000 1.0
C      1  0.5643870000000  0.5899420000000  0.4959210000000 1.0
C      1  0.5961950000000  0.4468500000000  0.4580370000000 1.0
C      1  0.4096540000000  0.4391910000000  0.4676700000000 1.0
C      1  0.4206720000000  0.4813290000000  0.5348510000000 1.0
C      1  0.4967900000000  0.4927470000000  0.6063070000000 1.0
C      1  0.4580640000000  0.5649010000000  0.5881230000000 1.0
C      1  0.4795110000000  0.5382620000000  0.6256160000000 1.0
C      1  0.4799600000000  0.4165210000000  0.4183600000000 1.0
C      1  0.4455640000000  0.5613300000000  0.5028770000000 1.0
C      1  0.4251110000000  0.5594880000000  0.5497820000000 1.0
C      1  0.5372120000000  0.4662290000000  0.5207270000000 1.0
C      1  0.4708120000000  0.3799920000000  0.5028490000000 1.0
C      1  0.5667280000000  0.5552840000000  0.6168350000000 1.0
C      1  0.4199070000000  0.5133430000000  0.4870830000000 1.0
C      1  0.4762460000000  0.4636150000000  0.4856790000000 1.0
C      1  0.5944040000000  0.4953420000000  0.4494140000000 1.0
C      1  0.4641790000000  0.5266060000000  0.5627920000000 1.0
C      1  0.4720430000000  0.5088690000000  0.4955120000000 1.0
C      1  0.5285340000000  0.4654660000000  0.4595240000000 1.0
C      1  0.4315830000000  0.4365810000000  0.5766540000000 1.0
C      1  0.4390470000000  0.5946120000000  0.4449340000000 1.0
C      1  0.4878170000000  0.4699440000000  0.5124630000000 1.0
C      1  0.4847140000000  0.4406090000000  0.4707030000000 1.0
END
