TITL C-599892-9790-669 0.448021853928081 125000 -409.581527259601 0 0 69 (C1) n - 1
REM
REM in /home/nfs/bkarasulu/CARBON/AIRSS/Generating-Clusters/TERSOFF/Only-C1/FIRE-HFTN
REM
REM
REM
REM
REM
REM ./C.cell (11c1c37f851c82e70ff6c80c92926a4b)
REM AIRSS Version 0.9.1 bugfix July 2018 build 013d7b7c2542+ Fri, 06 Jul 2018 19:26:36 +0100
REM compiler GCC version 9.2.1 20190827 (Red Hat 9.2.1-1)
REM options -cpp -mtune=generic -march=x86-64 -g -O0 -fpre-include=/usr/include/finclude/math-vector-fortran.h
REM seed -593133408 -754474945 -547948198 10681416 -1547191504 1684263595 1567989508 -732309826 -420817596 -791450878 -572254681 -1890125684 1283100529 1090112348 1073400679 1681930963 624236622 -1139412501 -812150228 -1800156656 -858707349 1726981180 1213530400 -188694848 885472850 827017643 1150492365 -1182622110 -308538438 1782610416 1023295114 1044173327 -1259119563
REM
CELL 1.54180   50.00000   50.00000   50.00000   90.00000   90.00000   90.00000
LATT -1
SFAC C  
C      1  0.4295270000000  0.5217720000000  0.5296320000000 1.0
C      1  0.5045190000000  0.4936520000000  0.5400220000000 1.0
C      1  0.5048730000000  0.4409750000000  0.4070480000000 1.0
C      1  0.4416840000000  0.4718650000000  0.4759320000000 1.0
C      1  0.4842360000000  0.5184990000000  0.4335600000000 1.0
C      1  0.5234260000000  0.5073320000000  0.5797790000000 1.0
C      1  0.5095790000000  0.5533450000000  0.5678140000000 1.0
C      1  0.4724840000000  0.5771980000000  0.4801660000000 1.0
C      1  0.5545790000000  0.4478560000000  0.5376330000000 1.0
C      1  0.4594710000000  0.5032560000000  0.4386620000000 1.0
C      1  0.4512890000000  0.5223820000000  0.4885610000000 1.0
C      1  0.4842210000000  0.5474650000000  0.4396460000000 1.0
C      1  0.4644980000000  0.5308600000000  0.5604230000000 1.0
C      1  0.5403980000000  0.4767320000000  0.4075800000000 1.0
C      1  0.4752190000000  0.5200860000000  0.5071900000000 1.0
C      1  0.4328700000000  0.4804960000000  0.5021650000000 1.0
C      1  0.5597960000000  0.4344980000000  0.4654150000000 1.0
C      1  0.5264450000000  0.5065590000000  0.5507720000000 1.0
C      1  0.5196760000000  0.4648870000000  0.5071360000000 1.0
C      1  0.5628070000000  0.5099460000000  0.4658640000000 1.0
C      1  0.5052330000000  0.5681730000000  0.5166870000000 1.0
C      1  0.4549590000000  0.4767970000000  0.4503020000000 1.0
C      1  0.4323650000000  0.4973560000000  0.5485210000000 1.0
C      1  0.5278080000000  0.4537550000000  0.4022350000000 1.0
C      1  0.5445750000000  0.5456020000000  0.5016610000000 1.0
C      1  0.4794040000000  0.4441400000000  0.4932700000000 1.0
C      1  0.5446940000000  0.5456820000000  0.5308910000000 1.0
C      1  0.5006660000000  0.5649360000000  0.4253560000000 1.0
C      1  0.4814680000000  0.5506620000000  0.5702860000000 1.0
C      1  0.5159270000000  0.4346280000000  0.5754930000000 1.0
C      1  0.5784230000000  0.4590950000000  0.5422060000000 1.0
C      1  0.4489210000000  0.4991540000000  0.5959920000000 1.0
C      1  0.5613230000000  0.5324810000000  0.4832520000000 1.0
C      1  0.5065030000000  0.4605580000000  0.5605150000000 1.0
C      1  0.4364810000000  0.4737280000000  0.5312860000000 1.0
C      1  0.4085460000000  0.5416600000000  0.5356870000000 1.0
C      1  0.4463800000000  0.5383520000000  0.4661900000000 1.0
C      1  0.5868730000000  0.4844380000000  0.5442960000000 1.0
C      1  0.5748940000000  0.5083330000000  0.5436610000000 1.0
C      1  0.5141450000000  0.5044600000000  0.4811680000000 1.0
C      1  0.5129920000000  0.4135710000000  0.4705690000000 1.0
C      1  0.4839080000000  0.5821580000000  0.5044510000000 1.0
C      1  0.4297680000000  0.5093530000000  0.5021380000000 1.0
C      1  0.5205610000000  0.5605770000000  0.5416110000000 1.0
C      1  0.5005250000000  0.5269500000000  0.4916230000000 1.0
C      1  0.5388470000000  0.4178960000000  0.4653850000000 1.0
C      1  0.5174300000000  0.5806700000000  0.4130890000000 1.0
C      1  0.5571760000000  0.4841190000000  0.4773470000000 1.0
C      1  0.4488820000000  0.5083590000000  0.5703890000000 1.0
C      1  0.4905010000000  0.4669440000000  0.5050320000000 1.0
C      1  0.5496540000000  0.5201120000000  0.5418610000000 1.0
C      1  0.5314930000000  0.4833100000000  0.4891350000000 1.0
C      1  0.4540940000000  0.4547170000000  0.5424660000000 1.0
C      1  0.5355770000000  0.5003370000000  0.4220480000000 1.0
C      1  0.4855630000000  0.4919960000000  0.5193120000000 1.0
C      1  0.5553990000000  0.5118120000000  0.4385830000000 1.0
C      1  0.4667810000000  0.5574330000000  0.4604930000000 1.0
C      1  0.4900120000000  0.4229960000000  0.4805300000000 1.0
C      1  0.4779360000000  0.4532220000000  0.5547590000000 1.0
C      1  0.5085710000000  0.5079570000000  0.4244820000000 1.0
C      1  0.5286040000000  0.4553010000000  0.5319270000000 1.0
C      1  0.4813400000000  0.4421530000000  0.4194910000000 1.0
C      1  0.5683420000000  0.4594570000000  0.4701400000000 1.0
C      1  0.4386990000000  0.5221970000000  0.4441770000000 1.0
C      1  0.4640630000000  0.4548830000000  0.4352170000000 1.0
C      1  0.5228190000000  0.5350910000000  0.5860300000000 1.0
C      1  0.5126220000000  0.4812680000000  0.5847790000000 1.0
C      1  0.5164350000000  0.5496260000000  0.4968710000000 1.0
C      1  0.4602250000000  0.5318830000000  0.5321070000000 1.0
END
