TITL C-599894-471-364 199489.012390101 125000 -546.525385295583 0 0 94 (C1) n - 1
REM
REM in /home/nfs/bkarasulu/CARBON/AIRSS/Generating-Clusters/TERSOFF/Only-C1/FIRE-HFTN
REM
REM
REM
REM
REM
REM ./C.cell (11c1c37f851c82e70ff6c80c92926a4b)
REM AIRSS Version 0.9.1 bugfix July 2018 build 013d7b7c2542+ Fri, 06 Jul 2018 19:26:36 +0100
REM compiler GCC version 9.2.1 20190827 (Red Hat 9.2.1-1)
REM options -cpp -mtune=generic -march=x86-64 -g -O0 -fpre-include=/usr/include/finclude/math-vector-fortran.h
REM seed 215385389 1750482270 -1095168952 -841875841 1949280883 -1332235066 1683985510 -1943371370 22678063 1019989028 1825140680 173165794 -1313289819 -1636007155 -478883104 1657361104 1995402454 1513193803 799037242 -1402490320 -1308131583 -972048315 267158262 -525963183 -2005935582 -422554078 1498672180 1194465913 1429865015 -470052100 653723240 755718162 -1601214069
REM
CELL 1.54180   50.00000   50.00000   50.00000   90.00000   90.00000   90.00000
LATT -1
SFAC C  
C      1  0.3998510000000  0.5078540000000  0.5015850000000 1.0
C      1  0.4371910000000  0.5687640000000  0.4697970000000 1.0
C      1  0.4612630000000  0.5694510000000  0.4524350000000 1.0
C      1  0.5360820000000  0.5406150000000  0.4959600000000 1.0
C      1  0.4339310000000  0.4707360000000  0.4613740000000 1.0
C      1  0.5831520000000  0.5354470000000  0.5007580000000 1.0
C      1  0.4653200000000  0.5642130000000  0.5281510000000 1.0
C      1  0.5792850000000  0.4927840000000  0.4709380000000 1.0
C      1  0.5549390000000  0.5166560000000  0.5373290000000 1.0
C      1  0.5474870000000  0.5729950000000  0.4261870000000 1.0
C      1  0.4894020000000  0.5309570000000  0.4490040000000 1.0
C      1  0.5125670000000  0.4989920000000  0.4989310000000 1.0
C      1  0.5760700000000  0.6085990000000  0.4895340000000 1.0
C      1  0.4129660000000  0.4499170000000  0.5690950000000 1.0
C      1  0.4575390000000  0.4712930000000  0.4092800000000 1.0
C      1  0.4800110000000  0.5489400000000  0.5495760000000 1.0
C      1  0.4534360000000  0.4993700000000  0.4144000000000 1.0
C      1  0.4855450000000  0.5024890000000  0.5432470000000 1.0
C      1  0.5421180000000  0.4403200000000  0.5059230000000 1.0
C      1  0.5320670000000  0.5057540000000  0.4567660000000 1.0
C      1  0.5531700000000  0.5643070000000  0.5345480000000 1.0
C      1  0.5883270000000  0.5176840000000  0.4810760000000 1.0
C      1  0.5047530000000  0.4590080000000  0.5259120000000 1.0
C      1  0.5204910000000  0.4746110000000  0.5446360000000 1.0
C      1  0.4937370000000  0.5133870000000  0.5160880000000 1.0
C      1  0.4150810000000  0.4505880000000  0.5955090000000 1.0
C      1  0.5069800000000  0.4153020000000  0.5339510000000 1.0
C      1  0.4421810000000  0.5204300000000  0.5213630000000 1.0
C      1  0.4214930000000  0.4578230000000  0.5160030000000 1.0
C      1  0.5076810000000  0.4223450000000  0.4617870000000 1.0
C      1  0.5122170000000  0.4385780000000  0.4383990000000 1.0
C      1  0.4795260000000  0.4235740000000  0.4723880000000 1.0
C      1  0.4418000000000  0.4403160000000  0.5041760000000 1.0
C      1  0.5329820000000  0.4124360000000  0.4711800000000 1.0
C      1  0.5030660000000  0.5053810000000  0.4475160000000 1.0
C      1  0.5861910000000  0.4686680000000  0.4873420000000 1.0
C      1  0.5500000000000  0.4661610000000  0.5113550000000 1.0
C      1  0.4605140000000  0.5329430000000  0.5639980000000 1.0
C      1  0.4786060000000  0.5850790000000  0.5137650000000 1.0
C      1  0.4858350000000  0.4848790000000  0.4614330000000 1.0
C      1  0.4606200000000  0.4641190000000  0.3828170000000 1.0
C      1  0.4509220000000  0.5221510000000  0.4751880000000 1.0
C      1  0.5613400000000  0.4523640000000  0.5596710000000 1.0
C      1  0.5321380000000  0.4517090000000  0.5611840000000 1.0
C      1  0.5748740000000  0.4474450000000  0.4448060000000 1.0
C      1  0.4860660000000  0.4652350000000  0.5068030000000 1.0
C      1  0.5588440000000  0.5399580000000  0.5174510000000 1.0
C      1  0.4421150000000  0.5498240000000  0.5157810000000 1.0
C      1  0.4778550000000  0.4131130000000  0.5274520000000 1.0
C      1  0.5765960000000  0.4432940000000  0.4731530000000 1.0
C      1  0.5311390000000  0.5146530000000  0.4842810000000 1.0
C      1  0.4901160000000  0.5365830000000  0.4996070000000 1.0
C      1  0.5092860000000  0.5412200000000  0.5494160000000 1.0
C      1  0.4467660000000  0.5056010000000  0.4966320000000 1.0
C      1  0.4069640000000  0.5278360000000  0.4585470000000 1.0
C      1  0.5117730000000  0.5563920000000  0.4965800000000 1.0
C      1  0.5586170000000  0.5880000000000  0.4443730000000 1.0
C      1  0.5304930000000  0.4554650000000  0.4281600000000 1.0
C      1  0.4687930000000  0.5458470000000  0.4336600000000 1.0
C      1  0.4245580000000  0.5553210000000  0.4930810000000 1.0
C      1  0.5564030000000  0.4909070000000  0.4514680000000 1.0
C      1  0.5768960000000  0.4738360000000  0.5460410000000 1.0
C      1  0.4191060000000  0.4520940000000  0.6212220000000 1.0
C      1  0.4961860000000  0.5804350000000  0.4914050000000 1.0
C      1  0.5292090000000  0.5613520000000  0.5496750000000 1.0
C      1  0.4337280000000  0.5227760000000  0.4516440000000 1.0
C      1  0.4984210000000  0.4783680000000  0.4857040000000 1.0
C      1  0.4488480000000  0.5244690000000  0.4273830000000 1.0
C      1  0.4854550000000  0.4251150000000  0.5733400000000 1.0
C      1  0.5537780000000  0.4278890000000  0.4837220000000 1.0
C      1  0.5678480000000  0.5877350000000  0.5318040000000 1.0
C      1  0.5792420000000  0.6088130000000  0.5173500000000 1.0
C      1  0.4629600000000  0.4330170000000  0.4497340000000 1.0
C      1  0.4043560000000  0.5329850000000  0.4869610000000 1.0
C      1  0.5929080000000  0.6288450000000  0.5299000000000 1.0
C      1  0.4837670000000  0.5830280000000  0.4654020000000 1.0
C      1  0.5680020000000  0.4996210000000  0.5570380000000 1.0
C      1  0.5485890000000  0.4994300000000  0.5804890000000 1.0
C      1  0.4434110000000  0.5167250000000  0.5496180000000 1.0
C      1  0.4663470000000  0.4233240000000  0.5009150000000 1.0
C      1  0.4589570000000  0.4497690000000  0.4284830000000 1.0
C      1  0.4769740000000  0.5323530000000  0.4752530000000 1.0
C      1  0.5775600000000  0.4714290000000  0.5158700000000 1.0
C      1  0.4149560000000  0.4512670000000  0.5427100000000 1.0
C      1  0.5686710000000  0.6008010000000  0.4653030000000 1.0
C      1  0.5280660000000  0.5103200000000  0.5422040000000 1.0
C      1  0.5185020000000  0.4347570000000  0.5178840000000 1.0
C      1  0.4577190000000  0.4801720000000  0.4676360000000 1.0
C      1  0.5551750000000  0.4663550000000  0.4363720000000 1.0
C      1  0.4075930000000  0.4816770000000  0.5061930000000 1.0
C      1  0.4960930000000  0.5001090000000  0.5698590000000 1.0
C      1  0.5124490000000  0.4275980000000  0.5620440000000 1.0
C      1  0.4665010000000  0.4169680000000  0.5542910000000 1.0
C      1  0.5205970000000  0.4998810000000  0.5837450000000 1.0
END
