TITL C-599892-9790-1333 0.000221116723235888 125000 -601.816301474012 0 0 100 (C1) n - 1
REM
REM in /home/nfs/bkarasulu/CARBON/AIRSS/Generating-Clusters/TERSOFF/Only-C1/FIRE-HFTN
REM
REM
REM
REM
REM
REM ./C.cell (11c1c37f851c82e70ff6c80c92926a4b)
REM AIRSS Version 0.9.1 bugfix July 2018 build 013d7b7c2542+ Fri, 06 Jul 2018 19:26:36 +0100
REM compiler GCC version 9.2.1 20190827 (Red Hat 9.2.1-1)
REM options -cpp -mtune=generic -march=x86-64 -g -O0 -fpre-include=/usr/include/finclude/math-vector-fortran.h
REM seed -568605064 1625060847 1993869179 1199566635 788471475 1417497248 -382594411 1042458270 1120899587 901986198 -1304470698 -1179699643 131734323 660238010 731205771 1409359942 1462281156 -440493787 516035737 -1798995261 -2035394813 -1817258821 1783951102 -1404926453 1571136370 344778706 1398640420 -5543350 1602379262 1467182628 -1364106685 2122546391 -1753218104
REM
CELL 1.54180   50.00000   50.00000   50.00000   90.00000   90.00000   90.00000
LATT -1
SFAC C  
C      1  0.5281600000000  0.4487230000000  0.5034900000000 1.0
C      1  0.4841220000000  0.3985980000000  0.4902300000000 1.0
C      1  0.5530330000000  0.5465650000000  0.5429050000000 1.0
C      1  0.5353510000000  0.5962160000000  0.4755650000000 1.0
C      1  0.4985050000000  0.5311570000000  0.5473140000000 1.0
C      1  0.4812420000000  0.4930660000000  0.5345950000000 1.0
C      1  0.5261290000000  0.4008970000000  0.5323030000000 1.0
C      1  0.4181880000000  0.5038720000000  0.5396190000000 1.0
C      1  0.5989380000000  0.5187110000000  0.5040460000000 1.0
C      1  0.4892100000000  0.4271700000000  0.5517720000000 1.0
C      1  0.4448390000000  0.5883360000000  0.4677390000000 1.0
C      1  0.5860760000000  0.4393290000000  0.4664890000000 1.0
C      1  0.5077290000000  0.5543230000000  0.4198530000000 1.0
C      1  0.6195830000000  0.4813840000000  0.5542030000000 1.0
C      1  0.5533040000000  0.5010890000000  0.4870740000000 1.0
C      1  0.4583210000000  0.5389770000000  0.5681510000000 1.0
C      1  0.5399080000000  0.5264610000000  0.5267330000000 1.0
C      1  0.5308390000000  0.4600320000000  0.4293850000000 1.0
C      1  0.5582700000000  0.4996720000000  0.5856890000000 1.0
C      1  0.5092460000000  0.5706360000000  0.5635870000000 1.0
C      1  0.5806260000000  0.5407190000000  0.5449360000000 1.0
C      1  0.4075320000000  0.4746630000000  0.4954410000000 1.0
C      1  0.5026740000000  0.4587480000000  0.5023680000000 1.0
C      1  0.4148610000000  0.4834170000000  0.4482820000000 1.0
C      1  0.5729470000000  0.4823280000000  0.5687070000000 1.0
C      1  0.4362250000000  0.5644070000000  0.4547790000000 1.0
C      1  0.3907020000000  0.5349950000000  0.5073790000000 1.0
C      1  0.5820460000000  0.4670630000000  0.5038410000000 1.0
C      1  0.4676710000000  0.5104630000000  0.5151370000000 1.0
C      1  0.4991600000000  0.5400780000000  0.5001800000000 1.0
C      1  0.5436270000000  0.4545920000000  0.5260440000000 1.0
C      1  0.4969360000000  0.5693840000000  0.4620750000000 1.0
C      1  0.4938550000000  0.5053750000000  0.5566850000000 1.0
C      1  0.4417910000000  0.4632780000000  0.5214440000000 1.0
C      1  0.5112830000000  0.4025550000000  0.4838490000000 1.0
C      1  0.5636210000000  0.5015390000000  0.4319410000000 1.0
C      1  0.5204590000000  0.5850230000000  0.4546500000000 1.0
C      1  0.4388310000000  0.5104650000000  0.5619120000000 1.0
C      1  0.5384260000000  0.5904950000000  0.5278630000000 1.0
C      1  0.4877600000000  0.5069520000000  0.4668820000000 1.0
C      1  0.4496970000000  0.5313290000000  0.5215790000000 1.0
C      1  0.4950410000000  0.4707600000000  0.5264180000000 1.0
C      1  0.5952020000000  0.5193490000000  0.4762270000000 1.0
C      1  0.5369150000000  0.5144150000000  0.4697590000000 1.0
C      1  0.5838020000000  0.5137580000000  0.4510520000000 1.0
C      1  0.5706570000000  0.4797940000000  0.4796370000000 1.0
C      1  0.5601860000000  0.4556880000000  0.5678240000000 1.0
C      1  0.4806170000000  0.4595770000000  0.4858130000000 1.0
C      1  0.4421930000000  0.4220730000000  0.4872890000000 1.0
C      1  0.4412460000000  0.5564140000000  0.5257210000000 1.0
C      1  0.5619400000000  0.4754990000000  0.5228560000000 1.0
C      1  0.4483870000000  0.5199570000000  0.4383390000000 1.0
C      1  0.5117660000000  0.4410630000000  0.4441900000000 1.0
C      1  0.4861650000000  0.5518330000000  0.5626010000000 1.0
C      1  0.4632300000000  0.4649980000000  0.5799870000000 1.0
C      1  0.4674570000000  0.4221450000000  0.5316310000000 1.0
C      1  0.4686400000000  0.5030220000000  0.4475260000000 1.0
C      1  0.5948460000000  0.4937360000000  0.5519470000000 1.0
C      1  0.4113350000000  0.5541000000000  0.4650860000000 1.0
C      1  0.5929940000000  0.4426330000000  0.4932430000000 1.0
C      1  0.4194760000000  0.4804960000000  0.5216130000000 1.0
C      1  0.4325150000000  0.5803000000000  0.5134220000000 1.0
C      1  0.4877640000000  0.4609170000000  0.4100360000000 1.0
C      1  0.4930620000000  0.5652590000000  0.4894720000000 1.0
C      1  0.5394620000000  0.4428960000000  0.5516580000000 1.0
C      1  0.4833080000000  0.4456370000000  0.4343970000000 1.0
C      1  0.5281950000000  0.3963140000000  0.5057090000000 1.0
C      1  0.5505370000000  0.5022050000000  0.5157990000000 1.0
C      1  0.4797240000000  0.4446890000000  0.5728320000000 1.0
C      1  0.3978490000000  0.5563320000000  0.4902510000000 1.0
C      1  0.5399930000000  0.5976840000000  0.5020140000000 1.0
C      1  0.4367430000000  0.4416420000000  0.4663830000000 1.0
C      1  0.5238210000000  0.5779090000000  0.4271510000000 1.0
C      1  0.4555710000000  0.5479230000000  0.4407380000000 1.0
C      1  0.4784530000000  0.5857910000000  0.5019600000000 1.0
C      1  0.4055730000000  0.5797290000000  0.5048030000000 1.0
C      1  0.4454990000000  0.4401640000000  0.5366380000000 1.0
C      1  0.4830200000000  0.5176580000000  0.4922200000000 1.0
C      1  0.3988460000000  0.5225690000000  0.5299600000000 1.0
C      1  0.5354270000000  0.5703480000000  0.5481070000000 1.0
C      1  0.5139280000000  0.5084230000000  0.4583930000000 1.0
C      1  0.4573080000000  0.4656850000000  0.4977700000000 1.0
C      1  0.5140830000000  0.4687690000000  0.4071630000000 1.0
C      1  0.5460050000000  0.5178490000000  0.4164300000000 1.0
C      1  0.5560020000000  0.4729270000000  0.4357460000000 1.0
C      1  0.5131340000000  0.5339850000000  0.5235940000000 1.0
C      1  0.5709540000000  0.4618940000000  0.4569230000000 1.0
C      1  0.4235880000000  0.5064320000000  0.4370460000000 1.0
C      1  0.5319850000000  0.5013880000000  0.5907530000000 1.0
C      1  0.4176930000000  0.4647320000000  0.4697400000000 1.0
C      1  0.4842150000000  0.5556880000000  0.4390460000000 1.0
C      1  0.5183710000000  0.4223490000000  0.5496150000000 1.0
C      1  0.4574760000000  0.4423650000000  0.4459300000000 1.0
C      1  0.5936650000000  0.5174500000000  0.5336470000000 1.0
C      1  0.5235300000000  0.5321820000000  0.4120130000000 1.0
C      1  0.4636110000000  0.4116390000000  0.5042260000000 1.0
C      1  0.5079850000000  0.4979670000000  0.5794730000000 1.0
C      1  0.5174100000000  0.4193850000000  0.4617250000000 1.0
C      1  0.4515950000000  0.5912490000000  0.4953300000000 1.0
C      1  0.4482790000000  0.4872830000000  0.5764090000000 1.0
END
