TITL C-599892-9790-1309 -0.00128830726634725 125000 -290.067165857227 0 0 50 (C1) n - 1
REM
REM in /home/nfs/bkarasulu/CARBON/AIRSS/Generating-Clusters/TERSOFF/Only-C1/FIRE-HFTN
REM
REM
REM
REM
REM
REM ./C.cell (11c1c37f851c82e70ff6c80c92926a4b)
REM AIRSS Version 0.9.1 bugfix July 2018 build 013d7b7c2542+ Fri, 06 Jul 2018 19:26:36 +0100
REM compiler GCC version 9.2.1 20190827 (Red Hat 9.2.1-1)
REM options -cpp -mtune=generic -march=x86-64 -g -O0 -fpre-include=/usr/include/finclude/math-vector-fortran.h
REM seed 741548024 1130886173 459811869 -1104328797 -1706064019 -1057558629 -68687906 -1585476321 1555503631 -1644609583 81501619 396644399 -1973693369 2013290093 984600207 -392888241 1561850244 -207495622 -1992593305 241747660 1091747179 150138526 -1403263279 -1675466025 1063187200 -209094067 715573582 -309605444 807397308 1051503915 -897602399 -1733764332 -1736584857
REM
CELL 1.54180   50.00000   50.00000   50.00000   90.00000   90.00000   90.00000
LATT -1
SFAC C  
C      1  0.5083810000000  0.5257960000000  0.4430220000000 1.0
C      1  0.4838570000000  0.4425900000000  0.4758500000000 1.0
C      1  0.6073490000000  0.4641880000000  0.5389720000000 1.0
C      1  0.4602210000000  0.5523990000000  0.5157790000000 1.0
C      1  0.4757210000000  0.5241700000000  0.5669840000000 1.0
C      1  0.4813120000000  0.5922840000000  0.5356770000000 1.0
C      1  0.6125940000000  0.4523210000000  0.5125910000000 1.0
C      1  0.4446580000000  0.5076510000000  0.5334160000000 1.0
C      1  0.4727020000000  0.4751630000000  0.5557510000000 1.0
C      1  0.3984820000000  0.5330180000000  0.4929190000000 1.0
C      1  0.5159540000000  0.4922760000000  0.5140860000000 1.0
C      1  0.4361220000000  0.5240290000000  0.4632840000000 1.0
C      1  0.5389420000000  0.5107090000000  0.5591570000000 1.0
C      1  0.5802550000000  0.5209540000000  0.4540220000000 1.0
C      1  0.4802730000000  0.5495020000000  0.5594570000000 1.0
C      1  0.4688100000000  0.4558320000000  0.5368200000000 1.0
C      1  0.5404180000000  0.5327260000000  0.4774770000000 1.0
C      1  0.4390660000000  0.5338740000000  0.5232220000000 1.0
C      1  0.5938780000000  0.4953940000000  0.5068620000000 1.0
C      1  0.4085250000000  0.5246810000000  0.4692220000000 1.0
C      1  0.4742990000000  0.5653930000000  0.5370000000000 1.0
C      1  0.5690680000000  0.4948030000000  0.4926970000000 1.0
C      1  0.4759150000000  0.5056360000000  0.4823450000000 1.0
C      1  0.5684340000000  0.4451330000000  0.4937650000000 1.0
C      1  0.4880420000000  0.6173580000000  0.5334060000000 1.0
C      1  0.4806780000000  0.4132600000000  0.4742560000000 1.0
C      1  0.5155820000000  0.5400060000000  0.4664060000000 1.0
C      1  0.5269610000000  0.5019400000000  0.5377390000000 1.0
C      1  0.6147460000000  0.4770570000000  0.4960630000000 1.0
C      1  0.4451200000000  0.4734600000000  0.4680880000000 1.0
C      1  0.4123810000000  0.5389010000000  0.5152770000000 1.0
C      1  0.5631190000000  0.5162900000000  0.4749940000000 1.0
C      1  0.4518880000000  0.5008700000000  0.4681570000000 1.0
C      1  0.4500280000000  0.5484900000000  0.4679590000000 1.0
C      1  0.4775790000000  0.3874170000000  0.4732700000000 1.0
C      1  0.5082020000000  0.4501010000000  0.4922550000000 1.0
C      1  0.4960200000000  0.5550600000000  0.4802780000000 1.0
C      1  0.4687700000000  0.5551770000000  0.4882900000000 1.0
C      1  0.5922690000000  0.4354030000000  0.5023250000000 1.0
C      1  0.5957160000000  0.4893800000000  0.5354830000000 1.0
C      1  0.5266430000000  0.4696180000000  0.5006760000000 1.0
C      1  0.4636890000000  0.5021730000000  0.5545610000000 1.0
C      1  0.4583100000000  0.4556030000000  0.4864720000000 1.0
C      1  0.4363120000000  0.4843740000000  0.5191140000000 1.0
C      1  0.4903800000000  0.4545520000000  0.4485340000000 1.0
C      1  0.5035330000000  0.5018830000000  0.4321110000000 1.0
C      1  0.5542100000000  0.4697440000000  0.4940900000000 1.0
C      1  0.4976810000000  0.4759240000000  0.4342940000000 1.0
C      1  0.4527360000000  0.4612260000000  0.5139920000000 1.0
C      1  0.4941680000000  0.5042110000000  0.5015300000000 1.0
END
