TITL C-599896-8500-280 -0.0638534174756766 125000 -608.64639703325 0 0 101 (C1) n - 1
REM
REM in /home/nfs/bkarasulu/CARBON/AIRSS/Generating-Clusters/TERSOFF/Only-C1/FIRE-HFTN
REM
REM
REM
REM
REM
REM ./C.cell (11c1c37f851c82e70ff6c80c92926a4b)
REM AIRSS Version 0.9.1 bugfix July 2018 build 013d7b7c2542+ Fri, 06 Jul 2018 19:26:36 +0100
REM compiler GCC version 9.2.1 20190827 (Red Hat 9.2.1-1)
REM options -cpp -mtune=generic -march=x86-64 -g -O0 -fpre-include=/usr/include/finclude/math-vector-fortran.h
REM seed -1360074160 -1604927984 1522195118 -176899843 -1969834767 172952604 -1287572704 -2040712748 -2128470467 1830818812 1050075172 254571798 1043485524 -1032536084 109881075 -29002669 -330147966 -1808998339 -921059340 -1793935707 -1016482525 552718016 -941416443 543585070 1341733079 -816934686 2077896200 -1879288026 469851381 780290528 1712342275 -1980083350 -279419602
REM
CELL 1.54180   50.00000   50.00000   50.00000   90.00000   90.00000   90.00000
LATT -1
SFAC C  
C      1  0.4280240000000  0.5659910000000  0.5235340000000 1.0
C      1  0.5685430000000  0.5064250000000  0.5533350000000 1.0
C      1  0.5148700000000  0.4338790000000  0.4262860000000 1.0
C      1  0.4512370000000  0.4187000000000  0.6000240000000 1.0
C      1  0.5294750000000  0.4539730000000  0.4858320000000 1.0
C      1  0.5696740000000  0.4871600000000  0.5329300000000 1.0
C      1  0.4441820000000  0.4332540000000  0.5316320000000 1.0
C      1  0.4941170000000  0.5537520000000  0.5905960000000 1.0
C      1  0.5878680000000  0.5550570000000  0.5058090000000 1.0
C      1  0.4634520000000  0.5723170000000  0.5579530000000 1.0
C      1  0.4622220000000  0.4826660000000  0.4002690000000 1.0
C      1  0.5951520000000  0.4571990000000  0.5070730000000 1.0
C      1  0.5240910000000  0.4963800000000  0.3860810000000 1.0
C      1  0.4995620000000  0.4200810000000  0.6054260000000 1.0
C      1  0.4770310000000  0.4999070000000  0.4782530000000 1.0
C      1  0.5331310000000  0.4166400000000  0.5652520000000 1.0
C      1  0.4241340000000  0.4668010000000  0.4532910000000 1.0
C      1  0.4909440000000  0.4730200000000  0.4407350000000 1.0
C      1  0.4398090000000  0.4854540000000  0.4397450000000 1.0
C      1  0.6058600000000  0.4124960000000  0.4923740000000 1.0
C      1  0.4992930000000  0.5271140000000  0.5975300000000 1.0
C      1  0.5211370000000  0.4801760000000  0.4822150000000 1.0
C      1  0.5157010000000  0.5599370000000  0.3653810000000 1.0
C      1  0.4745670000000  0.4326150000000  0.6069770000000 1.0
C      1  0.5511980000000  0.5903630000000  0.4684830000000 1.0
C      1  0.4988980000000  0.5283690000000  0.5077500000000 1.0
C      1  0.4347290000000  0.4572890000000  0.5210460000000 1.0
C      1  0.4528160000000  0.5256250000000  0.3800650000000 1.0
C      1  0.5272040000000  0.5259330000000  0.5073500000000 1.0
C      1  0.5817030000000  0.4763340000000  0.4900730000000 1.0
C      1  0.5782260000000  0.5327020000000  0.5479930000000 1.0
C      1  0.5572070000000  0.5013070000000  0.5783370000000 1.0
C      1  0.4995140000000  0.5991450000000  0.4974390000000 1.0
C      1  0.4637790000000  0.5879980000000  0.4617560000000 1.0
C      1  0.4499320000000  0.5709400000000  0.4435010000000 1.0
C      1  0.5334090000000  0.5742190000000  0.4561460000000 1.0
C      1  0.4830340000000  0.5099140000000  0.5553790000000 1.0
C      1  0.4315490000000  0.4212750000000  0.5536140000000 1.0
C      1  0.4308800000000  0.5363290000000  0.5608510000000 1.0
C      1  0.5250550000000  0.5938880000000  0.5091860000000 1.0
C      1  0.4229930000000  0.4410570000000  0.4602230000000 1.0
C      1  0.5272180000000  0.5719280000000  0.5273070000000 1.0
C      1  0.4398970000000  0.5603060000000  0.5486280000000 1.0
C      1  0.5262670000000  0.5031360000000  0.3386140000000 1.0
C      1  0.5369210000000  0.5007800000000  0.4963980000000 1.0
C      1  0.5029420000000  0.4114690000000  0.4345000000000 1.0
C      1  0.5957220000000  0.5449740000000  0.5650740000000 1.0
C      1  0.4314190000000  0.5090690000000  0.4245730000000 1.0
C      1  0.4352930000000  0.4174200000000  0.4607180000000 1.0
C      1  0.5168000000000  0.4132810000000  0.5426610000000 1.0
C      1  0.4099710000000  0.5245430000000  0.5072980000000 1.0
C      1  0.5209240000000  0.4148530000000  0.5904120000000 1.0
C      1  0.4752220000000  0.4847460000000  0.5968000000000 1.0
C      1  0.5221230000000  0.5238850000000  0.6407670000000 1.0
C      1  0.4547590000000  0.4903990000000  0.4920500000000 1.0
C      1  0.4813850000000  0.4002400000000  0.4454320000000 1.0
C      1  0.4845660000000  0.5387010000000  0.4336720000000 1.0
C      1  0.4944920000000  0.4162220000000  0.5285120000000 1.0
C      1  0.5236630000000  0.4779500000000  0.4052860000000 1.0
C      1  0.4209830000000  0.5044920000000  0.5238090000000 1.0
C      1  0.4665690000000  0.5571020000000  0.4249770000000 1.0
C      1  0.5429320000000  0.5072000000000  0.5999220000000 1.0
C      1  0.5626670000000  0.4923820000000  0.5048330000000 1.0
C      1  0.5216220000000  0.5195080000000  0.6132730000000 1.0
C      1  0.4892160000000  0.5868000000000  0.4742310000000 1.0
C      1  0.4212920000000  0.5325410000000  0.4360200000000 1.0
C      1  0.6071380000000  0.5610690000000  0.4893250000000 1.0
C      1  0.4346810000000  0.4152040000000  0.5793910000000 1.0
C      1  0.4869740000000  0.5260610000000  0.4821500000000 1.0
C      1  0.4455520000000  0.5065360000000  0.3990300000000 1.0
C      1  0.5115440000000  0.4616320000000  0.4245420000000 1.0
C      1  0.5221240000000  0.5280570000000  0.6664920000000 1.0
C      1  0.5071800000000  0.5669510000000  0.4632580000000 1.0
C      1  0.4897720000000  0.5688700000000  0.5673070000000 1.0
C      1  0.5413620000000  0.5478850000000  0.5194310000000 1.0
C      1  0.4567010000000  0.4025710000000  0.4551720000000 1.0
C      1  0.5692350000000  0.5458120000000  0.5244290000000 1.0
C      1  0.6142830000000  0.4381610000000  0.4996410000000 1.0
C      1  0.5966340000000  0.3888940000000  0.4862900000000 1.0
C      1  0.5475230000000  0.6006670000000  0.4932740000000 1.0
C      1  0.4263340000000  0.5564220000000  0.4505490000000 1.0
C      1  0.5118420000000  0.5733530000000  0.5506570000000 1.0
C      1  0.5028710000000  0.5357550000000  0.3654820000000 1.0
C      1  0.4692920000000  0.4233590000000  0.5239800000000 1.0
C      1  0.4955550000000  0.5414040000000  0.4595940000000 1.0
C      1  0.4967460000000  0.4830490000000  0.4667970000000 1.0
C      1  0.4150580000000  0.5605300000000  0.4758130000000 1.0
C      1  0.4851260000000  0.5069450000000  0.5831920000000 1.0
C      1  0.4749400000000  0.5345520000000  0.3680750000000 1.0
C      1  0.4239750000000  0.5122480000000  0.5508210000000 1.0
C      1  0.6408840000000  0.4445380000000  0.4995280000000 1.0
C      1  0.4654880000000  0.4765220000000  0.4285440000000 1.0
C      1  0.4858890000000  0.5213950000000  0.5315320000000 1.0
C      1  0.5777380000000  0.4418280000000  0.5518370000000 1.0
C      1  0.5179380000000  0.5116110000000  0.3633080000000 1.0
C      1  0.5840380000000  0.4618750000000  0.5336410000000 1.0
C      1  0.4159580000000  0.5517090000000  0.5022730000000 1.0
C      1  0.4693770000000  0.4670600000000  0.3792180000000 1.0
C      1  0.5594270000000  0.4256160000000  0.5622870000000 1.0
C      1  0.4735250000000  0.4605840000000  0.6075840000000 1.0
C      1  0.4362250000000  0.4836680000000  0.5120630000000 1.0
END
