TITL C-599892-9790-345 -3002.73074199368 125000 -842.843992216569 0 0 138 (C1) n - 1
REM
REM in /home/nfs/bkarasulu/CARBON/AIRSS/Generating-Clusters/TERSOFF/Only-C1/FIRE-HFTN
REM
REM
REM
REM
REM
REM ./C.cell (11c1c37f851c82e70ff6c80c92926a4b)
REM AIRSS Version 0.9.1 bugfix July 2018 build 013d7b7c2542+ Fri, 06 Jul 2018 19:26:36 +0100
REM compiler GCC version 9.2.1 20190827 (Red Hat 9.2.1-1)
REM options -cpp -mtune=generic -march=x86-64 -g -O0 -fpre-include=/usr/include/finclude/math-vector-fortran.h
REM seed -1656149055 -842922248 -180234308 651844914 1678726994 368588326 -666258062 -761862085 -581084188 2111225201 -2050526179 1725342923 -1669429547 743116712 -262198100 1470062647 1799466848 406103511 -317114971 238778087 135265960 168638137 1234481349 -998692144 1381219580 1893060258 -2028150835 -2087586539 830478686 -2068680087 1824223625 -1023849306 1526221177
REM
CELL 1.54180   50.00000   50.00000   50.00000   90.00000   90.00000   90.00000
LATT -1
SFAC C  
C      1  0.5078190000000  0.5071400000000  0.5479660000000 1.0
C      1  0.5289360000000  0.4942430000000  0.5913290000000 1.0
C      1  0.5059860000000  0.5135090000000  0.4161570000000 1.0
C      1  0.4701670000000  0.4259170000000  0.6098900000000 1.0
C      1  0.5788080000000  0.5215950000000  0.4486150000000 1.0
C      1  0.4537500000000  0.4735830000000  0.5365650000000 1.0
C      1  0.4452940000000  0.4025750000000  0.5610750000000 1.0
C      1  0.5837250000000  0.4155720000000  0.4777220000000 1.0
C      1  0.6082930000000  0.4820950000000  0.4986460000000 1.0
C      1  0.4840130000000  0.6163850000000  0.3578500000000 1.0
C      1  0.4712640000000  0.4693670000000  0.4492330000000 1.0
C      1  0.5712400000000  0.5128990000000  0.5090060000000 1.0
C      1  0.4127660000000  0.4935020000000  0.5253180000000 1.0
C      1  0.4442800000000  0.4947820000000  0.5950180000000 1.0
C      1  0.5076940000000  0.5094330000000  0.5770070000000 1.0
C      1  0.4689860000000  0.4507440000000  0.5412250000000 1.0
C      1  0.4466770000000  0.5368040000000  0.5354160000000 1.0
C      1  0.5637160000000  0.5462410000000  0.4448290000000 1.0
C      1  0.5839110000000  0.4409980000000  0.5483540000000 1.0
C      1  0.4282700000000  0.4258570000000  0.5592020000000 1.0
C      1  0.4666030000000  0.5402870000000  0.4167470000000 1.0
C      1  0.5199240000000  0.4850980000000  0.5343090000000 1.0
C      1  0.4197320000000  0.5586870000000  0.4956880000000 1.0
C      1  0.4841640000000  0.5949050000000  0.4505210000000 1.0
C      1  0.4809320000000  0.5366270000000  0.4780940000000 1.0
C      1  0.5923980000000  0.4349300000000  0.5218270000000 1.0
C      1  0.4932540000000  0.6361790000000  0.3428590000000 1.0
C      1  0.5204540000000  0.5810640000000  0.3918810000000 1.0
C      1  0.4262320000000  0.5388080000000  0.5146560000000 1.0
C      1  0.4719260000000  0.5755280000000  0.5695160000000 1.0
C      1  0.5308470000000  0.4220300000000  0.5647550000000 1.0
C      1  0.5940740000000  0.5002380000000  0.5147460000000 1.0
C      1  0.3960100000000  0.5628410000000  0.4514050000000 1.0
C      1  0.4167820000000  0.4304480000000  0.5338660000000 1.0
C      1  0.5219180000000  0.4335590000000  0.4940550000000 1.0
C      1  0.4632720000000  0.4314870000000  0.4896720000000 1.0
C      1  0.5300050000000  0.5918500000000  0.5267970000000 1.0
C      1  0.5337910000000  0.3492620000000  0.5668850000000 1.0
C      1  0.6028990000000  0.5150820000000  0.4621060000000 1.0
C      1  0.4585200000000  0.5168100000000  0.5820500000000 1.0
C      1  0.5503790000000  0.3821160000000  0.5351470000000 1.0
C      1  0.5161970000000  0.4615460000000  0.5475920000000 1.0
C      1  0.5103190000000  0.5878690000000  0.5470590000000 1.0
C      1  0.5224310000000  0.5615180000000  0.4629030000000 1.0
C      1  0.4421390000000  0.6177300000000  0.4554490000000 1.0
C      1  0.5452050000000  0.5075510000000  0.5004300000000 1.0
C      1  0.5871090000000  0.5485250000000  0.5493910000000 1.0
C      1  0.4338010000000  0.4474450000000  0.5786740000000 1.0
C      1  0.4627870000000  0.4019330000000  0.4803230000000 1.0
C      1  0.3999220000000  0.4703390000000  0.5156760000000 1.0
C      1  0.5193640000000  0.4841740000000  0.4573490000000 1.0
C      1  0.3963620000000  0.4288810000000  0.4883490000000 1.0
C      1  0.5568830000000  0.3988930000000  0.5137810000000 1.0
C      1  0.4697770000000  0.3914270000000  0.5646410000000 1.0
C      1  0.5733980000000  0.4448540000000  0.5748280000000 1.0
C      1  0.4444310000000  0.5546250000000  0.4273110000000 1.0
C      1  0.5416370000000  0.4858810000000  0.4429590000000 1.0
C      1  0.5268590000000  0.4648880000000  0.5902430000000 1.0
C      1  0.5034970000000  0.4608060000000  0.5733270000000 1.0
C      1  0.4473400000000  0.5888120000000  0.3748440000000 1.0
C      1  0.5416710000000  0.5706880000000  0.4049580000000 1.0
C      1  0.5202040000000  0.3960900000000  0.5699950000000 1.0
C      1  0.5169150000000  0.5672000000000  0.5672000000000 1.0
C      1  0.4542900000000  0.6229590000000  0.5219970000000 1.0
C      1  0.5028020000000  0.4849230000000  0.4782950000000 1.0
C      1  0.5452510000000  0.4422250000000  0.5811630000000 1.0
C      1  0.5436980000000  0.5593990000000  0.5648520000000 1.0
C      1  0.4852010000000  0.3923940000000  0.4645300000000 1.0
C      1  0.4422920000000  0.5027300000000  0.4873270000000 1.0
C      1  0.4320740000000  0.4906310000000  0.5487570000000 1.0
C      1  0.4440120000000  0.5182330000000  0.5564870000000 1.0
C      1  0.5647290000000  0.4986890000000  0.4396450000000 1.0
C      1  0.4421750000000  0.3854730000000  0.4874130000000 1.0
C      1  0.5393360000000  0.4583800000000  0.4949370000000 1.0
C      1  0.5077180000000  0.5831500000000  0.4536780000000 1.0
C      1  0.4876130000000  0.4054410000000  0.6060800000000 1.0
C      1  0.5543390000000  0.5056860000000  0.5952400000000 1.0
C      1  0.4779200000000  0.4344100000000  0.5182820000000 1.0
C      1  0.4934600000000  0.3941910000000  0.5805320000000 1.0
C      1  0.5598860000000  0.5705400000000  0.4925180000000 1.0
C      1  0.4228390000000  0.5617000000000  0.4102520000000 1.0
C      1  0.4797910000000  0.4453300000000  0.4650820000000 1.0
C      1  0.4601710000000  0.4426570000000  0.5896890000000 1.0
C      1  0.5913390000000  0.5298100000000  0.5683350000000 1.0
C      1  0.4405050000000  0.4515620000000  0.4939750000000 1.0
C      1  0.4534820000000  0.4775430000000  0.4951620000000 1.0
C      1  0.4240570000000  0.5782590000000  0.3859480000000 1.0
C      1  0.3960200000000  0.5643310000000  0.4232040000000 1.0
C      1  0.4930180000000  0.5773030000000  0.3863370000000 1.0
C      1  0.4429900000000  0.5692820000000  0.4521970000000 1.0
C      1  0.4615980000000  0.5156780000000  0.4693940000000 1.0
C      1  0.6186150000000  0.4946000000000  0.4746740000000 1.0
C      1  0.5203820000000  0.4345730000000  0.5412370000000 1.0
C      1  0.5608240000000  0.4575340000000  0.4762700000000 1.0
C      1  0.4858570000000  0.5277600000000  0.5844990000000 1.0
C      1  0.4783430000000  0.4498760000000  0.5690580000000 1.0
C      1  0.5631650000000  0.5620020000000  0.5436870000000 1.0
C      1  0.3965310000000  0.5865360000000  0.3821910000000 1.0
C      1  0.5298110000000  0.5257700000000  0.4145300000000 1.0
C      1  0.5347400000000  0.4827840000000  0.5100460000000 1.0
C      1  0.4728470000000  0.5394560000000  0.5253800000000 1.0
C      1  0.4733680000000  0.5533320000000  0.5002270000000 1.0
C      1  0.5060590000000  0.4327940000000  0.4672440000000 1.0
C      1  0.4699790000000  0.5810570000000  0.5029000000000 1.0
C      1  0.5820750000000  0.4108860000000  0.5074680000000 1.0
C      1  0.6428320000000  0.4871920000000  0.4643210000000 1.0
C      1  0.5656980000000  0.4012560000000  0.4599750000000 1.0
C      1  0.5189170000000  0.5407850000000  0.5190340000000 1.0
C      1  0.4681970000000  0.5996250000000  0.5241380000000 1.0
C      1  0.5535460000000  0.5762740000000  0.5201580000000 1.0
C      1  0.3805930000000  0.5784940000000  0.4033920000000 1.0
C      1  0.4221490000000  0.5121710000000  0.5052950000000 1.0
C      1  0.5909440000000  0.4505120000000  0.5951900000000 1.0
C      1  0.4822040000000  0.4796980000000  0.4946290000000 1.0
C      1  0.5775400000000  0.5152350000000  0.5860720000000 1.0
C      1  0.4818020000000  0.5921890000000  0.5477390000000 1.0
C      1  0.4810800000000  0.5543720000000  0.3971300000000 1.0
C      1  0.4291920000000  0.4763840000000  0.5768030000000 1.0
C      1  0.4980160000000  0.5294180000000  0.5336190000000 1.0
C      1  0.5264370000000  0.5280160000000  0.4952320000000 1.0
C      1  0.4917280000000  0.5559800000000  0.5790250000000 1.0
C      1  0.4789220000000  0.5153890000000  0.4244770000000 1.0
C      1  0.4688280000000  0.4991950000000  0.4459510000000 1.0
C      1  0.4135590000000  0.4447870000000  0.5072220000000 1.0
C      1  0.5477040000000  0.5473550000000  0.4199000000000 1.0
C      1  0.6009930000000  0.4544690000000  0.5006000000000 1.0
C      1  0.4563420000000  0.5944680000000  0.4531340000000 1.0
C      1  0.5024290000000  0.6553740000000  0.3277940000000 1.0
C      1  0.4749640000000  0.5946810000000  0.3727490000000 1.0
C      1  0.5377060000000  0.3976740000000  0.4664120000000 1.0
C      1  0.5347290000000  0.3748910000000  0.5575860000000 1.0
C      1  0.5100000000000  0.5381780000000  0.4737980000000 1.0
C      1  0.5056200000000  0.4293090000000  0.5181840000000 1.0
C      1  0.5373840000000  0.4067610000000  0.4945280000000 1.0
C      1  0.4192040000000  0.5643830000000  0.4680050000000 1.0
C      1  0.5104560000000  0.4047780000000  0.4581340000000 1.0
C      1  0.5857920000000  0.4445980000000  0.4773370000000 1.0
C      1  0.5513320000000  0.5614880000000  0.4664330000000 1.0
END
