TITL C-599895-9959-1152 -0.14083180045219 125000 -579.894648492242 0 0 97 (C1) n - 1
REM
REM in /home/nfs/bkarasulu/CARBON/AIRSS/Generating-Clusters/TERSOFF/Only-C1/FIRE-HFTN
REM
REM
REM
REM
REM
REM ./C.cell (11c1c37f851c82e70ff6c80c92926a4b)
REM AIRSS Version 0.9.1 bugfix July 2018 build 013d7b7c2542+ Fri, 06 Jul 2018 19:26:36 +0100
REM compiler GCC version 9.2.1 20190827 (Red Hat 9.2.1-1)
REM options -cpp -mtune=generic -march=x86-64 -g -O0 -fpre-include=/usr/include/finclude/math-vector-fortran.h
REM seed -1109321538 -1497976951 -1796298833 1760143999 1317288952 -1746580 1780454295 2084497127 -1090291992 -408697677 1350065558 1682837762 1773222910 -1878482181 436488593 1862987230 -1905474258 235958730 833112582 1975571625 -957685765 -137166401 1757109190 -478051521 -1192325768 -417101638 -1772882424 -270993995 687429193 -1984423658 1360136425 -841793688 972386207
REM
CELL 1.54180   50.00000   50.00000   50.00000   90.00000   90.00000   90.00000
LATT -1
SFAC C  
C      1  0.4987350000000  0.5612610000000  0.3855520000000 1.0
C      1  0.4772440000000  0.5013590000000  0.5245450000000 1.0
C      1  0.5458990000000  0.4298230000000  0.4657970000000 1.0
C      1  0.4942710000000  0.5556960000000  0.4802810000000 1.0
C      1  0.5706730000000  0.5224080000000  0.4793620000000 1.0
C      1  0.4558630000000  0.5422960000000  0.6035980000000 1.0
C      1  0.5607560000000  0.5380980000000  0.5041780000000 1.0
C      1  0.4586120000000  0.4894900000000  0.4645870000000 1.0
C      1  0.5038270000000  0.4689640000000  0.4137440000000 1.0
C      1  0.4373670000000  0.5666860000000  0.4573760000000 1.0
C      1  0.4941610000000  0.4599180000000  0.4584070000000 1.0
C      1  0.4895270000000  0.5501340000000  0.4091320000000 1.0
C      1  0.5104580000000  0.4850170000000  0.5579940000000 1.0
C      1  0.5086430000000  0.4587590000000  0.5481110000000 1.0
C      1  0.5712590000000  0.4929710000000  0.4398160000000 1.0
C      1  0.5797890000000  0.4533050000000  0.4985080000000 1.0
C      1  0.4821860000000  0.4623130000000  0.4315580000000 1.0
C      1  0.4606140000000  0.4825290000000  0.4335490000000 1.0
C      1  0.4329870000000  0.5691930000000  0.5501450000000 1.0
C      1  0.4706580000000  0.4224190000000  0.4669510000000 1.0
C      1  0.5289750000000  0.4484040000000  0.6413570000000 1.0
C      1  0.4966630000000  0.5768020000000  0.5018760000000 1.0
C      1  0.5920630000000  0.4730720000000  0.4805710000000 1.0
C      1  0.5093290000000  0.5732770000000  0.5489270000000 1.0
C      1  0.4684430000000  0.5413750000000  0.4885700000000 1.0
C      1  0.4152080000000  0.5257050000000  0.4957650000000 1.0
C      1  0.4490080000000  0.5557440000000  0.4344730000000 1.0
C      1  0.5081980000000  0.5716260000000  0.3630910000000 1.0
C      1  0.4637870000000  0.5215960000000  0.5092120000000 1.0
C      1  0.5578890000000  0.4519240000000  0.5902990000000 1.0
C      1  0.4466080000000  0.5794060000000  0.5039350000000 1.0
C      1  0.3801950000000  0.5597080000000  0.5055720000000 1.0
C      1  0.5176160000000  0.5141970000000  0.4261060000000 1.0
C      1  0.5165900000000  0.4773610000000  0.4578750000000 1.0
C      1  0.4910210000000  0.4416410000000  0.5064860000000 1.0
C      1  0.5874570000000  0.5001700000000  0.4898340000000 1.0
C      1  0.4285260000000  0.4565330000000  0.4569920000000 1.0
C      1  0.4946590000000  0.4067960000000  0.4593410000000 1.0
C      1  0.4812230000000  0.5230600000000  0.5674180000000 1.0
C      1  0.4598820000000  0.5656490000000  0.5611570000000 1.0
C      1  0.4653040000000  0.5434160000000  0.5780000000000 1.0
C      1  0.5388750000000  0.5166830000000  0.5825300000000 1.0
C      1  0.4653530000000  0.5105520000000  0.4226140000000 1.0
C      1  0.5434140000000  0.4256600000000  0.6425560000000 1.0
C      1  0.4433750000000  0.4314240000000  0.4610820000000 1.0
C      1  0.5811990000000  0.4685450000000  0.5240760000000 1.0
C      1  0.5014500000000  0.4368870000000  0.5320810000000 1.0
C      1  0.5672130000000  0.4293020000000  0.6014560000000 1.0
C      1  0.4821710000000  0.5826710000000  0.5539230000000 1.0
C      1  0.5260630000000  0.5641530000000  0.5692390000000 1.0
C      1  0.5178310000000  0.5712780000000  0.5210630000000 1.0
C      1  0.5604090000000  0.3849940000000  0.6204970000000 1.0
C      1  0.5348360000000  0.4632860000000  0.4987170000000 1.0
C      1  0.4721930000000  0.5916950000000  0.5095500000000 1.0
C      1  0.4062890000000  0.5514810000000  0.5076130000000 1.0
C      1  0.5375190000000  0.5431050000000  0.5806660000000 1.0
C      1  0.5704460000000  0.5216790000000  0.5267390000000 1.0
C      1  0.5259260000000  0.4670860000000  0.6221770000000 1.0
C      1  0.4128880000000  0.4910350000000  0.4256990000000 1.0
C      1  0.5211110000000  0.5104830000000  0.4910420000000 1.0
C      1  0.5536740000000  0.4435700000000  0.4906370000000 1.0
C      1  0.5830830000000  0.4971390000000  0.5196000000000 1.0
C      1  0.5140890000000  0.5344430000000  0.4823350000000 1.0
C      1  0.4916680000000  0.5682930000000  0.4534040000000 1.0
C      1  0.5423990000000  0.5590720000000  0.5115180000000 1.0
C      1  0.5395110000000  0.5286720000000  0.4376620000000 1.0
C      1  0.4746940000000  0.6028180000000  0.5353810000000 1.0
C      1  0.4319740000000  0.4697730000000  0.4300370000000 1.0
C      1  0.5255400000000  0.4845170000000  0.4832670000000 1.0
C      1  0.5177520000000  0.5819750000000  0.3406360000000 1.0
C      1  0.4427820000000  0.5283060000000  0.4301250000000 1.0
C      1  0.5592840000000  0.4127440000000  0.6230270000000 1.0
C      1  0.5117400000000  0.3863430000000  0.5490430000000 1.0
C      1  0.4840480000000  0.4447800000000  0.4797980000000 1.0
C      1  0.5682870000000  0.4664000000000  0.4357080000000 1.0
C      1  0.4762870000000  0.5639810000000  0.4299360000000 1.0
C      1  0.4163170000000  0.5090290000000  0.4712020000000 1.0
C      1  0.4359300000000  0.5176420000000  0.5135530000000 1.0
C      1  0.5292690000000  0.4907290000000  0.5787330000000 1.0
C      1  0.5583380000000  0.4423400000000  0.4431630000000 1.0
C      1  0.5048580000000  0.4106120000000  0.5408620000000 1.0
C      1  0.5271490000000  0.5921540000000  0.3185520000000 1.0
C      1  0.5377020000000  0.3583660000000  0.5838470000000 1.0
C      1  0.5375850000000  0.4705260000000  0.5966180000000 1.0
C      1  0.5218930000000  0.4131060000000  0.4621180000000 1.0
C      1  0.4483240000000  0.5614870000000  0.4823520000000 1.0
C      1  0.4916490000000  0.5226160000000  0.4163770000000 1.0
C      1  0.5619470000000  0.5176380000000  0.4518280000000 1.0
C      1  0.5519420000000  0.3646920000000  0.6054470000000 1.0
C      1  0.5198700000000  0.4864220000000  0.4304340000000 1.0
C      1  0.5230280000000  0.3671010000000  0.5634550000000 1.0
C      1  0.4916220000000  0.5047700000000  0.5490080000000 1.0
C      1  0.4189850000000  0.5148040000000  0.4414390000000 1.0
C      1  0.4124270000000  0.5742080000000  0.5677670000000 1.0
C      1  0.4267300000000  0.5684920000000  0.5219220000000 1.0
C      1  0.4314490000000  0.4818400000000  0.4740470000000 1.0
C      1  0.4654370000000  0.4765010000000  0.5217920000000 1.0
END
