TITL C-599892-9790-987 0.740891166246623 125000 -182.372034605501 0 0 32 (C1) n - 1
REM
REM in /home/nfs/bkarasulu/CARBON/AIRSS/Generating-Clusters/TERSOFF/Only-C1/FIRE-HFTN
REM
REM
REM
REM
REM
REM ./C.cell (11c1c37f851c82e70ff6c80c92926a4b)
REM AIRSS Version 0.9.1 bugfix July 2018 build 013d7b7c2542+ Fri, 06 Jul 2018 19:26:36 +0100
REM compiler GCC version 9.2.1 20190827 (Red Hat 9.2.1-1)
REM options -cpp -mtune=generic -march=x86-64 -g -O0 -fpre-include=/usr/include/finclude/math-vector-fortran.h
REM seed 219942996 -777963237 -1187314173 1888977124 -212979603 796008320 -1121215292 -457163502 -413103103 -1000994747 -1761731282 686322885 -863756930 1634093327 -1899441704 -1689105314 -1378670338 621078972 1095140054 2060516872 -778976424 1439740449 1938463558 -2138178528 -1216864973 1703986034 202880434 -1502503602 131494954 -1930260524 -2109072382 -569403883 1686020141
REM
CELL 1.54180   50.00000   50.00000   50.00000   90.00000   90.00000   90.00000
LATT -1
SFAC C  
C      1  0.4489840000000  0.5345250000000  0.4894340000000 1.0
C      1  0.5209000000000  0.4929380000000  0.4498530000000 1.0
C      1  0.4790180000000  0.4615770000000  0.4425090000000 1.0
C      1  0.4513800000000  0.4985870000000  0.4531910000000 1.0
C      1  0.4986620000000  0.5051320000000  0.4361600000000 1.0
C      1  0.4483460000000  0.4759060000000  0.4716660000000 1.0
C      1  0.5462730000000  0.4930600000000  0.4368210000000 1.0
C      1  0.4744700000000  0.4902010000000  0.4363930000000 1.0
C      1  0.5079830000000  0.4841840000000  0.5806570000000 1.0
C      1  0.4917870000000  0.5682510000000  0.5313970000000 1.0
C      1  0.5005890000000  0.5295040000000  0.4240140000000 1.0
C      1  0.5105680000000  0.4983240000000  0.5561900000000 1.0
C      1  0.4667200000000  0.4956910000000  0.5194600000000 1.0
C      1  0.4514920000000  0.5156780000000  0.5103810000000 1.0
C      1  0.5527970000000  0.4724800000000  0.4199620000000 1.0
C      1  0.5601360000000  0.4713740000000  0.5369450000000 1.0
C      1  0.5042350000000  0.5507710000000  0.5471540000000 1.0
C      1  0.5129490000000  0.4841990000000  0.5316230000000 1.0
C      1  0.5102070000000  0.5263490000000  0.5557910000000 1.0
C      1  0.5637010000000  0.5137050000000  0.4413250000000 1.0
C      1  0.5388780000000  0.4779140000000  0.5211930000000 1.0
C      1  0.4836040000000  0.4745090000000  0.5884470000000 1.0
C      1  0.4573840000000  0.5606410000000  0.4950010000000 1.0
C      1  0.4730080000000  0.4603220000000  0.4713850000000 1.0
C      1  0.5405440000000  0.4786160000000  0.4930160000000 1.0
C      1  0.5305920000000  0.4803550000000  0.5966490000000 1.0
C      1  0.5186280000000  0.4797050000000  0.4751790000000 1.0
C      1  0.5521300000000  0.4770160000000  0.6109360000000 1.0
C      1  0.4455040000000  0.5239640000000  0.4635070000000 1.0
C      1  0.4743500000000  0.5727790000000  0.5117270000000 1.0
C      1  0.4940410000000  0.4707550000000  0.4876680000000 1.0
C      1  0.4901390000000  0.4809890000000  0.5143660000000 1.0
END
