TITL C-599895-9959-342 -0.0849228020620239 125000 -343.895850248737 0 0 57 (C1) n - 1
REM
REM in /home/nfs/bkarasulu/CARBON/AIRSS/Generating-Clusters/TERSOFF/Only-C1/FIRE-HFTN
REM
REM
REM
REM
REM
REM ./C.cell (11c1c37f851c82e70ff6c80c92926a4b)
REM AIRSS Version 0.9.1 bugfix July 2018 build 013d7b7c2542+ Fri, 06 Jul 2018 19:26:36 +0100
REM compiler GCC version 9.2.1 20190827 (Red Hat 9.2.1-1)
REM options -cpp -mtune=generic -march=x86-64 -g -O0 -fpre-include=/usr/include/finclude/math-vector-fortran.h
REM seed -1086683319 -825088380 1447294319 -1337806739 -1995951434 -138207207 -438882835 1499910441 -1440883746 1987822441 1770847560 -1760352422 -1118077758 1363784152 -861573489 1904585824 296188909 1092659988 -234030819 827612967 869989446 688647732 436793097 -2131558589 2046967173 944060072 409403733 -145653465 -1618635854 -1158224546 2009223678 -402094380 -1203265404
REM
CELL 1.54180   50.00000   50.00000   50.00000   90.00000   90.00000   90.00000
LATT -1
SFAC C  
C      1  0.4922780000000  0.4559440000000  0.5771870000000 1.0
C      1  0.4621790000000  0.5016360000000  0.5220210000000 1.0
C      1  0.5265390000000  0.5153600000000  0.4655360000000 1.0
C      1  0.3954910000000  0.5375570000000  0.4051750000000 1.0
C      1  0.4401770000000  0.5614200000000  0.5008040000000 1.0
C      1  0.5082560000000  0.5467240000000  0.5815340000000 1.0
C      1  0.4965180000000  0.4799130000000  0.3954390000000 1.0
C      1  0.4618210000000  0.4288090000000  0.4336390000000 1.0
C      1  0.4813610000000  0.4651800000000  0.4123980000000 1.0
C      1  0.4917300000000  0.4470470000000  0.5476000000000 1.0
C      1  0.5369470000000  0.5059340000000  0.5471620000000 1.0
C      1  0.5431480000000  0.5122680000000  0.4433250000000 1.0
C      1  0.5048820000000  0.5275810000000  0.5999350000000 1.0
C      1  0.4163500000000  0.5259110000000  0.4156090000000 1.0
C      1  0.5000830000000  0.4741420000000  0.5350850000000 1.0
C      1  0.5007560000000  0.5682470000000  0.5355730000000 1.0
C      1  0.5314840000000  0.5417810000000  0.5118940000000 1.0
C      1  0.6094280000000  0.5193100000000  0.4650940000000 1.0
C      1  0.4772600000000  0.5180390000000  0.4547870000000 1.0
C      1  0.5061000000000  0.4811300000000  0.5809580000000 1.0
C      1  0.4357080000000  0.4987030000000  0.5189000000000 1.0
C      1  0.5404010000000  0.4204070000000  0.5428950000000 1.0
C      1  0.5135750000000  0.5504260000000  0.5544650000000 1.0
C      1  0.5629580000000  0.4946470000000  0.5440500000000 1.0
C      1  0.4597080000000  0.5024100000000  0.4386930000000 1.0
C      1  0.4944370000000  0.4885660000000  0.4887860000000 1.0
C      1  0.4463980000000  0.4382850000000  0.5186620000000 1.0
C      1  0.5845350000000  0.5095830000000  0.5344010000000 1.0
C      1  0.5307760000000  0.5323070000000  0.5392170000000 1.0
C      1  0.5686010000000  0.5129910000000  0.4353890000000 1.0
C      1  0.4467900000000  0.5498750000000  0.4775370000000 1.0
C      1  0.4785100000000  0.4364980000000  0.4130550000000 1.0
C      1  0.4858010000000  0.4878700000000  0.5152370000000 1.0
C      1  0.4379390000000  0.4504930000000  0.4719960000000 1.0
C      1  0.5156430000000  0.4889080000000  0.5545850000000 1.0
C      1  0.4655770000000  0.4379440000000  0.5372640000000 1.0
C      1  0.4738220000000  0.5756260000000  0.5361680000000 1.0
C      1  0.5937030000000  0.5161020000000  0.4438280000000 1.0
C      1  0.4643580000000  0.4749070000000  0.4343630000000 1.0
C      1  0.4327570000000  0.4535590000000  0.4993080000000 1.0
C      1  0.4375610000000  0.5143750000000  0.4265090000000 1.0
C      1  0.5659830000000  0.4669490000000  0.5474410000000 1.0
C      1  0.5586520000000  0.4414540000000  0.5461250000000 1.0
C      1  0.4903050000000  0.5643390000000  0.4651180000000 1.0
C      1  0.5371640000000  0.5272950000000  0.4888280000000 1.0
C      1  0.4508330000000  0.5719000000000  0.5229940000000 1.0
C      1  0.5142920000000  0.5651460000000  0.5099970000000 1.0
C      1  0.6118390000000  0.5203440000000  0.4915790000000 1.0
C      1  0.4703310000000  0.5445190000000  0.4629570000000 1.0
C      1  0.5054910000000  0.5739520000000  0.4850250000000 1.0
C      1  0.4524810000000  0.4518530000000  0.4484660000000 1.0
C      1  0.4220000000000  0.4780700000000  0.5083730000000 1.0
C      1  0.5043320000000  0.5007620000000  0.6006350000000 1.0
C      1  0.5488050000000  0.3946310000000  0.5397390000000 1.0
C      1  0.5131320000000  0.4269690000000  0.5430490000000 1.0
C      1  0.6021860000000  0.5175220000000  0.5161930000000 1.0
C      1  0.4998300000000  0.5058790000000  0.4674160000000 1.0
END
