TITL C-599890-3321-193 3.77281918291029 125000 -538.861244653719 0 0 91 (C1) n - 1
REM
REM in /home/nfs/bkarasulu/CARBON/AIRSS/Generating-Clusters/TERSOFF/Only-C1/FIRE-HFTN
REM
REM
REM
REM
REM
REM ./C.cell (11c1c37f851c82e70ff6c80c92926a4b)
REM AIRSS Version 0.9.1 bugfix July 2018 build 013d7b7c2542+ Fri, 06 Jul 2018 19:26:36 +0100
REM compiler GCC version 9.2.1 20190827 (Red Hat 9.2.1-1)
REM options -cpp -mtune=generic -march=x86-64 -g -O0 -fpre-include=/usr/include/finclude/math-vector-fortran.h
REM seed 607171947 -951339487 -442765859 -1912609017 1581642815 442230729 -74348462 -2079949211 943881994 496024883 189968842 -867649404 -1999358041 -1159025931 173759528 -1583684560 -316971777 2020478220 476252053 554562878 271622307 -1179668290 -663863017 1267848479 2092774879 -1362280839 -899782024 -758710931 -1564332858 -970600653 1183051665 828614353 -1873706952
REM
CELL 1.54180   50.00000   50.00000   50.00000   90.00000   90.00000   90.00000
LATT -1
SFAC C  
C      1  0.4974410000000  0.4479880000000  0.3516960000000 1.0
C      1  0.5230170000000  0.6072500000000  0.5373350000000 1.0
C      1  0.4082930000000  0.4032450000000  0.4485620000000 1.0
C      1  0.5896300000000  0.5415600000000  0.5239490000000 1.0
C      1  0.4839170000000  0.5297530000000  0.4303620000000 1.0
C      1  0.6057130000000  0.5574590000000  0.4825540000000 1.0
C      1  0.5230610000000  0.4408620000000  0.5461400000000 1.0
C      1  0.3929570000000  0.4658390000000  0.4789730000000 1.0
C      1  0.4812160000000  0.5213740000000  0.5745530000000 1.0
C      1  0.4915430000000  0.4877050000000  0.5285480000000 1.0
C      1  0.5714850000000  0.4571770000000  0.4649130000000 1.0
C      1  0.6305680000000  0.4628690000000  0.5207310000000 1.0
C      1  0.5236920000000  0.5793880000000  0.5373410000000 1.0
C      1  0.4406060000000  0.5909140000000  0.5062680000000 1.0
C      1  0.5401280000000  0.4870640000000  0.5711030000000 1.0
C      1  0.4731190000000  0.4159300000000  0.4114940000000 1.0
C      1  0.5850480000000  0.5603160000000  0.5020540000000 1.0
C      1  0.6239070000000  0.5173610000000  0.5030680000000 1.0
C      1  0.5789250000000  0.5245000000000  0.5752720000000 1.0
C      1  0.4346890000000  0.5178830000000  0.5900310000000 1.0
C      1  0.4952680000000  0.4371100000000  0.4527330000000 1.0
C      1  0.3996710000000  0.4922240000000  0.4729090000000 1.0
C      1  0.5200790000000  0.4835050000000  0.5251880000000 1.0
C      1  0.4683000000000  0.5311180000000  0.5033540000000 1.0
C      1  0.6021570000000  0.4952860000000  0.5436230000000 1.0
C      1  0.4838690000000  0.5761130000000  0.4027170000000 1.0
C      1  0.3855460000000  0.5140370000000  0.4833530000000 1.0
C      1  0.4550160000000  0.4381910000000  0.4889790000000 1.0
C      1  0.5449400000000  0.5357660000000  0.4700720000000 1.0
C      1  0.5232110000000  0.6333060000000  0.5369000000000 1.0
C      1  0.4780350000000  0.4192200000000  0.3835000000000 1.0
C      1  0.5421790000000  0.5245090000000  0.5425090000000 1.0
C      1  0.4777710000000  0.5061990000000  0.5128790000000 1.0
C      1  0.4642640000000  0.6371660000000  0.4983830000000 1.0
C      1  0.4838720000000  0.5535170000000  0.4157000000000 1.0
C      1  0.4294150000000  0.4386720000000  0.4959480000000 1.0
C      1  0.4002850000000  0.4386950000000  0.4887290000000 1.0
C      1  0.4235310000000  0.4979720000000  0.4593510000000 1.0
C      1  0.4977270000000  0.4489580000000  0.5580030000000 1.0
C      1  0.4057970000000  0.5571700000000  0.5014700000000 1.0
C      1  0.4875420000000  0.4368030000000  0.4256780000000 1.0
C      1  0.3886600000000  0.5385660000000  0.4932560000000 1.0
C      1  0.5576770000000  0.5362140000000  0.5632130000000 1.0
C      1  0.3835150000000  0.4313650000000  0.5128490000000 1.0
C      1  0.4766430000000  0.5415500000000  0.4779290000000 1.0
C      1  0.5386790000000  0.5228610000000  0.4933240000000 1.0
C      1  0.4532150000000  0.5250800000000  0.5705530000000 1.0
C      1  0.5352450000000  0.4977200000000  0.5447890000000 1.0
C      1  0.5939080000000  0.4704520000000  0.4655060000000 1.0
C      1  0.6097940000000  0.4681680000000  0.5378290000000 1.0
C      1  0.4686120000000  0.5275720000000  0.4542730000000 1.0
C      1  0.4527990000000  0.4004350000000  0.4222010000000 1.0
C      1  0.5586200000000  0.5713390000000  0.4973670000000 1.0
C      1  0.5710590000000  0.4511210000000  0.5637120000000 1.0
C      1  0.4488630000000  0.5445570000000  0.5194820000000 1.0
C      1  0.4979270000000  0.5074600000000  0.4210010000000 1.0
C      1  0.4004400000000  0.5025180000000  0.6274350000000 1.0
C      1  0.5474150000000  0.4354190000000  0.5598260000000 1.0
C      1  0.4866220000000  0.4261250000000  0.3383810000000 1.0
C      1  0.4454160000000  0.5364190000000  0.5461300000000 1.0
C      1  0.5477400000000  0.4456570000000  0.4624750000000 1.0
C      1  0.6234200000000  0.5366170000000  0.4836300000000 1.0
C      1  0.3836180000000  0.4949170000000  0.6458450000000 1.0
C      1  0.5960580000000  0.4463150000000  0.5507980000000 1.0
C      1  0.4750300000000  0.4088140000000  0.3567740000000 1.0
C      1  0.6055580000000  0.5173380000000  0.5251020000000 1.0
C      1  0.4763310000000  0.4372100000000  0.4732510000000 1.0
C      1  0.5669010000000  0.4777590000000  0.5732870000000 1.0
C      1  0.5224790000000  0.4384370000000  0.4590740000000 1.0
C      1  0.3967280000000  0.4183750000000  0.4671180000000 1.0
C      1  0.5024540000000  0.4828130000000  0.4123720000000 1.0
C      1  0.4175430000000  0.5102450000000  0.6087170000000 1.0
C      1  0.5179080000000  0.5745310000000  0.4689580000000 1.0
C      1  0.5394640000000  0.5652480000000  0.5185360000000 1.0
C      1  0.5083720000000  0.5646230000000  0.5561920000000 1.0
C      1  0.5177310000000  0.4901580000000  0.5881180000000 1.0
C      1  0.6070870000000  0.4212330000000  0.5512120000000 1.0
C      1  0.4974190000000  0.5441360000000  0.5696010000000 1.0
C      1  0.4291660000000  0.3964020000000  0.4336130000000 1.0
C      1  0.5271050000000  0.4561590000000  0.5221050000000 1.0
C      1  0.4930910000000  0.4455030000000  0.3800920000000 1.0
C      1  0.4521640000000  0.6144910000000  0.5027450000000 1.0
C      1  0.5866850000000  0.4983080000000  0.5677830000000 1.0
C      1  0.4317240000000  0.5646330000000  0.5089310000000 1.0
C      1  0.5367930000000  0.5365990000000  0.5183160000000 1.0
C      1  0.5442960000000  0.5644640000000  0.4723720000000 1.0
C      1  0.4966690000000  0.4564530000000  0.4062240000000 1.0
C      1  0.4862960000000  0.4758750000000  0.5550630000000 1.0
C      1  0.4918820000000  0.4947680000000  0.5765840000000 1.0
C      1  0.4460250000000  0.5110660000000  0.4542920000000 1.0
C      1  0.4937310000000  0.5639420000000  0.4748430000000 1.0
END
