TITL C-599892-9790-1427 0.184328863787068 125000 -317.898303882264 0 0 54 (C1) n - 1
REM
REM in /home/nfs/bkarasulu/CARBON/AIRSS/Generating-Clusters/TERSOFF/Only-C1/FIRE-HFTN
REM
REM
REM
REM
REM
REM ./C.cell (11c1c37f851c82e70ff6c80c92926a4b)
REM AIRSS Version 0.9.1 bugfix July 2018 build 013d7b7c2542+ Fri, 06 Jul 2018 19:26:36 +0100
REM compiler GCC version 9.2.1 20190827 (Red Hat 9.2.1-1)
REM options -cpp -mtune=generic -march=x86-64 -g -O0 -fpre-include=/usr/include/finclude/math-vector-fortran.h
REM seed 41011032 -839832398 -1410628355 739720609 -493943022 1617349153 -583943134 1399377758 -1501793743 -110233574 928604185 -1374922688 -85863709 770743156 -788563990 780417514 2060326002 -67562475 540230477 -375311660 -796231630 98176365 -390561828 -1870762097 1429526553 -1482071954 1000421447 826366826 980485277 -594789234 554091784 352359555 214939143
REM
CELL 1.54180   50.00000   50.00000   50.00000   90.00000   90.00000   90.00000
LATT -1
SFAC C  
C      1  0.5100190000000  0.4678170000000  0.4543270000000 1.0
C      1  0.4568210000000  0.4578830000000  0.5188900000000 1.0
C      1  0.4622610000000  0.4683550000000  0.4931120000000 1.0
C      1  0.4611670000000  0.3855830000000  0.5096760000000 1.0
C      1  0.5255220000000  0.5847150000000  0.4178440000000 1.0
C      1  0.5059630000000  0.5846100000000  0.4391100000000 1.0
C      1  0.5531680000000  0.4962310000000  0.4725630000000 1.0
C      1  0.4805140000000  0.5952700000000  0.4386330000000 1.0
C      1  0.5487610000000  0.5721440000000  0.4259540000000 1.0
C      1  0.4108410000000  0.4330750000000  0.4063700000000 1.0
C      1  0.4830810000000  0.4876510000000  0.4911280000000 1.0
C      1  0.4317500000000  0.6148800000000  0.4393530000000 1.0
C      1  0.4429830000000  0.4742770000000  0.5372200000000 1.0
C      1  0.5335250000000  0.5478050000000  0.5233210000000 1.0
C      1  0.4883790000000  0.5591300000000  0.5884420000000 1.0
C      1  0.5389900000000  0.4821590000000  0.5187250000000 1.0
C      1  0.5240160000000  0.5332140000000  0.5669540000000 1.0
C      1  0.6046310000000  0.4749480000000  0.4248140000000 1.0
C      1  0.4584400000000  0.5165830000000  0.5551610000000 1.0
C      1  0.4559400000000  0.6051670000000  0.4389610000000 1.0
C      1  0.4798740000000  0.5130050000000  0.5026970000000 1.0
C      1  0.5190620000000  0.5707010000000  0.4612730000000 1.0
C      1  0.5192660000000  0.4360560000000  0.5418160000000 1.0
C      1  0.4517290000000  0.3380140000000  0.4893690000000 1.0
C      1  0.4919080000000  0.4401320000000  0.5482360000000 1.0
C      1  0.4228430000000  0.4421290000000  0.4276680000000 1.0
C      1  0.5468870000000  0.5033860000000  0.5353450000000 1.0
C      1  0.5331300000000  0.4673580000000  0.4401860000000 1.0
C      1  0.4714950000000  0.4354090000000  0.5286890000000 1.0
C      1  0.5314610000000  0.4122010000000  0.5472300000000 1.0
C      1  0.4972370000000  0.5421840000000  0.5682330000000 1.0
C      1  0.4703880000000  0.5907290000000  0.6263990000000 1.0
C      1  0.4797380000000  0.5332500000000  0.5473540000000 1.0
C      1  0.5087270000000  0.5509720000000  0.5101670000000 1.0
C      1  0.4844560000000  0.4535350000000  0.5719150000000 1.0
C      1  0.5392230000000  0.5289940000000  0.5436120000000 1.0
C      1  0.4476500000000  0.4602880000000  0.4708260000000 1.0
C      1  0.5079360000000  0.5647070000000  0.4859710000000 1.0
C      1  0.5568480000000  0.4800940000000  0.4490320000000 1.0
C      1  0.4793390000000  0.5750680000000  0.6075780000000 1.0
C      1  0.5463010000000  0.5628590000000  0.4532290000000 1.0
C      1  0.5869010000000  0.5635920000000  0.4789910000000 1.0
C      1  0.5078140000000  0.4802560000000  0.4797060000000 1.0
C      1  0.5657290000000  0.5496930000000  0.4686420000000 1.0
C      1  0.5333320000000  0.4870900000000  0.4913200000000 1.0
C      1  0.4564090000000  0.3616010000000  0.4994400000000 1.0
C      1  0.4681080000000  0.4742490000000  0.5773220000000 1.0
C      1  0.5333740000000  0.4571000000000  0.5298280000000 1.0
C      1  0.4659430000000  0.4096450000000  0.5196580000000 1.0
C      1  0.4529410000000  0.4894090000000  0.5588900000000 1.0
C      1  0.5813860000000  0.4770740000000  0.4364020000000 1.0
C      1  0.4875140000000  0.5341670000000  0.5196340000000 1.0
C      1  0.4350790000000  0.4513310000000  0.4493040000000 1.0
C      1  0.5632010000000  0.5222270000000  0.4734810000000 1.0
END
