TITL C-599891-72-315 75345.0830519255 125000 -1136.02423606419 0 0 184 (C1) n - 1
REM
REM in /home/nfs/bkarasulu/CARBON/AIRSS/Generating-Clusters/TERSOFF/Only-C1/FIRE-HFTN
REM
REM
REM
REM
REM
REM ./C.cell (11c1c37f851c82e70ff6c80c92926a4b)
REM AIRSS Version 0.9.1 bugfix July 2018 build 013d7b7c2542+ Fri, 06 Jul 2018 19:26:36 +0100
REM compiler GCC version 9.2.1 20190827 (Red Hat 9.2.1-1)
REM options -cpp -mtune=generic -march=x86-64 -g -O0 -fpre-include=/usr/include/finclude/math-vector-fortran.h
REM seed -2137271443 -290306912 1673147973 1283824568 1805058590 29684930 1691357227 25093298 -158433452 -1813068412 -912274441 -529606812 1642691818 671485987 -633317898 -595624679 724279846 953869046 743971811 -2053073560 -1614222998 2069542750 -862123445 1473758 -1964113623 1388902559 761003525 -1992830144 601891046 1231377611 864389848 1540694708 1559135281
REM
CELL 1.54180   50.00000   50.00000   50.00000   90.00000   90.00000   90.00000
LATT -1
SFAC C  
C      1  0.5092750000000  0.6088490000000  0.3996560000000 1.0
C      1  0.5898500000000  0.5477500000000  0.4113160000000 1.0
C      1  0.5594480000000  0.4852020000000  0.5851740000000 1.0
C      1  0.5149030000000  0.4202110000000  0.4191160000000 1.0
C      1  0.5739170000000  0.4781290000000  0.5265210000000 1.0
C      1  0.4617760000000  0.4609180000000  0.5843680000000 1.0
C      1  0.4730410000000  0.5629240000000  0.4894730000000 1.0
C      1  0.4602570000000  0.5707960000000  0.4012120000000 1.0
C      1  0.5246240000000  0.4680750000000  0.5472330000000 1.0
C      1  0.5628510000000  0.4574490000000  0.5066920000000 1.0
C      1  0.5213720000000  0.5576860000000  0.5850110000000 1.0
C      1  0.5577510000000  0.4412040000000  0.6031570000000 1.0
C      1  0.5962140000000  0.5201760000000  0.4155760000000 1.0
C      1  0.3876970000000  0.4762240000000  0.5306530000000 1.0
C      1  0.4155720000000  0.5399920000000  0.4999160000000 1.0
C      1  0.4720330000000  0.4076640000000  0.5733200000000 1.0
C      1  0.4767130000000  0.4759830000000  0.3887550000000 1.0
C      1  0.4955580000000  0.4324650000000  0.4020040000000 1.0
C      1  0.3976430000000  0.4911440000000  0.5673900000000 1.0
C      1  0.5395780000000  0.4283250000000  0.5322600000000 1.0
C      1  0.6086530000000  0.4441050000000  0.5351800000000 1.0
C      1  0.3991820000000  0.4531740000000  0.5428820000000 1.0
C      1  0.4984190000000  0.4566050000000  0.3877620000000 1.0
C      1  0.4895280000000  0.4978610000000  0.4418570000000 1.0
C      1  0.5226080000000  0.5835040000000  0.3995360000000 1.0
C      1  0.4547450000000  0.4441650000000  0.4890110000000 1.0
C      1  0.4767060000000  0.6115060000000  0.5914970000000 1.0
C      1  0.5068720000000  0.4497790000000  0.5058790000000 1.0
C      1  0.5398400000000  0.5260050000000  0.4409970000000 1.0
C      1  0.4419440000000  0.5271670000000  0.3996370000000 1.0
C      1  0.5199790000000  0.6199440000000  0.4976850000000 1.0
C      1  0.4111330000000  0.5510040000000  0.4509950000000 1.0
C      1  0.5145850000000  0.4862210000000  0.4445240000000 1.0
C      1  0.5135970000000  0.5972520000000  0.5596980000000 1.0
C      1  0.4884150000000  0.6258820000000  0.4033080000000 1.0
C      1  0.5386820000000  0.4034170000000  0.5156080000000 1.0
C      1  0.4359470000000  0.5556830000000  0.3985480000000 1.0
C      1  0.4265890000000  0.5440500000000  0.4737920000000 1.0
C      1  0.3757180000000  0.5534400000000  0.5451980000000 1.0
C      1  0.5910020000000  0.5377740000000  0.5958100000000 1.0
C      1  0.4210360000000  0.6017000000000  0.4344830000000 1.0
C      1  0.5156880000000  0.5336130000000  0.4267160000000 1.0
C      1  0.4982300000000  0.6122780000000  0.5756280000000 1.0
C      1  0.5213400000000  0.5338530000000  0.4916590000000 1.0
C      1  0.6013040000000  0.4293520000000  0.4884280000000 1.0
C      1  0.4440810000000  0.4770010000000  0.5407270000000 1.0
C      1  0.5955140000000  0.5172970000000  0.5773100000000 1.0
C      1  0.5604430000000  0.4476760000000  0.4302450000000 1.0
C      1  0.5599150000000  0.4065790000000  0.4962190000000 1.0
C      1  0.4171290000000  0.6212710000000  0.5454320000000 1.0
C      1  0.5342670000000  0.4478040000000  0.5111770000000 1.0
C      1  0.4424920000000  0.4917760000000  0.4364190000000 1.0
C      1  0.4672600000000  0.4928600000000  0.5467600000000 1.0
C      1  0.4463700000000  0.6095450000000  0.4243840000000 1.0
C      1  0.5406930000000  0.6321720000000  0.5088160000000 1.0
C      1  0.4851820000000  0.5857590000000  0.4743390000000 1.0
C      1  0.5851540000000  0.4223860000000  0.5513630000000 1.0
C      1  0.4280150000000  0.5607760000000  0.5146730000000 1.0
C      1  0.4857420000000  0.5305510000000  0.5215740000000 1.0
C      1  0.5466640000000  0.5738730000000  0.4430760000000 1.0
C      1  0.5453480000000  0.4488410000000  0.5543630000000 1.0
C      1  0.4683640000000  0.5265550000000  0.3868690000000 1.0
C      1  0.4661470000000  0.4855600000000  0.4529270000000 1.0
C      1  0.4690450000000  0.5393720000000  0.4477640000000 1.0
C      1  0.4720720000000  0.4644460000000  0.4736330000000 1.0
C      1  0.4983310000000  0.3937350000000  0.5727160000000 1.0
C      1  0.5058360000000  0.5138640000000  0.5950750000000 1.0
C      1  0.5375700000000  0.5077440000000  0.5288880000000 1.0
C      1  0.3612030000000  0.5749480000000  0.5475950000000 1.0
C      1  0.4550290000000  0.5961040000000  0.5277380000000 1.0
C      1  0.5631130000000  0.4741850000000  0.4823340000000 1.0
C      1  0.5903330000000  0.4217880000000  0.4623540000000 1.0
C      1  0.4306680000000  0.4605990000000  0.4925690000000 1.0
C      1  0.4683760000000  0.5483650000000  0.5346200000000 1.0
C      1  0.4095650000000  0.5785180000000  0.4432070000000 1.0
C      1  0.4563030000000  0.5054580000000  0.5963430000000 1.0
C      1  0.4549780000000  0.5474690000000  0.4706320000000 1.0
C      1  0.5705160000000  0.5526410000000  0.6044280000000 1.0
C      1  0.5832700000000  0.5033790000000  0.3963820000000 1.0
C      1  0.3930980000000  0.5315260000000  0.5427720000000 1.0
C      1  0.5043990000000  0.3962820000000  0.4336360000000 1.0
C      1  0.4330760000000  0.4765190000000  0.5154110000000 1.0
C      1  0.5318740000000  0.5090360000000  0.5010830000000 1.0
C      1  0.5097610000000  0.4369890000000  0.5790520000000 1.0
C      1  0.5588760000000  0.4567990000000  0.5790950000000 1.0
C      1  0.6048830000000  0.5368540000000  0.5237720000000 1.0
C      1  0.5222540000000  0.4108910000000  0.5736000000000 1.0
C      1  0.6203810000000  0.4959250000000  0.4604290000000 1.0
C      1  0.5337500000000  0.4917810000000  0.3784910000000 1.0
C      1  0.4731350000000  0.4000170000000  0.4722600000000 1.0
C      1  0.4511020000000  0.4668830000000  0.3993480000000 1.0
C      1  0.5138370000000  0.3924480000000  0.5073100000000 1.0
C      1  0.4465700000000  0.5308490000000  0.6069510000000 1.0
C      1  0.6229630000000  0.4606670000000  0.5519520000000 1.0
C      1  0.4580340000000  0.4114900000000  0.4284820000000 1.0
C      1  0.4725130000000  0.5468580000000  0.6075540000000 1.0
C      1  0.4690600000000  0.4218040000000  0.4047080000000 1.0
C      1  0.5543670000000  0.4748650000000  0.4245490000000 1.0
C      1  0.5613180000000  0.6426870000000  0.5207990000000 1.0
C      1  0.5771010000000  0.5324160000000  0.5234380000000 1.0
C      1  0.5081110000000  0.5602250000000  0.3894940000000 1.0
C      1  0.5450280000000  0.5498560000000  0.4868020000000 1.0
C      1  0.4385200000000  0.5859560000000  0.5718920000000 1.0
C      1  0.5409180000000  0.5635380000000  0.5364900000000 1.0
C      1  0.4955040000000  0.5420800000000  0.4977190000000 1.0
C      1  0.4899250000000  0.5044030000000  0.5306250000000 1.0
C      1  0.5270340000000  0.3836830000000  0.4454500000000 1.0
C      1  0.6113800000000  0.4743040000000  0.4779300000000 1.0
C      1  0.5446100000000  0.4923390000000  0.6089920000000 1.0
C      1  0.4415980000000  0.4231750000000  0.5341110000000 1.0
C      1  0.6147930000000  0.4521530000000  0.4994720000000 1.0
C      1  0.5103630000000  0.4479790000000  0.6065050000000 1.0
C      1  0.3907890000000  0.4944000000000  0.5082140000000 1.0
C      1  0.4310080000000  0.5143960000000  0.4227230000000 1.0
C      1  0.5183920000000  0.5352520000000  0.3985840000000 1.0
C      1  0.4913750000000  0.3925160000000  0.4923770000000 1.0
C      1  0.4674420000000  0.4799050000000  0.6077830000000 1.0
C      1  0.4584200000000  0.5134670000000  0.5669510000000 1.0
C      1  0.4526990000000  0.4044550000000  0.5526010000000 1.0
C      1  0.5010110000000  0.6048510000000  0.4870170000000 1.0
C      1  0.4627530000000  0.6298160000000  0.4123080000000 1.0
C      1  0.4988750000000  0.4620790000000  0.4824470000000 1.0
C      1  0.5849360000000  0.4684390000000  0.4658630000000 1.0
C      1  0.6113100000000  0.5098330000000  0.4382490000000 1.0
C      1  0.4972240000000  0.4731790000000  0.6154810000000 1.0
C      1  0.5425250000000  0.4251910000000  0.4289470000000 1.0
C      1  0.5672950000000  0.4038490000000  0.4677070000000 1.0
C      1  0.4906470000000  0.5255750000000  0.4375250000000 1.0
C      1  0.6195490000000  0.5114650000000  0.5630640000000 1.0
C      1  0.5231000000000  0.4655530000000  0.3771450000000 1.0
C      1  0.5166310000000  0.4958910000000  0.6146480000000 1.0
C      1  0.5765290000000  0.4296910000000  0.5037630000000 1.0
C      1  0.4811560000000  0.5855530000000  0.4463510000000 1.0
C      1  0.4553230000000  0.5407570000000  0.5577320000000 1.0
C      1  0.5488120000000  0.5492410000000  0.4577920000000 1.0
C      1  0.5571370000000  0.4086180000000  0.5666370000000 1.0
C      1  0.5715330000000  0.5665060000000  0.4041890000000 1.0
C      1  0.4781790000000  0.3967360000000  0.4439370000000 1.0
C      1  0.4392190000000  0.4245980000000  0.4469120000000 1.0
C      1  0.4530630000000  0.5987920000000  0.5924090000000 1.0
C      1  0.5447610000000  0.5586970000000  0.6010530000000 1.0
C      1  0.4989010000000  0.4525170000000  0.5543180000000 1.0
C      1  0.4089910000000  0.4654970000000  0.5680630000000 1.0
C      1  0.6283250000000  0.4847890000000  0.5620970000000 1.0
C      1  0.5570360000000  0.5522010000000  0.5145710000000 1.0
C      1  0.3965180000000  0.4096920000000  0.5219160000000 1.0
C      1  0.5721360000000  0.5037950000000  0.5674360000000 1.0
C      1  0.4361290000000  0.5577320000000  0.5710040000000 1.0
C      1  0.5474400000000  0.5778610000000  0.4146560000000 1.0
C      1  0.5397650000000  0.4967280000000  0.4350300000000 1.0
C      1  0.4571960000000  0.5691500000000  0.5158460000000 1.0
C      1  0.5489620000000  0.4017930000000  0.4465650000000 1.0
C      1  0.4028220000000  0.5190090000000  0.5673350000000 1.0
C      1  0.5001830000000  0.3664390000000  0.5716280000000 1.0
C      1  0.4349600000000  0.4670400000000  0.4236910000000 1.0
C      1  0.5165730000000  0.4971650000000  0.5456740000000 1.0
C      1  0.4798920000000  0.5548890000000  0.3871340000000 1.0
C      1  0.3930600000000  0.4824030000000  0.4810440000000 1.0
C      1  0.4993590000000  0.5415780000000  0.5959200000000 1.0
C      1  0.5135260000000  0.5110730000000  0.3842110000000 1.0
C      1  0.6239750000000  0.5283800000000  0.5408310000000 1.0
C      1  0.4126170000000  0.4291060000000  0.5332420000000 1.0
C      1  0.5613740000000  0.4972660000000  0.3817790000000 1.0
C      1  0.4361990000000  0.6019650000000  0.5481800000000 1.0
C      1  0.4515760000000  0.4196500000000  0.4731250000000 1.0
C      1  0.5663640000000  0.5062700000000  0.5373310000000 1.0
C      1  0.4662570000000  0.4313370000000  0.5889860000000 1.0
C      1  0.4850830000000  0.5036480000000  0.3840850000000 1.0
C      1  0.4370550000000  0.4651850000000  0.5669580000000 1.0
C      1  0.5039000000000  0.4972150000000  0.5727440000000 1.0
C      1  0.4128740000000  0.4633220000000  0.4699570000000 1.0
C      1  0.5245100000000  0.5711690000000  0.5591650000000 1.0
C      1  0.4826910000000  0.4745660000000  0.5659170000000 1.0
C      1  0.5825250000000  0.4456370000000  0.4483710000000 1.0
C      1  0.4089860000000  0.5288490000000  0.4336120000000 1.0
C      1  0.5351940000000  0.4402490000000  0.6186360000000 1.0
C      1  0.4240500000000  0.4495500000000  0.4444450000000 1.0
C      1  0.4641690000000  0.5866940000000  0.4240150000000 1.0
C      1  0.4883740000000  0.4434640000000  0.5270740000000 1.0
C      1  0.4228890000000  0.5381820000000  0.5884420000000 1.0
C      1  0.4620010000000  0.4363300000000  0.5179460000000 1.0
C      1  0.3992720000000  0.5217540000000  0.5154000000000 1.0
C      1  0.5392430000000  0.4887140000000  0.4832590000000 1.0
C      1  0.5184190000000  0.4761710000000  0.4697080000000 1.0
END
