TITL C-599893-4344-694 11.64721070453 125000 -688.711229391145 0 0 114 (C1) n - 1
REM
REM in /home/nfs/bkarasulu/CARBON/AIRSS/Generating-Clusters/TERSOFF/Only-C1/FIRE-HFTN
REM
REM
REM
REM
REM
REM ./C.cell (11c1c37f851c82e70ff6c80c92926a4b)
REM AIRSS Version 0.9.1 bugfix July 2018 build 013d7b7c2542+ Fri, 06 Jul 2018 19:26:36 +0100
REM compiler GCC version 9.2.1 20190827 (Red Hat 9.2.1-1)
REM options -cpp -mtune=generic -march=x86-64 -g -O0 -fpre-include=/usr/include/finclude/math-vector-fortran.h
REM seed -2048966303 1078402221 -2010092910 2020960246 -1226256277 2046093158 1877183033 -1958156421 261244504 -188489147 1541138188 1695908284 -511022033 -1384321880 958431133 -747434659 -495270167 2077448375 923697359 615585600 337865018 455351597 845488326 1649365761 1056381560 -1096035948 653099502 1959602341 1440965751 -1358633011 1890166431 1576465870 -1489242447
REM
CELL 1.54180   50.00000   50.00000   50.00000   90.00000   90.00000   90.00000
LATT -1
SFAC C  
C      1  0.5722100000000  0.4576850000000  0.5479630000000 1.0
C      1  0.5023580000000  0.5424230000000  0.5479410000000 1.0
C      1  0.5272160000000  0.4397010000000  0.4768750000000 1.0
C      1  0.5387980000000  0.5050550000000  0.5414990000000 1.0
C      1  0.5607710000000  0.4626610000000  0.5226700000000 1.0
C      1  0.5711950000000  0.4549930000000  0.4967980000000 1.0
C      1  0.5380450000000  0.5259500000000  0.4424580000000 1.0
C      1  0.5822560000000  0.5783800000000  0.5087640000000 1.0
C      1  0.5574960000000  0.5244020000000  0.3931760000000 1.0
C      1  0.4604770000000  0.5133410000000  0.5988100000000 1.0
C      1  0.2676830000000  0.4918310000000  0.5653400000000 1.0
C      1  0.5479570000000  0.5758810000000  0.4751430000000 1.0
C      1  0.5926940000000  0.4705810000000  0.4862920000000 1.0
C      1  0.5160490000000  0.4612880000000  0.4612110000000 1.0
C      1  0.5107300000000  0.5185160000000  0.4428340000000 1.0
C      1  0.5279710000000  0.4331600000000  0.3971780000000 1.0
C      1  0.4801210000000  0.3968680000000  0.5172490000000 1.0
C      1  0.4187660000000  0.6037190000000  0.5942850000000 1.0
C      1  0.4619680000000  0.5544380000000  0.4212040000000 1.0
C      1  0.4907150000000  0.4487020000000  0.5442750000000 1.0
C      1  0.4593020000000  0.4768770000000  0.5706500000000 1.0
C      1  0.5296190000000  0.5564300000000  0.4855500000000 1.0
C      1  0.4598250000000  0.4415950000000  0.4824000000000 1.0
C      1  0.5046300000000  0.5526110000000  0.4733490000000 1.0
C      1  0.4796510000000  0.5768640000000  0.4223000000000 1.0
C      1  0.5548700000000  0.5143310000000  0.4610730000000 1.0
C      1  0.4662270000000  0.5366540000000  0.4424240000000 1.0
C      1  0.5880610000000  0.5217200000000  0.5569770000000 1.0
C      1  0.5496490000000  0.4719250000000  0.5887270000000 1.0
C      1  0.5596520000000  0.4594440000000  0.4267750000000 1.0
C      1  0.4959460000000  0.4235020000000  0.5557110000000 1.0
C      1  0.3433810000000  0.5105790000000  0.5498630000000 1.0
C      1  0.4824850000000  0.4640020000000  0.5217180000000 1.0
C      1  0.5113770000000  0.4595370000000  0.4337230000000 1.0
C      1  0.4860680000000  0.4503580000000  0.4247830000000 1.0
C      1  0.5472990000000  0.5500830000000  0.4308200000000 1.0
C      1  0.5279740000000  0.5547340000000  0.5428590000000 1.0
C      1  0.4539440000000  0.4936370000000  0.5481590000000 1.0
C      1  0.5132510000000  0.4211700000000  0.5775360000000 1.0
C      1  0.6059570000000  0.5365480000000  0.4982890000000 1.0
C      1  0.4449950000000  0.5291390000000  0.5804310000000 1.0
C      1  0.3938580000000  0.5230720000000  0.5396980000000 1.0
C      1  0.4833570000000  0.4478660000000  0.4979520000000 1.0
C      1  0.5103890000000  0.6095010000000  0.5056000000000 1.0
C      1  0.4929060000000  0.6162610000000  0.4847130000000 1.0
C      1  0.5559180000000  0.4410080000000  0.4764220000000 1.0
C      1  0.3686110000000  0.5168280000000  0.5447080000000 1.0
C      1  0.5419910000000  0.5365610000000  0.5017280000000 1.0
C      1  0.4544040000000  0.3993910000000  0.5046480000000 1.0
C      1  0.5411280000000  0.4836600000000  0.5222670000000 1.0
C      1  0.5450140000000  0.5483860000000  0.4026600000000 1.0
C      1  0.4550580000000  0.4132950000000  0.4793190000000 1.0
C      1  0.5590680000000  0.5903040000000  0.4972960000000 1.0
C      1  0.4717210000000  0.4910620000000  0.5258290000000 1.0
C      1  0.4842230000000  0.5420720000000  0.5258170000000 1.0
C      1  0.5818530000000  0.4880120000000  0.3738790000000 1.0
C      1  0.4768430000000  0.5916240000000  0.4463680000000 1.0
C      1  0.5015880000000  0.5763470000000  0.4042420000000 1.0
C      1  0.5385880000000  0.6007330000000  0.5143130000000 1.0
C      1  0.5723410000000  0.4736710000000  0.5715230000000 1.0
C      1  0.5033570000000  0.5228880000000  0.5674550000000 1.0
C      1  0.4888340000000  0.5299410000000  0.4601710000000 1.0
C      1  0.4991060000000  0.4801370000000  0.5991000000000 1.0
C      1  0.5278420000000  0.4142000000000  0.5979830000000 1.0
C      1  0.4783030000000  0.5161940000000  0.5125260000000 1.0
C      1  0.4714920000000  0.3996420000000  0.4595070000000 1.0
C      1  0.4836820000000  0.4236720000000  0.4148390000000 1.0
C      1  0.6003480000000  0.4919620000000  0.4691840000000 1.0
C      1  0.4754510000000  0.5953030000000  0.4745960000000 1.0
C      1  0.5138890000000  0.4829800000000  0.4783720000000 1.0
C      1  0.5866260000000  0.4981670000000  0.5698980000000 1.0
C      1  0.4268500000000  0.5469920000000  0.5139950000000 1.0
C      1  0.4789970000000  0.5155200000000  0.4842850000000 1.0
C      1  0.4632150000000  0.5767550000000  0.4940340000000 1.0
C      1  0.2428610000000  0.4856840000000  0.5704150000000 1.0
C      1  0.5259530000000  0.3501990000000  0.4503110000000 1.0
C      1  0.5051590000000  0.4180160000000  0.3969350000000 1.0
C      1  0.4433380000000  0.4605780000000  0.4718380000000 1.0
C      1  0.5932750000000  0.4909770000000  0.4415450000000 1.0
C      1  0.5766590000000  0.5383070000000  0.5370930000000 1.0
C      1  0.5908950000000  0.5523040000000  0.5162950000000 1.0
C      1  0.4765340000000  0.3790080000000  0.5622060000000 1.0
C      1  0.5068000000000  0.4297100000000  0.4939660000000 1.0
C      1  0.5540040000000  0.5717080000000  0.4478870000000 1.0
C      1  0.4431340000000  0.5510120000000  0.4018840000000 1.0
C      1  0.4272600000000  0.5792550000000  0.5912920000000 1.0
C      1  0.5270270000000  0.5816960000000  0.5356560000000 1.0
C      1  0.2929200000000  0.4980820000000  0.5601800000000 1.0
C      1  0.6088640000000  0.5159350000000  0.4814590000000 1.0
C      1  0.3181500000000  0.5043300000000  0.5550220000000 1.0
C      1  0.5708770000000  0.4991220000000  0.3966700000000 1.0
C      1  0.4964820000000  0.5893910000000  0.5267010000000 1.0
C      1  0.4398430000000  0.5181640000000  0.5539660000000 1.0
C      1  0.4918380000000  0.6415960000000  0.4744920000000 1.0
C      1  0.4378850000000  0.5643700000000  0.4964510000000 1.0
C      1  0.5108350000000  0.3683210000000  0.4613610000000 1.0
C      1  0.5664940000000  0.4435510000000  0.4497170000000 1.0
C      1  0.5005590000000  0.4019080000000  0.4971740000000 1.0
C      1  0.5229900000000  0.5029940000000  0.5652350000000 1.0
C      1  0.4952260000000  0.3885940000000  0.4719850000000 1.0
C      1  0.4722220000000  0.4877920000000  0.5936090000000 1.0
C      1  0.5241250000000  0.4836780000000  0.5859500000000 1.0
C      1  0.5744260000000  0.4837890000000  0.4212300000000 1.0
C      1  0.4695350000000  0.3599050000000  0.5784920000000 1.0
C      1  0.4799470000000  0.5691780000000  0.5161530000000 1.0
C      1  0.5338400000000  0.4534840000000  0.4163250000000 1.0
C      1  0.4712140000000  0.4053040000000  0.4320110000000 1.0
C      1  0.5479200000000  0.5131550000000  0.4876280000000 1.0
C      1  0.4358650000000  0.5544860000000  0.5875180000000 1.0
C      1  0.4842630000000  0.3996200000000  0.5449810000000 1.0
C      1  0.4208420000000  0.5296680000000  0.5356840000000 1.0
C      1  0.5472000000000  0.5341940000000  0.5317010000000 1.0
C      1  0.5329970000000  0.4915020000000  0.4965770000000 1.0
C      1  0.5232550000000  0.5641170000000  0.3934020000000 1.0
END
