TITL C-599894-471-1316 0.00248294683024195 125000 -1156.60785248991 0 0 187 (C1) n - 1
REM
REM in /home/nfs/bkarasulu/CARBON/AIRSS/Generating-Clusters/TERSOFF/Only-C1/FIRE-HFTN
REM
REM
REM
REM
REM
REM ./C.cell (11c1c37f851c82e70ff6c80c92926a4b)
REM AIRSS Version 0.9.1 bugfix July 2018 build 013d7b7c2542+ Fri, 06 Jul 2018 19:26:36 +0100
REM compiler GCC version 9.2.1 20190827 (Red Hat 9.2.1-1)
REM options -cpp -mtune=generic -march=x86-64 -g -O0 -fpre-include=/usr/include/finclude/math-vector-fortran.h
REM seed -1724981808 -1340359884 -401814723 -605349227 -1411729490 1268038869 -907630844 -762874048 670204406 842939913 658010960 1298638124 2091598944 1907150801 1637286480 -1308068961 1783053976 850799333 602849754 -33833437 1631591041 1018971873 -762910879 1126979826 1902583856 892007441 1488611330 1981322065 1325365830 -379134280 566068980 2133281195 -1252284624
REM
CELL 1.54180   50.00000   50.00000   50.00000   90.00000   90.00000   90.00000
LATT -1
SFAC C  
C      1  0.5355110000000  0.5259010000000  0.4816630000000 1.0
C      1  0.5280230000000  0.5223720000000  0.4223480000000 1.0
C      1  0.4812650000000  0.3904350000000  0.5822640000000 1.0
C      1  0.5380870000000  0.6000720000000  0.5306340000000 1.0
C      1  0.4293110000000  0.5967300000000  0.4727400000000 1.0
C      1  0.6018010000000  0.5641130000000  0.5571080000000 1.0
C      1  0.4809800000000  0.4993540000000  0.5409430000000 1.0
C      1  0.4555190000000  0.5009670000000  0.4287110000000 1.0
C      1  0.4478940000000  0.3956920000000  0.5151630000000 1.0
C      1  0.4416240000000  0.4084950000000  0.5605000000000 1.0
C      1  0.4846280000000  0.5201020000000  0.6134740000000 1.0
C      1  0.5345550000000  0.4474820000000  0.4697160000000 1.0
C      1  0.3917870000000  0.5236100000000  0.5351950000000 1.0
C      1  0.4811530000000  0.5281540000000  0.5295120000000 1.0
C      1  0.4356080000000  0.5032830000000  0.6181480000000 1.0
C      1  0.5058380000000  0.5019040000000  0.6201960000000 1.0
C      1  0.4234410000000  0.5568550000000  0.5546540000000 1.0
C      1  0.4314870000000  0.4949650000000  0.3858080000000 1.0
C      1  0.5064670000000  0.5367930000000  0.5724570000000 1.0
C      1  0.5612150000000  0.4619170000000  0.4328160000000 1.0
C      1  0.5388880000000  0.4704550000000  0.4141710000000 1.0
C      1  0.5613530000000  0.4511710000000  0.5918520000000 1.0
C      1  0.4672270000000  0.4358420000000  0.5918080000000 1.0
C      1  0.4222270000000  0.4495770000000  0.4249070000000 1.0
C      1  0.4666000000000  0.5775970000000  0.5578110000000 1.0
C      1  0.5463560000000  0.4960910000000  0.5812560000000 1.0
C      1  0.4777610000000  0.4840030000000  0.5727260000000 1.0
C      1  0.5629250000000  0.5179880000000  0.4795620000000 1.0
C      1  0.5270140000000  0.5488050000000  0.4125610000000 1.0
C      1  0.3977320000000  0.4969080000000  0.5408160000000 1.0
C      1  0.4667220000000  0.4437700000000  0.4042250000000 1.0
C      1  0.3986990000000  0.4869090000000  0.5871890000000 1.0
C      1  0.5106220000000  0.5961320000000  0.4123070000000 1.0
C      1  0.4236310000000  0.4868810000000  0.5334360000000 1.0
C      1  0.4420200000000  0.4234320000000  0.4723160000000 1.0
C      1  0.5221590000000  0.3750900000000  0.4789340000000 1.0
C      1  0.4404720000000  0.5789610000000  0.5444640000000 1.0
C      1  0.5897890000000  0.5891860000000  0.4864060000000 1.0
C      1  0.5876680000000  0.5678150000000  0.4677520000000 1.0
C      1  0.5066160000000  0.5680970000000  0.4094150000000 1.0
C      1  0.5498610000000  0.5463650000000  0.5867650000000 1.0
C      1  0.4068710000000  0.5130750000000  0.4229720000000 1.0
C      1  0.5158600000000  0.5069790000000  0.4887830000000 1.0
C      1  0.5854480000000  0.4837460000000  0.5060080000000 1.0
C      1  0.4856030000000  0.5431090000000  0.4813410000000 1.0
C      1  0.5069020000000  0.4470330000000  0.4680830000000 1.0
C      1  0.4915810000000  0.4325190000000  0.4858480000000 1.0
C      1  0.5418870000000  0.6479070000000  0.5375610000000 1.0
C      1  0.4784250000000  0.5593320000000  0.4074180000000 1.0
C      1  0.6045340000000  0.4666440000000  0.5556340000000 1.0
C      1  0.5353380000000  0.5243170000000  0.5732400000000 1.0
C      1  0.5966840000000  0.4394660000000  0.5511560000000 1.0
C      1  0.5573780000000  0.3840050000000  0.5607200000000 1.0
C      1  0.5725430000000  0.4343100000000  0.5135500000000 1.0
C      1  0.5754770000000  0.5132340000000  0.5074010000000 1.0
C      1  0.4647580000000  0.5247130000000  0.4403650000000 1.0
C      1  0.6040350000000  0.5708110000000  0.5297260000000 1.0
C      1  0.5570630000000  0.5806220000000  0.5218310000000 1.0
C      1  0.4317530000000  0.5826510000000  0.5174860000000 1.0
C      1  0.5953080000000  0.5133750000000  0.5657020000000 1.0
C      1  0.5466420000000  0.3797780000000  0.4691390000000 1.0
C      1  0.4863530000000  0.6091450000000  0.4195780000000 1.0
C      1  0.6159550000000  0.5498210000000  0.5149990000000 1.0
C      1  0.3853720000000  0.5476870000000  0.4426030000000 1.0
C      1  0.5312820000000  0.4983670000000  0.4051180000000 1.0
C      1  0.4606840000000  0.4867170000000  0.4931840000000 1.0
C      1  0.3888020000000  0.5081450000000  0.4690290000000 1.0
C      1  0.4536150000000  0.4955230000000  0.4012340000000 1.0
C      1  0.6433850000000  0.5049290000000  0.4626660000000 1.0
C      1  0.5547280000000  0.4126000000000  0.5620170000000 1.0
C      1  0.4532180000000  0.4173680000000  0.4437870000000 1.0
C      1  0.4586400000000  0.5709730000000  0.4277530000000 1.0
C      1  0.4652600000000  0.4369330000000  0.4861580000000 1.0
C      1  0.4879670000000  0.5319070000000  0.4547420000000 1.0
C      1  0.4977860000000  0.5458740000000  0.5452070000000 1.0
C      1  0.4477320000000  0.3951830000000  0.4865560000000 1.0
C      1  0.4789010000000  0.4796920000000  0.5158010000000 1.0
C      1  0.5400100000000  0.6265880000000  0.5205530000000 1.0
C      1  0.4096930000000  0.5422480000000  0.4272370000000 1.0
C      1  0.5311500000000  0.4707210000000  0.5408070000000 1.0
C      1  0.4389130000000  0.5414090000000  0.5728620000000 1.0
C      1  0.5001810000000  0.4048470000000  0.4326070000000 1.0
C      1  0.4970680000000  0.3807180000000  0.4907480000000 1.0
C      1  0.4739520000000  0.3865440000000  0.4736450000000 1.0
C      1  0.4202880000000  0.4686680000000  0.4489090000000 1.0
C      1  0.4697560000000  0.3839520000000  0.5314780000000 1.0
C      1  0.5986600000000  0.6142560000000  0.4779070000000 1.0
C      1  0.3674190000000  0.4278520000000  0.4865530000000 1.0
C      1  0.4416190000000  0.4269800000000  0.5820830000000 1.0
C      1  0.5288210000000  0.6264250000000  0.4675890000000 1.0
C      1  0.4594010000000  0.5139060000000  0.6247070000000 1.0
C      1  0.3717610000000  0.4944750000000  0.4854430000000 1.0
C      1  0.5060150000000  0.4849590000000  0.5028280000000 1.0
C      1  0.4913380000000  0.4541000000000  0.3998050000000 1.0
C      1  0.6072250000000  0.6376950000000  0.4703970000000 1.0
C      1  0.4056720000000  0.5476660000000  0.5338720000000 1.0
C      1  0.5567730000000  0.4127080000000  0.5096010000000 1.0
C      1  0.4706230000000  0.5958970000000  0.4400330000000 1.0
C      1  0.5270950000000  0.5894180000000  0.5762610000000 1.0
C      1  0.5367550000000  0.3726330000000  0.5462530000000 1.0
C      1  0.4200830000000  0.4468840000000  0.4729030000000 1.0
C      1  0.4229310000000  0.5001360000000  0.5933090000000 1.0
C      1  0.6431750000000  0.5281340000000  0.4488120000000 1.0
C      1  0.5529700000000  0.4397930000000  0.4501380000000 1.0
C      1  0.5448480000000  0.4747090000000  0.6006820000000 1.0
C      1  0.5132380000000  0.5036760000000  0.3830410000000 1.0
C      1  0.5673690000000  0.3954880000000  0.4623820000000 1.0
C      1  0.5174490000000  0.4222670000000  0.4208620000000 1.0
C      1  0.4763770000000  0.3994930000000  0.4471940000000 1.0
C      1  0.5728640000000  0.4332630000000  0.5700000000000 1.0
C      1  0.4722390000000  0.4533420000000  0.5293720000000 1.0
C      1  0.6130900000000  0.4827080000000  0.4972530000000 1.0
C      1  0.5998150000000  0.4314470000000  0.5217320000000 1.0
C      1  0.4929310000000  0.5212380000000  0.3787910000000 1.0
C      1  0.5042260000000  0.5618450000000  0.4921090000000 1.0
C      1  0.4928950000000  0.4695060000000  0.4586640000000 1.0
C      1  0.5346280000000  0.6079710000000  0.4208950000000 1.0
C      1  0.3719210000000  0.4451200000000  0.5312680000000 1.0
C      1  0.5176990000000  0.4490320000000  0.4098250000000 1.0
C      1  0.5695240000000  0.4603580000000  0.5027940000000 1.0
C      1  0.5574040000000  0.4818590000000  0.5565650000000 1.0
C      1  0.4894190000000  0.4466420000000  0.5511940000000 1.0
C      1  0.4315400000000  0.5609040000000  0.4365050000000 1.0
C      1  0.5177810000000  0.5918020000000  0.5496170000000 1.0
C      1  0.4639780000000  0.5553580000000  0.5796760000000 1.0
C      1  0.5009300000000  0.6233220000000  0.4667170000000 1.0
C      1  0.4119920000000  0.5618580000000  0.5096420000000 1.0
C      1  0.5177090000000  0.4444880000000  0.5494200000000 1.0
C      1  0.4506330000000  0.5129120000000  0.4952100000000 1.0
C      1  0.5443560000000  0.4610310000000  0.4921580000000 1.0
C      1  0.5355850000000  0.5183460000000  0.5434940000000 1.0
C      1  0.6217810000000  0.5436540000000  0.4434090000000 1.0
C      1  0.4957680000000  0.3850040000000  0.5196980000000 1.0
C      1  0.5999020000000  0.5396330000000  0.5683520000000 1.0
C      1  0.5305690000000  0.5520430000000  0.4929340000000 1.0
C      1  0.3860400000000  0.4820750000000  0.5623370000000 1.0
C      1  0.5402670000000  0.6303460000000  0.4927110000000 1.0
C      1  0.5970430000000  0.4393820000000  0.4660310000000 1.0
C      1  0.4791080000000  0.4563980000000  0.5763100000000 1.0
C      1  0.4479760000000  0.4813420000000  0.4476170000000 1.0
C      1  0.5955010000000  0.5442130000000  0.4540280000000 1.0
C      1  0.4667620000000  0.4764460000000  0.4675180000000 1.0
C      1  0.3719550000000  0.4593140000000  0.5540240000000 1.0
C      1  0.5475740000000  0.5550010000000  0.5153380000000 1.0
C      1  0.4248810000000  0.4619930000000  0.5195680000000 1.0
C      1  0.4451360000000  0.4438370000000  0.5276470000000 1.0
C      1  0.5178080000000  0.3926390000000  0.5364150000000 1.0
C      1  0.4445440000000  0.4994140000000  0.5481800000000 1.0
C      1  0.5266750000000  0.4683940000000  0.5114450000000 1.0
C      1  0.5287050000000  0.4182990000000  0.5487070000000 1.0
C      1  0.4834380000000  0.4128630000000  0.5979340000000 1.0
C      1  0.4904100000000  0.5812590000000  0.5090310000000 1.0
C      1  0.4718010000000  0.5967880000000  0.4932610000000 1.0
C      1  0.4929060000000  0.5760010000000  0.5405020000000 1.0
C      1  0.4697580000000  0.5319880000000  0.5028270000000 1.0
C      1  0.4532040000000  0.5469890000000  0.3677950000000 1.0
C      1  0.3820520000000  0.4415490000000  0.5051960000000 1.0
C      1  0.5433650000000  0.5724210000000  0.5892580000000 1.0
C      1  0.5824370000000  0.5184630000000  0.4584250000000 1.0
C      1  0.3891850000000  0.5370880000000  0.4692880000000 1.0
C      1  0.4078090000000  0.4521500000000  0.4985760000000 1.0
C      1  0.5861510000000  0.4879240000000  0.5573350000000 1.0
C      1  0.4080580000000  0.5028990000000  0.3966440000000 1.0
C      1  0.5076130000000  0.4896780000000  0.4475530000000 1.0
C      1  0.4027020000000  0.4951340000000  0.4467250000000 1.0
C      1  0.6120510000000  0.4337040000000  0.4935190000000 1.0
C      1  0.4225970000000  0.5712560000000  0.4627390000000 1.0
C      1  0.5548340000000  0.5287450000000  0.5257490000000 1.0
C      1  0.4464510000000  0.4342910000000  0.4216400000000 1.0
C      1  0.4796600000000  0.6047490000000  0.4666550000000 1.0
C      1  0.5146680000000  0.4971940000000  0.5435050000000 1.0
C      1  0.5745840000000  0.4223060000000  0.4585600000000 1.0
C      1  0.6205370000000  0.4911510000000  0.4713370000000 1.0
C      1  0.4382670000000  0.4167930000000  0.5329780000000 1.0
C      1  0.6020660000000  0.5277390000000  0.5092430000000 1.0
C      1  0.4366600000000  0.5132680000000  0.5716730000000 1.0
C      1  0.4855890000000  0.5393600000000  0.5915500000000 1.0
C      1  0.4640570000000  0.3887770000000  0.5596870000000 1.0
C      1  0.5971220000000  0.4933540000000  0.4542700000000 1.0
C      1  0.4740250000000  0.5419110000000  0.3848790000000 1.0
C      1  0.5873420000000  0.4683940000000  0.4457180000000 1.0
C      1  0.5422570000000  0.6202670000000  0.4436230000000 1.0
C      1  0.4076320000000  0.5549860000000  0.4823080000000 1.0
C      1  0.5240540000000  0.4816640000000  0.6188970000000 1.0
C      1  0.4439740000000  0.5971810000000  0.4970200000000 1.0
C      1  0.5842610000000  0.5848350000000  0.5144370000000 1.0
C      1  0.5103340000000  0.5170990000000  0.4438740000000 1.0
END
