TITL C-599893-4344-127 -0.000121946063023075 125000 -554.494833417461 0 0 91 (C1) n - 1
REM
REM in /home/nfs/bkarasulu/CARBON/AIRSS/Generating-Clusters/TERSOFF/Only-C1/FIRE-HFTN
REM
REM
REM
REM
REM
REM ./C.cell (11c1c37f851c82e70ff6c80c92926a4b)
REM AIRSS Version 0.9.1 bugfix July 2018 build 013d7b7c2542+ Fri, 06 Jul 2018 19:26:36 +0100
REM compiler GCC version 9.2.1 20190827 (Red Hat 9.2.1-1)
REM options -cpp -mtune=generic -march=x86-64 -g -O0 -fpre-include=/usr/include/finclude/math-vector-fortran.h
REM seed -2005231930 1691973922 -509596416 -1188699134 549112241 5095461 1520476688 -276665368 1901537346 -1320271411 -1967526975 1279691495 1896958761 -245921937 1062330484 1198898268 -245501373 33124835 655139231 341430475 82469544 -1247189383 -313426591 1218120295 692439025 -8710070 -1173925866 -2004515313 -1385684703 2060117931 -578212161 -291779991 -617866273
REM
CELL 1.54180   50.00000   50.00000   50.00000   90.00000   90.00000   90.00000
LATT -1
SFAC C  
C      1  0.4776440000000  0.5690590000000  0.5078430000000 1.0
C      1  0.5245150000000  0.5801100000000  0.5301890000000 1.0
C      1  0.5192030000000  0.5289430000000  0.4860850000000 1.0
C      1  0.4326140000000  0.5329910000000  0.4449910000000 1.0
C      1  0.5358600000000  0.5209620000000  0.5908570000000 1.0
C      1  0.5840150000000  0.5352370000000  0.5333550000000 1.0
C      1  0.4781770000000  0.5534170000000  0.4607000000000 1.0
C      1  0.4593600000000  0.5140800000000  0.4020470000000 1.0
C      1  0.5821050000000  0.5111930000000  0.5741650000000 1.0
C      1  0.5382580000000  0.5066530000000  0.4475020000000 1.0
C      1  0.4388650000000  0.4462340000000  0.5300470000000 1.0
C      1  0.4616210000000  0.4439730000000  0.4583360000000 1.0
C      1  0.4976150000000  0.5221650000000  0.5584120000000 1.0
C      1  0.4565580000000  0.4543060000000  0.4843900000000 1.0
C      1  0.5153260000000  0.5091320000000  0.5760100000000 1.0
C      1  0.4458030000000  0.4335100000000  0.5547440000000 1.0
C      1  0.4851310000000  0.5729250000000  0.4805190000000 1.0
C      1  0.5263750000000  0.5692950000000  0.3813210000000 1.0
C      1  0.4580600000000  0.4746240000000  0.5721080000000 1.0
C      1  0.5001900000000  0.5174810000000  0.5036480000000 1.0
C      1  0.5686200000000  0.5564380000000  0.5280260000000 1.0
C      1  0.5574460000000  0.4198850000000  0.5342510000000 1.0
C      1  0.4799620000000  0.5311080000000  0.4016060000000 1.0
C      1  0.4949210000000  0.5752140000000  0.5297380000000 1.0
C      1  0.4307090000000  0.4741960000000  0.5316610000000 1.0
C      1  0.5181340000000  0.5239890000000  0.4582880000000 1.0
C      1  0.5077440000000  0.4616400000000  0.5547260000000 1.0
C      1  0.5363110000000  0.4178610000000  0.5783080000000 1.0
C      1  0.5870100000000  0.5105010000000  0.5464390000000 1.0
C      1  0.4544040000000  0.4686150000000  0.4171140000000 1.0
C      1  0.4327380000000  0.5743360000000  0.6084950000000 1.0
C      1  0.4985270000000  0.5400190000000  0.4450290000000 1.0
C      1  0.4810040000000  0.4622970000000  0.4087850000000 1.0
C      1  0.4088720000000  0.4875380000000  0.4848030000000 1.0
C      1  0.4779400000000  0.4232430000000  0.5140340000000 1.0
C      1  0.5398520000000  0.5934650000000  0.3792990000000 1.0
C      1  0.5625590000000  0.5187350000000  0.5908210000000 1.0
C      1  0.5205140000000  0.5924260000000  0.4217180000000 1.0
C      1  0.4449850000000  0.4953920000000  0.4176820000000 1.0
C      1  0.5287380000000  0.5942190000000  0.5551390000000 1.0
C      1  0.5584620000000  0.4359960000000  0.4614900000000 1.0
C      1  0.5020080000000  0.4382750000000  0.5113880000000 1.0
C      1  0.4544870000000  0.4378520000000  0.5076220000000 1.0
C      1  0.4656340000000  0.4466110000000  0.5705370000000 1.0
C      1  0.5320140000000  0.4681660000000  0.4837300000000 1.0
C      1  0.5357930000000  0.5493330000000  0.4951160000000 1.0
C      1  0.4421530000000  0.5344600000000  0.5271210000000 1.0
C      1  0.4449650000000  0.4502890000000  0.4364630000000 1.0
C      1  0.5262910000000  0.4784450000000  0.5109460000000 1.0
C      1  0.4786330000000  0.5023960000000  0.4940640000000 1.0
C      1  0.5038850000000  0.5210930000000  0.5310950000000 1.0
C      1  0.4974130000000  0.4099000000000  0.4542670000000 1.0
C      1  0.4935220000000  0.4400010000000  0.5672460000000 1.0
C      1  0.5824490000000  0.4623230000000  0.5220400000000 1.0
C      1  0.5097160000000  0.4615500000000  0.5266000000000 1.0
C      1  0.5585600000000  0.4206770000000  0.5626230000000 1.0
C      1  0.4285830000000  0.5057510000000  0.4390700000000 1.0
C      1  0.4513250000000  0.5493800000000  0.4542430000000 1.0
C      1  0.5479990000000  0.4405510000000  0.4898770000000 1.0
C      1  0.5099030000000  0.4159060000000  0.5673070000000 1.0
C      1  0.5173260000000  0.4816400000000  0.5713630000000 1.0
C      1  0.5667340000000  0.4401600000000  0.5148130000000 1.0
C      1  0.5131640000000  0.5996920000000  0.4475130000000 1.0
C      1  0.4502160000000  0.5183610000000  0.5490820000000 1.0
C      1  0.5062000000000  0.4567960000000  0.4711100000000 1.0
C      1  0.5439510000000  0.5643230000000  0.5171700000000 1.0
C      1  0.5009450000000  0.4497150000000  0.4246340000000 1.0
C      1  0.5062950000000  0.5926710000000  0.5711580000000 1.0
C      1  0.5329030000000  0.4066640000000  0.5245860000000 1.0
C      1  0.4842410000000  0.3996710000000  0.5288070000000 1.0
C      1  0.5494170000000  0.4564640000000  0.4424740000000 1.0
C      1  0.5294850000000  0.4510430000000  0.4227750000000 1.0
C      1  0.4144040000000  0.4840470000000  0.5108260000000 1.0
C      1  0.4713530000000  0.5312980000000  0.5641270000000 1.0
C      1  0.4502300000000  0.5669590000000  0.5906420000000 1.0
C      1  0.5005230000000  0.5941510000000  0.4704230000000 1.0
C      1  0.4537930000000  0.5546310000000  0.5135280000000 1.0
C      1  0.4854190000000  0.5774220000000  0.5580730000000 1.0
C      1  0.4984120000000  0.5455480000000  0.4171150000000 1.0
C      1  0.4686130000000  0.5588640000000  0.5713650000000 1.0
C      1  0.4633460000000  0.4814950000000  0.4882150000000 1.0
C      1  0.5533390000000  0.5155080000000  0.4263270000000 1.0
C      1  0.4142310000000  0.4915840000000  0.4588100000000 1.0
C      1  0.5887160000000  0.4860550000000  0.5326330000000 1.0
C      1  0.5249790000000  0.4231970000000  0.5016320000000 1.0
C      1  0.5097690000000  0.4005770000000  0.5423120000000 1.0
C      1  0.4446890000000  0.4902870000000  0.5517660000000 1.0
C      1  0.5367300000000  0.6076330000000  0.4029480000000 1.0
C      1  0.5439340000000  0.4809330000000  0.4585040000000 1.0
C      1  0.5136100000000  0.5670380000000  0.4074010000000 1.0
C      1  0.4909480000000  0.4392120000000  0.4517890000000 1.0
END
