TITL C-599897-7526-641 0.674429113416296 125000 -926.991572762882 0 0 151 (C1) n - 1
REM
REM in /home/nfs/bkarasulu/CARBON/AIRSS/Generating-Clusters/TERSOFF/Only-C1/FIRE-HFTN
REM
REM
REM
REM
REM
REM ./C.cell (11c1c37f851c82e70ff6c80c92926a4b)
REM AIRSS Version 0.9.1 bugfix July 2018 build 013d7b7c2542+ Fri, 06 Jul 2018 19:26:36 +0100
REM compiler GCC version 9.2.1 20190827 (Red Hat 9.2.1-1)
REM options -cpp -mtune=generic -march=x86-64 -g -O0 -fpre-include=/usr/include/finclude/math-vector-fortran.h
REM seed -1729347318 424871037 2080332864 1806974651 1050284744 -1746029571 -652321955 -892268389 -1350536720 -2093411527 -458661322 1510530791 1527626498 2138357506 424430698 -942505028 1460576935 652344515 1504409291 -819726983 893449381 -354678940 243976934 93290804 2127165836 -1009904587 240979253 -407477568 -186575211 -1462607312 -479758094 2006855827 143792097
REM
CELL 1.54180   50.00000   50.00000   50.00000   90.00000   90.00000   90.00000
LATT -1
SFAC C  
C      1  0.5514760000000  0.3946440000000  0.4804120000000 1.0
C      1  0.5668760000000  0.4760970000000  0.5872680000000 1.0
C      1  0.4833420000000  0.5910810000000  0.5512490000000 1.0
C      1  0.4164790000000  0.4975420000000  0.4153740000000 1.0
C      1  0.4908160000000  0.5654620000000  0.3982620000000 1.0
C      1  0.5003180000000  0.6065140000000  0.4471730000000 1.0
C      1  0.5782750000000  0.5021480000000  0.4871810000000 1.0
C      1  0.4938240000000  0.5420720000000  0.4668480000000 1.0
C      1  0.5229890000000  0.5441770000000  0.5778740000000 1.0
C      1  0.4406440000000  0.5731450000000  0.5464750000000 1.0
C      1  0.4905260000000  0.5223160000000  0.5166780000000 1.0
C      1  0.5980200000000  0.4505970000000  0.5012880000000 1.0
C      1  0.4351290000000  0.4439080000000  0.5482150000000 1.0
C      1  0.4521160000000  0.5807910000000  0.4297910000000 1.0
C      1  0.5251970000000  0.4503210000000  0.5003380000000 1.0
C      1  0.5089680000000  0.5952530000000  0.5399490000000 1.0
C      1  0.3985190000000  0.4804590000000  0.4302350000000 1.0
C      1  0.5500070000000  0.4676380000000  0.4628040000000 1.0
C      1  0.4821030000000  0.4103700000000  0.5963760000000 1.0
C      1  0.4925820000000  0.4579730000000  0.5969580000000 1.0
C      1  0.4260120000000  0.5201360000000  0.4308780000000 1.0
C      1  0.4285860000000  0.5096360000000  0.5964290000000 1.0
C      1  0.4546270000000  0.4389440000000  0.5679020000000 1.0
C      1  0.4830230000000  0.5507980000000  0.4429290000000 1.0
C      1  0.5243730000000  0.5225130000000  0.4205380000000 1.0
C      1  0.4185150000000  0.4277790000000  0.4791200000000 1.0
C      1  0.4264030000000  0.5189660000000  0.5692890000000 1.0
C      1  0.5129860000000  0.5984460000000  0.5114670000000 1.0
C      1  0.6170720000000  0.4993800000000  0.5083210000000 1.0
C      1  0.5698320000000  0.5516160000000  0.4743780000000 1.0
C      1  0.5698070000000  0.4077230000000  0.4994890000000 1.0
C      1  0.4896470000000  0.4691300000000  0.4739370000000 1.0
C      1  0.4966030000000  0.5848980000000  0.4912770000000 1.0
C      1  0.5662470000000  0.4183530000000  0.5490240000000 1.0
C      1  0.5456760000000  0.5407580000000  0.4116940000000 1.0
C      1  0.5229510000000  0.4387770000000  0.5465010000000 1.0
C      1  0.3974900000000  0.5434860000000  0.4996280000000 1.0
C      1  0.4898580000000  0.5056730000000  0.5393910000000 1.0
C      1  0.4182840000000  0.5006090000000  0.4705490000000 1.0
C      1  0.5448970000000  0.3903300000000  0.4330900000000 1.0
C      1  0.4169340000000  0.4398070000000  0.4167480000000 1.0
C      1  0.5238690000000  0.3995490000000  0.4912340000000 1.0
C      1  0.5862030000000  0.5451060000000  0.4983730000000 1.0
C      1  0.4204380000000  0.4523360000000  0.4649750000000 1.0
C      1  0.5540360000000  0.4890280000000  0.5432280000000 1.0
C      1  0.4340810000000  0.5590580000000  0.5219480000000 1.0
C      1  0.5287720000000  0.3993020000000  0.5205450000000 1.0
C      1  0.5521920000000  0.5206780000000  0.6111680000000 1.0
C      1  0.3646130000000  0.4641940000000  0.5403080000000 1.0
C      1  0.5079400000000  0.4915010000000  0.4745890000000 1.0
C      1  0.5938520000000  0.3406690000000  0.4557500000000 1.0
C      1  0.4506270000000  0.5117900000000  0.6125640000000 1.0
C      1  0.4703520000000  0.4599190000000  0.5790940000000 1.0
C      1  0.5134190000000  0.4126940000000  0.5401490000000 1.0
C      1  0.6028190000000  0.4917140000000  0.4294380000000 1.0
C      1  0.4411200000000  0.5317830000000  0.5148220000000 1.0
C      1  0.5586750000000  0.4679280000000  0.5617340000000 1.0
C      1  0.4668410000000  0.5292350000000  0.5043490000000 1.0
C      1  0.4378070000000  0.4783260000000  0.5065010000000 1.0
C      1  0.4353350000000  0.5805360000000  0.5019770000000 1.0
C      1  0.4404640000000  0.4117240000000  0.4820850000000 1.0
C      1  0.3936110000000  0.4197500000000  0.4889740000000 1.0
C      1  0.6112340000000  0.3212400000000  0.4558410000000 1.0
C      1  0.3825720000000  0.4468710000000  0.5495940000000 1.0
C      1  0.5579280000000  0.4035250000000  0.5257660000000 1.0
C      1  0.5002180000000  0.5214970000000  0.3795490000000 1.0
C      1  0.5282280000000  0.6042220000000  0.4526450000000 1.0
C      1  0.5066670000000  0.4807760000000  0.6046330000000 1.0
C      1  0.5570260000000  0.6289930000000  0.5837740000000 1.0
C      1  0.3699380000000  0.4107440000000  0.4951150000000 1.0
C      1  0.4972370000000  0.4312050000000  0.6054040000000 1.0
C      1  0.4804630000000  0.5681010000000  0.5687790000000 1.0
C      1  0.5396130000000  0.5618380000000  0.5610460000000 1.0
C      1  0.5685120000000  0.5222460000000  0.4133610000000 1.0
C      1  0.5040140000000  0.5087740000000  0.6082690000000 1.0
C      1  0.5256790000000  0.4103360000000  0.4282010000000 1.0
C      1  0.5134310000000  0.5815440000000  0.4063270000000 1.0
C      1  0.5637430000000  0.5783570000000  0.4670730000000 1.0
C      1  0.5752130000000  0.4352540000000  0.4937940000000 1.0
C      1  0.4317960000000  0.5045880000000  0.5165280000000 1.0
C      1  0.5500610000000  0.4412360000000  0.5557670000000 1.0
C      1  0.4619480000000  0.4861410000000  0.3937620000000 1.0
C      1  0.5751030000000  0.5570910000000  0.6436460000000 1.0
C      1  0.4826010000000  0.4918420000000  0.4130580000000 1.0
C      1  0.5648690000000  0.4966000000000  0.6042340000000 1.0
C      1  0.5986560000000  0.5187170000000  0.4979440000000 1.0
C      1  0.4617350000000  0.4134580000000  0.5784750000000 1.0
C      1  0.5601380000000  0.5970330000000  0.4883150000000 1.0
C      1  0.5393110000000  0.6053950000000  0.5032240000000 1.0
C      1  0.5022910000000  0.4442940000000  0.4828840000000 1.0
C      1  0.5642450000000  0.5390110000000  0.6283370000000 1.0
C      1  0.4536300000000  0.5180750000000  0.4359270000000 1.0
C      1  0.5769830000000  0.5553790000000  0.5237740000000 1.0
C      1  0.3589990000000  0.4880190000000  0.5298030000000 1.0
C      1  0.4327640000000  0.5722120000000  0.4750780000000 1.0
C      1  0.3678410000000  0.5123170000000  0.5232550000000 1.0
C      1  0.5577150000000  0.4741070000000  0.4353810000000 1.0
C      1  0.5525990000000  0.5508410000000  0.5379230000000 1.0
C      1  0.4960800000000  0.5442100000000  0.5695200000000 1.0
C      1  0.5294040000000  0.5223620000000  0.4484510000000 1.0
C      1  0.5884560000000  0.4109850000000  0.5640420000000 1.0
C      1  0.5528460000000  0.5329150000000  0.4609840000000 1.0
C      1  0.4722290000000  0.5633150000000  0.4198350000000 1.0
C      1  0.5359540000000  0.5325690000000  0.5241370000000 1.0
C      1  0.4340230000000  0.4815540000000  0.3971750000000 1.0
C      1  0.4530370000000  0.5584510000000  0.5667990000000 1.0
C      1  0.4923600000000  0.5471920000000  0.3771610000000 1.0
C      1  0.4574090000000  0.5973450000000  0.5398350000000 1.0
C      1  0.4647640000000  0.4773850000000  0.4619130000000 1.0
C      1  0.6131870000000  0.4721920000000  0.5076700000000 1.0
C      1  0.5460510000000  0.5060750000000  0.5223010000000 1.0
C      1  0.5045680000000  0.5089500000000  0.4047860000000 1.0
C      1  0.4799920000000  0.5206240000000  0.5614650000000 1.0
C      1  0.6278980000000  0.4872200000000  0.4349100000000 1.0
C      1  0.4815930000000  0.5954820000000  0.4674540000000 1.0
C      1  0.5027650000000  0.5569920000000  0.4895170000000 1.0
C      1  0.5008510000000  0.6050590000000  0.4185260000000 1.0
C      1  0.4055690000000  0.5257080000000  0.5501070000000 1.0
C      1  0.4417920000000  0.4572620000000  0.5243910000000 1.0
C      1  0.5265350000000  0.5258690000000  0.5999900000000 1.0
C      1  0.4772780000000  0.5162410000000  0.6154750000000 1.0
C      1  0.4534940000000  0.5854280000000  0.4583780000000 1.0
C      1  0.5579280000000  0.3814080000000  0.4563780000000 1.0
C      1  0.5751600000000  0.4962760000000  0.4259000000000 1.0
C      1  0.5466930000000  0.5835700000000  0.4439820000000 1.0
C      1  0.5385740000000  0.5695490000000  0.4184780000000 1.0
C      1  0.4081170000000  0.4549790000000  0.4391970000000 1.0
C      1  0.5056440000000  0.4164450000000  0.4750310000000 1.0
C      1  0.5313380000000  0.5894120000000  0.5576340000000 1.0
C      1  0.4078790000000  0.4393730000000  0.5530630000000 1.0
C      1  0.5332490000000  0.4333450000000  0.4140430000000 1.0
C      1  0.4148990000000  0.5257820000000  0.4571960000000 1.0
C      1  0.5119640000000  0.5398210000000  0.5110350000000 1.0
C      1  0.5065040000000  0.5173650000000  0.4641590000000 1.0
C      1  0.4364060000000  0.4760580000000  0.4759760000000 1.0
C      1  0.5762070000000  0.3604320000000  0.4557090000000 1.0
C      1  0.6097190000000  0.4051650000000  0.5779370000000 1.0
C      1  0.5002300000000  0.4798380000000  0.5354740000000 1.0
C      1  0.4524420000000  0.5300420000000  0.5644330000000 1.0
C      1  0.4692430000000  0.4946650000000  0.4386600000000 1.0
C      1  0.3904370000000  0.5293900000000  0.5248140000000 1.0
C      1  0.5444820000000  0.6099380000000  0.5711790000000 1.0
C      1  0.4480070000000  0.6034150000000  0.5135110000000 1.0
C      1  0.5465250000000  0.4564650000000  0.4162880000000 1.0
C      1  0.5162590000000  0.4581590000000  0.5269090000000 1.0
C      1  0.5357200000000  0.4877640000000  0.4770110000000 1.0
C      1  0.5046920000000  0.4113090000000  0.4471810000000 1.0
C      1  0.5514680000000  0.4480380000000  0.4845900000000 1.0
C      1  0.4264310000000  0.4538510000000  0.3953250000000 1.0
C      1  0.5522840000000  0.4987780000000  0.4961620000000 1.0
C      1  0.4132670000000  0.5490140000000  0.4743030000000 1.0
END
