TITL C-599893-4344-1126 -0.000845147260958111 125000 -171.221304712184 0 0 29 (C1) n - 1
REM
REM in /home/nfs/bkarasulu/CARBON/AIRSS/Generating-Clusters/TERSOFF/Only-C1/FIRE-HFTN
REM
REM
REM
REM
REM
REM ./C.cell (11c1c37f851c82e70ff6c80c92926a4b)
REM AIRSS Version 0.9.1 bugfix July 2018 build 013d7b7c2542+ Fri, 06 Jul 2018 19:26:36 +0100
REM compiler GCC version 9.2.1 20190827 (Red Hat 9.2.1-1)
REM options -cpp -mtune=generic -march=x86-64 -g -O0 -fpre-include=/usr/include/finclude/math-vector-fortran.h
REM seed -443901089 -1779489747 -1765387579 2067071349 2128372503 1605961426 1339184102 -659162072 -830423039 1808864104 734467037 -994893028 -506237378 2060749271 1147371845 -1967336719 -747573709 -136585051 387811593 -1413476425 -257173421 1846078058 600315807 -1651229277 1402484112 -500494667 -1003983056 -219446494 2111548613 -386419753 2126399131 1435529096 2074260717
REM
CELL 1.54180   50.00000   50.00000   50.00000   90.00000   90.00000   90.00000
LATT -1
SFAC C  
C      1  0.5813710000000  0.4829740000000  0.5273390000000 1.0
C      1  0.5661050000000  0.4600930000000  0.5236520000000 1.0
C      1  0.4332300000000  0.5263370000000  0.5072920000000 1.0
C      1  0.4996600000000  0.4400400000000  0.4950910000000 1.0
C      1  0.5443740000000  0.5066590000000  0.4210900000000 1.0
C      1  0.5250360000000  0.4477780000000  0.4965500000000 1.0
C      1  0.5428770000000  0.4966580000000  0.4460470000000 1.0
C      1  0.4597980000000  0.5186150000000  0.5012410000000 1.0
C      1  0.4621370000000  0.4922590000000  0.4910390000000 1.0
C      1  0.5723100000000  0.5027390000000  0.5100850000000 1.0
C      1  0.4133320000000  0.5099190000000  0.5156140000000 1.0
C      1  0.4387540000000  0.4683120000000  0.5253630000000 1.0
C      1  0.5057100000000  0.5338210000000  0.4970060000000 1.0
C      1  0.5235940000000  0.5304110000000  0.4758590000000 1.0
C      1  0.4513490000000  0.4693590000000  0.5506050000000 1.0
C      1  0.5254570000000  0.5501950000000  0.4557570000000 1.0
C      1  0.5382770000000  0.5058820000000  0.4723870000000 1.0
C      1  0.4737900000000  0.4458840000000  0.4975290000000 1.0
C      1  0.4564330000000  0.4670760000000  0.5027360000000 1.0
C      1  0.5394360000000  0.5320060000000  0.4130750000000 1.0
C      1  0.4792000000000  0.5111510000000  0.5575270000000 1.0
C      1  0.4845170000000  0.5334300000000  0.5412210000000 1.0
C      1  0.5457920000000  0.4647780000000  0.5033360000000 1.0
C      1  0.5310960000000  0.5518200000000  0.4294750000000 1.0
C      1  0.4829950000000  0.5301870000000  0.5128920000000 1.0
C      1  0.4150560000000  0.4836740000000  0.5221630000000 1.0
C      1  0.5502410000000  0.4926100000000  0.4939440000000 1.0
C      1  0.4906510000000  0.5577190000000  0.5521730000000 1.0
C      1  0.4674220000000  0.4876120000000  0.5619120000000 1.0
END
