TITL C-599891-72-1433 277.079966985733 125000 -814.82222822934 0 0 136 (C1) n - 1
REM
REM in /home/nfs/bkarasulu/CARBON/AIRSS/Generating-Clusters/TERSOFF/Only-C1/FIRE-HFTN
REM
REM
REM
REM
REM
REM ./C.cell (11c1c37f851c82e70ff6c80c92926a4b)
REM AIRSS Version 0.9.1 bugfix July 2018 build 013d7b7c2542+ Fri, 06 Jul 2018 19:26:36 +0100
REM compiler GCC version 9.2.1 20190827 (Red Hat 9.2.1-1)
REM options -cpp -mtune=generic -march=x86-64 -g -O0 -fpre-include=/usr/include/finclude/math-vector-fortran.h
REM seed 751562313 2066048422 -304411544 -1511312264 1372525755 1176143089 1750594780 1816169502 -1872213122 -837778892 -929441666 -2075911610 1398819940 12406453 1811442133 -149786871 1195376554 -1804844490 -356124659 1803570148 1124066990 -2054803675 1794535460 852974496 -1891718310 -1923084644 2053110612 -1380401138 -1813286824 -1106775063 -1913723121 -2071197905 -1989894575
REM
CELL 1.54180   50.00000   50.00000   50.00000   90.00000   90.00000   90.00000
LATT -1
SFAC C  
C      1  0.4480940000000  0.4876140000000  0.4790470000000 1.0
C      1  0.5599670000000  0.4667240000000  0.5638760000000 1.0
C      1  0.5579380000000  0.5919920000000  0.4803430000000 1.0
C      1  0.5366620000000  0.5096560000000  0.5864480000000 1.0
C      1  0.4400200000000  0.6086900000000  0.5706040000000 1.0
C      1  0.4604960000000  0.4595620000000  0.5738990000000 1.0
C      1  0.5227820000000  0.4884590000000  0.4430700000000 1.0
C      1  0.3937790000000  0.5555750000000  0.5397190000000 1.0
C      1  0.4486540000000  0.5281150000000  0.4456920000000 1.0
C      1  0.5202920000000  0.4740310000000  0.4684700000000 1.0
C      1  0.4030220000000  0.5454480000000  0.5653890000000 1.0
C      1  0.4960740000000  0.4221820000000  0.5559560000000 1.0
C      1  0.4737420000000  0.5952890000000  0.4532500000000 1.0
C      1  0.4884050000000  0.4237160000000  0.5106650000000 1.0
C      1  0.4490730000000  0.4597420000000  0.4766810000000 1.0
C      1  0.5921140000000  0.5471450000000  0.4346300000000 1.0
C      1  0.5299930000000  0.5513850000000  0.4642050000000 1.0
C      1  0.4766910000000  0.4722690000000  0.4138620000000 1.0
C      1  0.5856190000000  0.5016540000000  0.4864410000000 1.0
C      1  0.4619370000000  0.5569290000000  0.4131190000000 1.0
C      1  0.4692870000000  0.4530720000000  0.4577080000000 1.0
C      1  0.5428270000000  0.4791510000000  0.4870240000000 1.0
C      1  0.5765230000000  0.5663500000000  0.4447520000000 1.0
C      1  0.5457820000000  0.5283070000000  0.4763330000000 1.0
C      1  0.4287250000000  0.4464400000000  0.5210510000000 1.0
C      1  0.3869090000000  0.5815080000000  0.5354180000000 1.0
C      1  0.5168750000000  0.5649740000000  0.4875950000000 1.0
C      1  0.5723050000000  0.3835670000000  0.5343310000000 1.0
C      1  0.5035590000000  0.3812210000000  0.5212490000000 1.0
C      1  0.4650980000000  0.5051510000000  0.5905340000000 1.0
C      1  0.4492770000000  0.5507350000000  0.5665260000000 1.0
C      1  0.5001380000000  0.5110740000000  0.4073570000000 1.0
C      1  0.5637590000000  0.5388420000000  0.5445170000000 1.0
C      1  0.4358110000000  0.4983590000000  0.5013310000000 1.0
C      1  0.5077250000000  0.5889010000000  0.5531890000000 1.0
C      1  0.5171180000000  0.4417970000000  0.5552880000000 1.0
C      1  0.4718380000000  0.4338350000000  0.5673630000000 1.0
C      1  0.5117640000000  0.5124770000000  0.3827160000000 1.0
C      1  0.5019480000000  0.4284600000000  0.4188830000000 1.0
C      1  0.4997540000000  0.4683520000000  0.6034400000000 1.0
C      1  0.4870300000000  0.5500930000000  0.5216240000000 1.0
C      1  0.4206780000000  0.4666290000000  0.5391450000000 1.0
C      1  0.5563520000000  0.4927040000000  0.5775280000000 1.0
C      1  0.5773760000000  0.4538490000000  0.4368990000000 1.0
C      1  0.5252010000000  0.3635910000000  0.5300690000000 1.0
C      1  0.4585830000000  0.6080460000000  0.5030720000000 1.0
C      1  0.4353050000000  0.5597560000000  0.4795370000000 1.0
C      1  0.5902970000000  0.4112570000000  0.4659860000000 1.0
C      1  0.4740450000000  0.5568640000000  0.5815620000000 1.0
C      1  0.4553970000000  0.5266620000000  0.4172080000000 1.0
C      1  0.5539300000000  0.5399450000000  0.5008570000000 1.0
C      1  0.4491060000000  0.4474840000000  0.5019060000000 1.0
C      1  0.4495070000000  0.3852150000000  0.4871750000000 1.0
C      1  0.4966050000000  0.4985200000000  0.5116500000000 1.0
C      1  0.5996730000000  0.4791310000000  0.4739520000000 1.0
C      1  0.5836400000000  0.5244230000000  0.4202410000000 1.0
C      1  0.5489660000000  0.3726990000000  0.5412360000000 1.0
C      1  0.5537570000000  0.4583720000000  0.4217730000000 1.0
C      1  0.5579150000000  0.5025680000000  0.4782910000000 1.0
C      1  0.5206780000000  0.5086270000000  0.5291120000000 1.0
C      1  0.4530290000000  0.3912300000000  0.4338890000000 1.0
C      1  0.6071440000000  0.4639480000000  0.4980560000000 1.0
C      1  0.5427310000000  0.5290520000000  0.5253140000000 1.0
C      1  0.4955420000000  0.4062430000000  0.5315330000000 1.0
C      1  0.5885640000000  0.5308220000000  0.5281400000000 1.0
C      1  0.4384200000000  0.4107080000000  0.4224110000000 1.0
C      1  0.3942460000000  0.5067840000000  0.5443460000000 1.0
C      1  0.5078640000000  0.3468090000000  0.4902320000000 1.0
C      1  0.4773400000000  0.3920740000000  0.4488700000000 1.0
C      1  0.4040350000000  0.6029800000000  0.4795150000000 1.0
C      1  0.3917270000000  0.5344650000000  0.5209160000000 1.0
C      1  0.5537450000000  0.5727210000000  0.4596170000000 1.0
C      1  0.5031110000000  0.4568180000000  0.4129080000000 1.0
C      1  0.5926610000000  0.4991280000000  0.4288530000000 1.0
C      1  0.5837350000000  0.4285270000000  0.4469020000000 1.0
C      1  0.5035000000000  0.6082820000000  0.4982670000000 1.0
C      1  0.5579110000000  0.5677330000000  0.5489960000000 1.0
C      1  0.4751370000000  0.4772320000000  0.5924260000000 1.0
C      1  0.5501780000000  0.4716880000000  0.5152300000000 1.0
C      1  0.4749800000000  0.3834340000000  0.4763990000000 1.0
C      1  0.4693840000000  0.6063130000000  0.5300330000000 1.0
C      1  0.4786540000000  0.6053580000000  0.4813170000000 1.0
C      1  0.4015600000000  0.4855160000000  0.5281500000000 1.0
C      1  0.4895990000000  0.4706880000000  0.5204330000000 1.0
C      1  0.5879650000000  0.3930300000000  0.5150220000000 1.0
C      1  0.4600070000000  0.4558330000000  0.4305800000000 1.0
C      1  0.4969320000000  0.4568420000000  0.4670280000000 1.0
C      1  0.4847690000000  0.5291190000000  0.5911230000000 1.0
C      1  0.4995700000000  0.6034900000000  0.5277630000000 1.0
C      1  0.5820790000000  0.5468930000000  0.5039980000000 1.0
C      1  0.4753450000000  0.4480770000000  0.5116450000000 1.0
C      1  0.4004660000000  0.5238340000000  0.4944430000000 1.0
C      1  0.4230400000000  0.5360010000000  0.4701170000000 1.0
C      1  0.5407030000000  0.5483510000000  0.4039730000000 1.0
C      1  0.5092570000000  0.5645120000000  0.5131730000000 1.0
C      1  0.5192250000000  0.5568140000000  0.4185110000000 1.0
C      1  0.5328550000000  0.5770260000000  0.5589900000000 1.0
C      1  0.4715990000000  0.5005860000000  0.4717480000000 1.0
C      1  0.4972640000000  0.4077940000000  0.4358610000000 1.0
C      1  0.4537800000000  0.5263710000000  0.5487010000000 1.0
C      1  0.4205020000000  0.5829630000000  0.4824070000000 1.0
C      1  0.4197440000000  0.6172430000000  0.5845630000000 1.0
C      1  0.4835680000000  0.5822230000000  0.5693990000000 1.0
C      1  0.5111880000000  0.5207160000000  0.5799210000000 1.0
C      1  0.4412670000000  0.4373780000000  0.4208020000000 1.0
C      1  0.5936130000000  0.5046580000000  0.5159550000000 1.0
C      1  0.5244640000000  0.3413040000000  0.5116030000000 1.0
C      1  0.4391610000000  0.4748870000000  0.5603630000000 1.0
C      1  0.5241260000000  0.4570970000000  0.5988400000000 1.0
C      1  0.4637330000000  0.5552790000000  0.4792080000000 1.0
C      1  0.4826980000000  0.5325930000000  0.5429370000000 1.0
C      1  0.4944900000000  0.3722990000000  0.4937320000000 1.0
C      1  0.5660490000000  0.5961280000000  0.5056740000000 1.0
C      1  0.5372440000000  0.4494290000000  0.5742800000000 1.0
C      1  0.5054950000000  0.5195960000000  0.5520370000000 1.0
C      1  0.5929280000000  0.4762960000000  0.4459770000000 1.0
C      1  0.4452520000000  0.5148130000000  0.5222440000000 1.0
C      1  0.4756890000000  0.5398230000000  0.4987540000000 1.0
C      1  0.5934330000000  0.4009300000000  0.4902530000000 1.0
C      1  0.4098610000000  0.5169760000000  0.5662800000000 1.0
C      1  0.5694810000000  0.5864250000000  0.5305970000000 1.0
C      1  0.4741050000000  0.5431470000000  0.4550440000000 1.0
C      1  0.5720100000000  0.4659310000000  0.5348460000000 1.0
C      1  0.5965440000000  0.4759460000000  0.5234410000000 1.0
C      1  0.4726060000000  0.5023450000000  0.4098370000000 1.0
C      1  0.5088890000000  0.5420010000000  0.4440350000000 1.0
C      1  0.4622910000000  0.5992200000000  0.5570090000000 1.0
C      1  0.4673720000000  0.5798160000000  0.4300970000000 1.0
C      1  0.4849280000000  0.5139730000000  0.4919820000000 1.0
C      1  0.5107110000000  0.4634750000000  0.5386310000000 1.0
C      1  0.4075170000000  0.4962060000000  0.5017180000000 1.0
C      1  0.5311380000000  0.4818080000000  0.5334550000000 1.0
C      1  0.5276810000000  0.4692410000000  0.4219640000000 1.0
C      1  0.4405940000000  0.5055030000000  0.5684150000000 1.0
C      1  0.5121710000000  0.5132480000000  0.4337660000000 1.0
C      1  0.5613890000000  0.5307660000000  0.4037070000000 1.0
END
