TITL C-599894-471-657 1074.61586893063 125000 -721.109794240923 0 0 117 (C1) n - 1
REM
REM in /home/nfs/bkarasulu/CARBON/AIRSS/Generating-Clusters/TERSOFF/Only-C1/FIRE-HFTN
REM
REM
REM
REM
REM
REM ./C.cell (11c1c37f851c82e70ff6c80c92926a4b)
REM AIRSS Version 0.9.1 bugfix July 2018 build 013d7b7c2542+ Fri, 06 Jul 2018 19:26:36 +0100
REM compiler GCC version 9.2.1 20190827 (Red Hat 9.2.1-1)
REM options -cpp -mtune=generic -march=x86-64 -g -O0 -fpre-include=/usr/include/finclude/math-vector-fortran.h
REM seed 159111873 884528210 -1318891906 -1589432172 -809662271 -1021033089 303592179 -1658737543 -518072871 88002711 -410968403 738961139 -702127646 -1664866395 -1808248543 1478779304 -1572890149 -1241484483 1349680383 -2023553569 -614119853 140068048 -991790642 1279297304 -374943224 1626207869 967636474 88039632 734941743 -164814485 -1040807532 50665847 91266593
REM
CELL 1.54180   50.00000   50.00000   50.00000   90.00000   90.00000   90.00000
LATT -1
SFAC C  
C      1  0.5151810000000  0.5451450000000  0.4115760000000 1.0
C      1  0.4486400000000  0.5668710000000  0.4251200000000 1.0
C      1  0.4637070000000  0.5637280000000  0.4004910000000 1.0
C      1  0.5257350000000  0.5194910000000  0.4070940000000 1.0
C      1  0.4410650000000  0.4968000000000  0.5361040000000 1.0
C      1  0.4618410000000  0.5828120000000  0.4455550000000 1.0
C      1  0.5877330000000  0.4858250000000  0.5571850000000 1.0
C      1  0.4407330000000  0.5028230000000  0.4654630000000 1.0
C      1  0.4160770000000  0.5052070000000  0.5465120000000 1.0
C      1  0.4465260000000  0.4288850000000  0.4775040000000 1.0
C      1  0.4066860000000  0.5277240000000  0.5317050000000 1.0
C      1  0.3989310000000  0.4486450000000  0.5246020000000 1.0
C      1  0.5065190000000  0.6030530000000  0.5255940000000 1.0
C      1  0.5231290000000  0.4043170000000  0.5260700000000 1.0
C      1  0.5649610000000  0.5379100000000  0.5074760000000 1.0
C      1  0.4897150000000  0.5876100000000  0.5420960000000 1.0
C      1  0.5065960000000  0.4062910000000  0.5014910000000 1.0
C      1  0.5341200000000  0.4437740000000  0.4838820000000 1.0
C      1  0.5104790000000  0.4554100000000  0.6727390000000 1.0
C      1  0.5549730000000  0.5183010000000  0.4123780000000 1.0
C      1  0.5324500000000  0.5892520000000  0.4643460000000 1.0
C      1  0.5785620000000  0.5239820000000  0.4607700000000 1.0
C      1  0.5717330000000  0.5997180000000  0.4341510000000 1.0
C      1  0.5587850000000  0.4830920000000  0.4405370000000 1.0
C      1  0.4472150000000  0.4832190000000  0.5110460000000 1.0
C      1  0.5669920000000  0.4309020000000  0.5288570000000 1.0
C      1  0.4928040000000  0.5443050000000  0.5646940000000 1.0
C      1  0.5730980000000  0.5330620000000  0.4323050000000 1.0
C      1  0.5165900000000  0.4535320000000  0.4320370000000 1.0
C      1  0.4624340000000  0.5826160000000  0.5345520000000 1.0
C      1  0.5252000000000  0.5342040000000  0.4835910000000 1.0
C      1  0.5552440000000  0.5634610000000  0.5490300000000 1.0
C      1  0.5281020000000  0.4586410000000  0.5277710000000 1.0
C      1  0.5325330000000  0.5727250000000  0.5604770000000 1.0
C      1  0.5653570000000  0.4916720000000  0.4145140000000 1.0
C      1  0.5877590000000  0.4407330000000  0.5118430000000 1.0
C      1  0.4801130000000  0.4859770000000  0.5568540000000 1.0
C      1  0.5204870000000  0.4618480000000  0.5010250000000 1.0
C      1  0.5201310000000  0.4516490000000  0.5754050000000 1.0
C      1  0.5042440000000  0.5698880000000  0.5593160000000 1.0
C      1  0.4488280000000  0.4370670000000  0.4507930000000 1.0
C      1  0.4285660000000  0.5241230000000  0.4505790000000 1.0
C      1  0.4914260000000  0.5563480000000  0.4010000000000 1.0
C      1  0.5056150000000  0.4172880000000  0.5452990000000 1.0
C      1  0.5514510000000  0.4070050000000  0.5264670000000 1.0
C      1  0.5104530000000  0.4807450000000  0.4432570000000 1.0
C      1  0.4712020000000  0.4636450000000  0.5103560000000 1.0
C      1  0.4788890000000  0.4134770000000  0.5100620000000 1.0
C      1  0.4720890000000  0.5349150000000  0.5448790000000 1.0
C      1  0.4054110000000  0.4916950000000  0.5684220000000 1.0
C      1  0.5032490000000  0.5277500000000  0.4989960000000 1.0
C      1  0.5071830000000  0.5254240000000  0.5804570000000 1.0
C      1  0.3946650000000  0.5186130000000  0.5074620000000 1.0
C      1  0.4995060000000  0.4430590000000  0.5940960000000 1.0
C      1  0.4949230000000  0.4717830000000  0.4923950000000 1.0
C      1  0.5067260000000  0.4505850000000  0.6473960000000 1.0
C      1  0.4236430000000  0.5502360000000  0.5349770000000 1.0
C      1  0.4838290000000  0.4637330000000  0.5398910000000 1.0
C      1  0.4896640000000  0.4803340000000  0.4658180000000 1.0
C      1  0.4852310000000  0.5321070000000  0.5176350000000 1.0
C      1  0.4159490000000  0.4270930000000  0.5323840000000 1.0
C      1  0.4794580000000  0.5156620000000  0.4393160000000 1.0
C      1  0.4750050000000  0.4316980000000  0.5832060000000 1.0
C      1  0.3923040000000  0.4692080000000  0.5085610000000 1.0
C      1  0.4772850000000  0.4122300000000  0.5392950000000 1.0
C      1  0.4314450000000  0.5460790000000  0.4349060000000 1.0
C      1  0.5295120000000  0.5138130000000  0.5678830000000 1.0
C      1  0.5029800000000  0.4460120000000  0.6215710000000 1.0
C      1  0.5239900000000  0.5498780000000  0.4386470000000 1.0
C      1  0.5486050000000  0.5172530000000  0.5494480000000 1.0
C      1  0.4631490000000  0.5069280000000  0.5503020000000 1.0
C      1  0.4199320000000  0.4442240000000  0.5769980000000 1.0
C      1  0.5442620000000  0.5526260000000  0.4940810000000 1.0
C      1  0.4512300000000  0.5679700000000  0.3764470000000 1.0
C      1  0.4827950000000  0.4829360000000  0.4023270000000 1.0
C      1  0.4187150000000  0.4075320000000  0.5122400000000 1.0
C      1  0.5598880000000  0.4521290000000  0.4751540000000 1.0
C      1  0.6135780000000  0.5438560000000  0.4077570000000 1.0
C      1  0.4024720000000  0.4930040000000  0.4968530000000 1.0
C      1  0.5133240000000  0.5737590000000  0.4509390000000 1.0
C      1  0.5001750000000  0.5196170000000  0.6061640000000 1.0
C      1  0.5773450000000  0.5168100000000  0.4899830000000 1.0
C      1  0.4462050000000  0.6052750000000  0.4895970000000 1.0
C      1  0.5489880000000  0.4575200000000  0.5698320000000 1.0
C      1  0.5520910000000  0.4515050000000  0.5412090000000 1.0
C      1  0.4805380000000  0.5410720000000  0.4505630000000 1.0
C      1  0.5078560000000  0.4477370000000  0.5469830000000 1.0
C      1  0.4542510000000  0.4472540000000  0.4266560000000 1.0
C      1  0.4500570000000  0.6004390000000  0.4636230000000 1.0
C      1  0.4320090000000  0.4288680000000  0.5564470000000 1.0
C      1  0.5351880000000  0.4975710000000  0.4510650000000 1.0
C      1  0.5858130000000  0.5796390000000  0.4238780000000 1.0
C      1  0.5508510000000  0.6046000000000  0.4500160000000 1.0
C      1  0.5911950000000  0.5523590000000  0.4210330000000 1.0
C      1  0.5281180000000  0.5973670000000  0.5108640000000 1.0
C      1  0.4502990000000  0.5989700000000  0.5151840000000 1.0
C      1  0.4673340000000  0.4968000000000  0.4580230000000 1.0
C      1  0.4854840000000  0.5689760000000  0.4530600000000 1.0
C      1  0.6132420000000  0.4310510000000  0.5118940000000 1.0
C      1  0.4649050000000  0.4356820000000  0.4983670000000 1.0
C      1  0.5789450000000  0.4621230000000  0.4940690000000 1.0
C      1  0.5382240000000  0.5805590000000  0.4909270000000 1.0
C      1  0.5832640000000  0.4902690000000  0.5029890000000 1.0
C      1  0.5606640000000  0.4559820000000  0.4474730000000 1.0
C      1  0.5410350000000  0.4413460000000  0.4327410000000 1.0
C      1  0.5712990000000  0.4742250000000  0.5757400000000 1.0
C      1  0.5912300000000  0.4916360000000  0.5309150000000 1.0
C      1  0.5206690000000  0.4189940000000  0.4804460000000 1.0
C      1  0.4302330000000  0.4912730000000  0.4890710000000 1.0
C      1  0.4509320000000  0.5566920000000  0.5401090000000 1.0
C      1  0.4086360000000  0.4681880000000  0.5808270000000 1.0
C      1  0.4599620000000  0.4219880000000  0.5599630000000 1.0
C      1  0.4654750000000  0.4629170000000  0.4079940000000 1.0
C      1  0.5610070000000  0.5387460000000  0.5359950000000 1.0
C      1  0.5292980000000  0.5264330000000  0.4565480000000 1.0
C      1  0.4988430000000  0.4997750000000  0.4208120000000 1.0
C      1  0.4267270000000  0.4108260000000  0.4866240000000 1.0
END
