TITL C-599896-8500-920 0.000844957928683132 125000 -550.073613268803 0 0 88 (C1) n - 1
REM
REM in /home/nfs/bkarasulu/CARBON/AIRSS/Generating-Clusters/TERSOFF/Only-C1/FIRE-HFTN
REM
REM
REM
REM
REM
REM ./C.cell (11c1c37f851c82e70ff6c80c92926a4b)
REM AIRSS Version 0.9.1 bugfix July 2018 build 013d7b7c2542+ Fri, 06 Jul 2018 19:26:36 +0100
REM compiler GCC version 9.2.1 20190827 (Red Hat 9.2.1-1)
REM options -cpp -mtune=generic -march=x86-64 -g -O0 -fpre-include=/usr/include/finclude/math-vector-fortran.h
REM seed 899188677 379614105 -629029506 888855816 -646000518 96823603 -521821274 1127133193 -944754674 -292118599 570751503 -1660780330 453634075 1314502496 -462097789 -2144599174 1714442784 -1529975732 -2013988737 -255021536 -637212052 -758401095 -1266849839 1569703176 1848261644 2100285629 -1818210856 141632257 534556563 -597113257 -1304022630 1602816016 1741388942
REM
CELL 1.54180   50.00000   50.00000   50.00000   90.00000   90.00000   90.00000
LATT -1
SFAC C  
C      1  0.4892770000000  0.4628950000000  0.4427860000000 1.0
C      1  0.4303140000000  0.4823180000000  0.4976870000000 1.0
C      1  0.5658000000000  0.5494410000000  0.5649920000000 1.0
C      1  0.4213810000000  0.4742640000000  0.5239960000000 1.0
C      1  0.4692560000000  0.4584190000000  0.4257420000000 1.0
C      1  0.5498830000000  0.4352360000000  0.5624640000000 1.0
C      1  0.5080390000000  0.4695860000000  0.5325110000000 1.0
C      1  0.5221530000000  0.5553040000000  0.4426410000000 1.0
C      1  0.4168730000000  0.4960920000000  0.5415710000000 1.0
C      1  0.5118790000000  0.5233240000000  0.4772340000000 1.0
C      1  0.5179450000000  0.5392620000000  0.5761840000000 1.0
C      1  0.5647980000000  0.4433830000000  0.5151040000000 1.0
C      1  0.4944790000000  0.4995840000000  0.4774740000000 1.0
C      1  0.5457760000000  0.5342920000000  0.5791030000000 1.0
C      1  0.5992660000000  0.4805710000000  0.5063220000000 1.0
C      1  0.5305850000000  0.4235310000000  0.5768890000000 1.0
C      1  0.4922690000000  0.5246850000000  0.5774560000000 1.0
C      1  0.5539740000000  0.5173640000000  0.5117430000000 1.0
C      1  0.4918980000000  0.5365440000000  0.5214980000000 1.0
C      1  0.4468090000000  0.4743200000000  0.4209290000000 1.0
C      1  0.4198100000000  0.4972200000000  0.4507250000000 1.0
C      1  0.5658960000000  0.4941000000000  0.4592080000000 1.0
C      1  0.4825430000000  0.4145430000000  0.5627790000000 1.0
C      1  0.5506930000000  0.5502860000000  0.4508750000000 1.0
C      1  0.4492780000000  0.5697430000000  0.5096560000000 1.0
C      1  0.5244290000000  0.4115280000000  0.5082060000000 1.0
C      1  0.5361850000000  0.4729980000000  0.4131120000000 1.0
C      1  0.4568790000000  0.5684780000000  0.4814620000000 1.0
C      1  0.5046910000000  0.4167870000000  0.5778070000000 1.0
C      1  0.5031860000000  0.5444840000000  0.4972700000000 1.0
C      1  0.5406270000000  0.4331650000000  0.4477710000000 1.0
C      1  0.4771410000000  0.4168860000000  0.5351680000000 1.0
C      1  0.5041070000000  0.5135950000000  0.4243190000000 1.0
C      1  0.5461050000000  0.4277530000000  0.4986410000000 1.0
C      1  0.5493140000000  0.5883670000000  0.4828040000000 1.0
C      1  0.5286180000000  0.5954270000000  0.5263040000000 1.0
C      1  0.5632300000000  0.4690950000000  0.4744170000000 1.0
C      1  0.5533480000000  0.4516150000000  0.5399640000000 1.0
C      1  0.5577260000000  0.5764800000000  0.5609100000000 1.0
C      1  0.4891520000000  0.5538400000000  0.5437340000000 1.0
C      1  0.5407970000000  0.4468010000000  0.4744340000000 1.0
C      1  0.5010400000000  0.4751130000000  0.4648760000000 1.0
C      1  0.5355050000000  0.4735550000000  0.5371110000000 1.0
C      1  0.4395970000000  0.5556990000000  0.5311380000000 1.0
C      1  0.5235630000000  0.4964680000000  0.4134060000000 1.0
C      1  0.5004640000000  0.5749810000000  0.4466100000000 1.0
C      1  0.4751640000000  0.4988000000000  0.4976630000000 1.0
C      1  0.4310500000000  0.5127070000000  0.5596670000000 1.0
C      1  0.4877220000000  0.4970690000000  0.5709220000000 1.0
C      1  0.4074360000000  0.4491550000000  0.4406910000000 1.0
C      1  0.4408630000000  0.4981360000000  0.5821830000000 1.0
C      1  0.4999440000000  0.4564350000000  0.5081370000000 1.0
C      1  0.4448660000000  0.5375850000000  0.5530950000000 1.0
C      1  0.4993640000000  0.4083370000000  0.5183780000000 1.0
C      1  0.5127140000000  0.5621270000000  0.5576430000000 1.0
C      1  0.4212300000000  0.5022460000000  0.4789770000000 1.0
C      1  0.4580820000000  0.4766370000000  0.4964300000000 1.0
C      1  0.5820650000000  0.5384890000000  0.5448270000000 1.0
C      1  0.4838850000000  0.5768690000000  0.4712850000000 1.0
C      1  0.5573340000000  0.5222210000000  0.4617730000000 1.0
C      1  0.5104830000000  0.5295090000000  0.4470470000000 1.0
C      1  0.4715810000000  0.5412990000000  0.5634380000000 1.0
C      1  0.5319370000000  0.5814860000000  0.5503380000000 1.0
C      1  0.4330490000000  0.4486130000000  0.5325840000000 1.0
C      1  0.4521440000000  0.5027200000000  0.4167620000000 1.0
C      1  0.4652500000000  0.4864960000000  0.5844790000000 1.0
C      1  0.4915540000000  0.4906470000000  0.5430640000000 1.0
C      1  0.4831330000000  0.5095140000000  0.5227710000000 1.0
C      1  0.4232790000000  0.4715760000000  0.4377170000000 1.0
C      1  0.5416730000000  0.4498210000000  0.4250790000000 1.0
C      1  0.5435160000000  0.4990980000000  0.5300840000000 1.0
C      1  0.5393640000000  0.4059200000000  0.4456960000000 1.0
C      1  0.5041460000000  0.5721590000000  0.4915060000000 1.0
C      1  0.4712870000000  0.4532400000000  0.5056600000000 1.0
C      1  0.5141840000000  0.4580970000000  0.4830810000000 1.0
C      1  0.5263730000000  0.5880780000000  0.4993060000000 1.0
C      1  0.4584500000000  0.4366920000000  0.5249540000000 1.0
C      1  0.4780950000000  0.5126260000000  0.4136740000000 1.0
C      1  0.4372940000000  0.5435980000000  0.4412110000000 1.0
C      1  0.5412350000000  0.5205990000000  0.4863370000000 1.0
C      1  0.4331570000000  0.5170700000000  0.4329640000000 1.0
C      1  0.4261460000000  0.5298950000000  0.4846420000000 1.0
C      1  0.4396270000000  0.5497010000000  0.4684640000000 1.0
C      1  0.3929670000000  0.4278800000000  0.4448260000000 1.0
C      1  0.5789370000000  0.4628570000000  0.4986880000000 1.0
C      1  0.6006870000000  0.5067820000000  0.5123310000000 1.0
C      1  0.5616070000000  0.5728000000000  0.4645100000000 1.0
C      1  0.5805500000000  0.5249900000000  0.5200860000000 1.0
END
