TITL C-599891-72-360 0.135246506784712 125000 -621.559434010165 0 0 102 (C1) n - 1
REM
REM in /home/nfs/bkarasulu/CARBON/AIRSS/Generating-Clusters/TERSOFF/Only-C1/FIRE-HFTN
REM
REM
REM
REM
REM
REM ./C.cell (11c1c37f851c82e70ff6c80c92926a4b)
REM AIRSS Version 0.9.1 bugfix July 2018 build 013d7b7c2542+ Fri, 06 Jul 2018 19:26:36 +0100
REM compiler GCC version 9.2.1 20190827 (Red Hat 9.2.1-1)
REM options -cpp -mtune=generic -march=x86-64 -g -O0 -fpre-include=/usr/include/finclude/math-vector-fortran.h
REM seed 1843499381 871080860 279641038 -592411557 1480156077 -522562994 1256970057 2132798316 1308188705 1385561186 674022361 -1289707887 1034056434 358459978 15169669 -1142969781 602891285 1832809179 -1179370929 702042426 -1560561757 1290812166 619923635 126205165 1765848233 -762367126 783065313 -112796530 -140087902 -334937358 -294016013 1188269855 1042134266
REM
CELL 1.54180   50.00000   50.00000   50.00000   90.00000   90.00000   90.00000
LATT -1
SFAC C  
C      1  0.5224100000000  0.6047980000000  0.5148480000000 1.0
C      1  0.6170820000000  0.5167350000000  0.5548500000000 1.0
C      1  0.6666640000000  0.5341500000000  0.5559360000000 1.0
C      1  0.5019740000000  0.5082510000000  0.4761180000000 1.0
C      1  0.5086320000000  0.5046020000000  0.3729790000000 1.0
C      1  0.5246210000000  0.5368430000000  0.5831640000000 1.0
C      1  0.5223390000000  0.5626350000000  0.5708320000000 1.0
C      1  0.5192300000000  0.5290260000000  0.4130470000000 1.0
C      1  0.5104120000000  0.5818390000000  0.5557500000000 1.0
C      1  0.5488950000000  0.4649090000000  0.5683600000000 1.0
C      1  0.4732380000000  0.5164990000000  0.6362050000000 1.0
C      1  0.4663400000000  0.4741830000000  0.5470250000000 1.0
C      1  0.4503370000000  0.4513940000000  0.5513350000000 1.0
C      1  0.5801600000000  0.4869970000000  0.5056460000000 1.0
C      1  0.4805220000000  0.5158620000000  0.6092410000000 1.0
C      1  0.5167790000000  0.5278960000000  0.3848580000000 1.0
C      1  0.4611280000000  0.4015030000000  0.5504090000000 1.0
C      1  0.4368130000000  0.5022050000000  0.5919350000000 1.0
C      1  0.5866560000000  0.5841460000000  0.4334300000000 1.0
C      1  0.5759230000000  0.5699030000000  0.4524300000000 1.0
C      1  0.4608080000000  0.4274780000000  0.4039550000000 1.0
C      1  0.4771070000000  0.5554330000000  0.4267390000000 1.0
C      1  0.5035010000000  0.5296670000000  0.6006680000000 1.0
C      1  0.5491930000000  0.5671030000000  0.4939530000000 1.0
C      1  0.5114550000000  0.5409010000000  0.5148130000000 1.0
C      1  0.4491410000000  0.5499370000000  0.4238290000000 1.0
C      1  0.4053750000000  0.4705050000000  0.4053280000000 1.0
C      1  0.5649950000000  0.5250000000000  0.4710040000000 1.0
C      1  0.4750340000000  0.4330420000000  0.4275390000000 1.0
C      1  0.5528960000000  0.5108500000000  0.4491780000000 1.0
C      1  0.5431010000000  0.5154650000000  0.5761890000000 1.0
C      1  0.5418030000000  0.4851540000000  0.4525940000000 1.0
C      1  0.5834000000000  0.4865840000000  0.5356440000000 1.0
C      1  0.4564330000000  0.5850610000000  0.4583100000000 1.0
C      1  0.4647200000000  0.5007130000000  0.5906070000000 1.0
C      1  0.4993710000000  0.5301190000000  0.4585180000000 1.0
C      1  0.5405610000000  0.5483650000000  0.5140320000000 1.0
C      1  0.3999630000000  0.4874750000000  0.4253290000000 1.0
C      1  0.4080220000000  0.4968450000000  0.4509000000000 1.0
C      1  0.4092550000000  0.4764900000000  0.4708770000000 1.0
C      1  0.5251160000000  0.4167020000000  0.5692070000000 1.0
C      1  0.4328800000000  0.5446020000000  0.4479000000000 1.0
C      1  0.4384200000000  0.4362960000000  0.3920740000000 1.0
C      1  0.4751570000000  0.4798820000000  0.5205860000000 1.0
C      1  0.4534860000000  0.5719670000000  0.5181510000000 1.0
C      1  0.4813820000000  0.5792810000000  0.5143420000000 1.0
C      1  0.5701220000000  0.5189970000000  0.5689180000000 1.0
C      1  0.5225210000000  0.5500960000000  0.3698890000000 1.0
C      1  0.4613740000000  0.4777260000000  0.4381520000000 1.0
C      1  0.4954860000000  0.5362620000000  0.5397280000000 1.0
C      1  0.4970960000000  0.5343920000000  0.4296920000000 1.0
C      1  0.4808420000000  0.5732100000000  0.4503180000000 1.0
C      1  0.4489230000000  0.5572530000000  0.5421220000000 1.0
C      1  0.5023430000000  0.4294500000000  0.4339680000000 1.0
C      1  0.4358930000000  0.5668000000000  0.4961330000000 1.0
C      1  0.4781190000000  0.4864900000000  0.5698910000000 1.0
C      1  0.5387700000000  0.4391080000000  0.5752620000000 1.0
C      1  0.5135550000000  0.4308470000000  0.5033550000000 1.0
C      1  0.5633570000000  0.5544640000000  0.4720090000000 1.0
C      1  0.5279620000000  0.4103600000000  0.4873190000000 1.0
C      1  0.5411300000000  0.5937400000000  0.4986200000000 1.0
C      1  0.4942730000000  0.5566920000000  0.4700970000000 1.0
C      1  0.5547500000000  0.4532090000000  0.5223550000000 1.0
C      1  0.5591970000000  0.5277670000000  0.5177810000000 1.0
C      1  0.6420740000000  0.5255050000000  0.5554490000000 1.0
C      1  0.4710580000000  0.5414420000000  0.5496870000000 1.0
C      1  0.4988240000000  0.4802150000000  0.4741770000000 1.0
C      1  0.5908370000000  0.5076810000000  0.5531760000000 1.0
C      1  0.5057070000000  0.4841720000000  0.5728490000000 1.0
C      1  0.4294540000000  0.5163030000000  0.4510530000000 1.0
C      1  0.5111390000000  0.5148940000000  0.5014730000000 1.0
C      1  0.4148610000000  0.4510480000000  0.3872080000000 1.0
C      1  0.4007520000000  0.4463430000000  0.3641790000000 1.0
C      1  0.5195990000000  0.4683100000000  0.4580590000000 1.0
C      1  0.5016410000000  0.5929810000000  0.5306790000000 1.0
C      1  0.4886360000000  0.3950310000000  0.5113340000000 1.0
C      1  0.5332440000000  0.4882800000000  0.5742550000000 1.0
C      1  0.4500120000000  0.4440450000000  0.4704930000000 1.0
C      1  0.5221350000000  0.4407440000000  0.4507500000000 1.0
C      1  0.5411950000000  0.4265010000000  0.4674460000000 1.0
C      1  0.5087910000000  0.3996390000000  0.5562970000000 1.0
C      1  0.5703770000000  0.5122660000000  0.4964510000000 1.0
C      1  0.5638930000000  0.4424230000000  0.4764420000000 1.0
C      1  0.4243710000000  0.5552180000000  0.5550980000000 1.0
C      1  0.4608400000000  0.4505070000000  0.4448090000000 1.0
C      1  0.4156280000000  0.5171940000000  0.5857460000000 1.0
C      1  0.4533780000000  0.5020030000000  0.4452600000000 1.0
C      1  0.4659290000000  0.5169910000000  0.6612150000000 1.0
C      1  0.4862050000000  0.3935850000000  0.5399620000000 1.0
C      1  0.5688160000000  0.4605750000000  0.4978900000000 1.0
C      1  0.4105900000000  0.5391990000000  0.5714250000000 1.0
C      1  0.4954420000000  0.5603320000000  0.4978750000000 1.0
C      1  0.4242710000000  0.4546270000000  0.4760740000000 1.0
C      1  0.4366640000000  0.5661350000000  0.4678430000000 1.0
C      1  0.5438720000000  0.5241290000000  0.4259490000000 1.0
C      1  0.4856350000000  0.4231250000000  0.5023570000000 1.0
C      1  0.4813890000000  0.4692390000000  0.4949540000000 1.0
C      1  0.5125660000000  0.3868450000000  0.4953360000000 1.0
C      1  0.4698270000000  0.4431020000000  0.4906650000000 1.0
C      1  0.5653810000000  0.4661270000000  0.5453790000000 1.0
C      1  0.5281050000000  0.4462190000000  0.5206840000000 1.0
C      1  0.4484190000000  0.4248700000000  0.5537530000000 1.0
END
