TITL C-599895-9959-54 1.76356508723265e-05 125000 -483.128151310594 0 0 81 (C1) n - 1
REM
REM in /home/nfs/bkarasulu/CARBON/AIRSS/Generating-Clusters/TERSOFF/Only-C1/FIRE-HFTN
REM
REM
REM
REM
REM
REM ./C.cell (11c1c37f851c82e70ff6c80c92926a4b)
REM AIRSS Version 0.9.1 bugfix July 2018 build 013d7b7c2542+ Fri, 06 Jul 2018 19:26:36 +0100
REM compiler GCC version 9.2.1 20190827 (Red Hat 9.2.1-1)
REM options -cpp -mtune=generic -march=x86-64 -g -O0 -fpre-include=/usr/include/finclude/math-vector-fortran.h
REM seed 439896342 275837887 -1227524647 -1805832933 1776353283 2068387723 -1797221550 755482821 -350890082 129621315 502063431 -736543143 550992382 -1059701883 697659480 1327033483 -287204360 429816690 -1671658737 -1149762007 -227366178 322667197 -1142869319 -588539253 933326107 631747391 -2001290422 489544481 -424362002 1571041385 496102427 179665562 1509555640
REM
CELL 1.54180   50.00000   50.00000   50.00000   90.00000   90.00000   90.00000
LATT -1
SFAC C  
C      1  0.5492290000000  0.4747070000000  0.4769800000000 1.0
C      1  0.5819170000000  0.5665530000000  0.4341030000000 1.0
C      1  0.5552680000000  0.5713790000000  0.5192310000000 1.0
C      1  0.4430530000000  0.4437770000000  0.4601860000000 1.0
C      1  0.5263030000000  0.4421460000000  0.5597940000000 1.0
C      1  0.5074520000000  0.5801620000000  0.5390610000000 1.0
C      1  0.4983250000000  0.5711970000000  0.4350700000000 1.0
C      1  0.4997300000000  0.5072290000000  0.4107780000000 1.0
C      1  0.5385710000000  0.4964870000000  0.5832370000000 1.0
C      1  0.4711600000000  0.4418630000000  0.4525000000000 1.0
C      1  0.4788260000000  0.4730210000000  0.4926750000000 1.0
C      1  0.5212870000000  0.5120130000000  0.5653770000000 1.0
C      1  0.4351310000000  0.5143180000000  0.5078950000000 1.0
C      1  0.4798930000000  0.4688180000000  0.4437630000000 1.0
C      1  0.4573570000000  0.5787220000000  0.4890380000000 1.0
C      1  0.5401950000000  0.5323070000000  0.4350260000000 1.0
C      1  0.5621420000000  0.5009600000000  0.4894950000000 1.0
C      1  0.4627520000000  0.5811970000000  0.5831050000000 1.0
C      1  0.4141710000000  0.4816820000000  0.5369300000000 1.0
C      1  0.4563210000000  0.5342110000000  0.4708600000000 1.0
C      1  0.4724060000000  0.5741250000000  0.4433810000000 1.0
C      1  0.5356860000000  0.4720630000000  0.5235180000000 1.0
C      1  0.5438710000000  0.4556740000000  0.5009890000000 1.0
C      1  0.5670840000000  0.5037600000000  0.5465920000000 1.0
C      1  0.5117960000000  0.5447090000000  0.4437220000000 1.0
C      1  0.5724860000000  0.4701710000000  0.4573110000000 1.0
C      1  0.4654800000000  0.5652740000000  0.5608820000000 1.0
C      1  0.4862970000000  0.4187240000000  0.4511190000000 1.0
C      1  0.5305400000000  0.5214430000000  0.5139120000000 1.0
C      1  0.4794700000000  0.4524870000000  0.5493180000000 1.0
C      1  0.4583630000000  0.5290110000000  0.4999770000000 1.0
C      1  0.5164830000000  0.4939920000000  0.5145150000000 1.0
C      1  0.4260860000000  0.5085040000000  0.5340310000000 1.0
C      1  0.4927090000000  0.5265890000000  0.4281640000000 1.0
C      1  0.4836470000000  0.5267110000000  0.5116970000000 1.0
C      1  0.5038380000000  0.4831920000000  0.4898260000000 1.0
C      1  0.4543220000000  0.5392900000000  0.5615210000000 1.0
C      1  0.4589330000000  0.5624950000000  0.4655300000000 1.0
C      1  0.5955680000000  0.4741290000000  0.4761210000000 1.0
C      1  0.5190980000000  0.4899660000000  0.4216040000000 1.0
C      1  0.4339270000000  0.4650160000000  0.4417580000000 1.0
C      1  0.5884190000000  0.4910210000000  0.4991830000000 1.0
C      1  0.5546540000000  0.5263740000000  0.4977770000000 1.0
C      1  0.5877860000000  0.4971400000000  0.5274120000000 1.0
C      1  0.5319770000000  0.4277170000000  0.5821850000000 1.0
C      1  0.5209050000000  0.4783060000000  0.4678050000000 1.0
C      1  0.4794070000000  0.5760430000000  0.5381540000000 1.0
C      1  0.4432500000000  0.5140020000000  0.5569960000000 1.0
C      1  0.5030670000000  0.4372410000000  0.5435480000000 1.0
C      1  0.4546980000000  0.4862200000000  0.4434500000000 1.0
C      1  0.5080500000000  0.5371100000000  0.4991820000000 1.0
C      1  0.4462200000000  0.5075720000000  0.4610750000000 1.0
C      1  0.4344640000000  0.4480110000000  0.4871090000000 1.0
C      1  0.4789380000000  0.4786840000000  0.5645150000000 1.0
C      1  0.4018430000000  0.4716690000000  0.5137650000000 1.0
C      1  0.4524600000000  0.4480480000000  0.5381060000000 1.0
C      1  0.5663150000000  0.4866890000000  0.4343690000000 1.0
C      1  0.4800290000000  0.3775550000000  0.5097870000000 1.0
C      1  0.5262530000000  0.6040830000000  0.4769840000000 1.0
C      1  0.4511550000000  0.4871320000000  0.5662320000000 1.0
C      1  0.5567310000000  0.4826590000000  0.5650950000000 1.0
C      1  0.5079240000000  0.4749570000000  0.4429960000000 1.0
C      1  0.5438900000000  0.5036420000000  0.4280790000000 1.0
C      1  0.4344680000000  0.4670710000000  0.5515390000000 1.0
C      1  0.5651200000000  0.5520100000000  0.5030090000000 1.0
C      1  0.5301690000000  0.4307760000000  0.5022000000000 1.0
C      1  0.4916230000000  0.5047060000000  0.5290700000000 1.0
C      1  0.5085480000000  0.4223150000000  0.5192410000000 1.0
C      1  0.5425680000000  0.4630930000000  0.5498380000000 1.0
C      1  0.4291760000000  0.4976430000000  0.4842010000000 1.0
C      1  0.5619440000000  0.5498260000000  0.4335720000000 1.0
C      1  0.4940930000000  0.3991950000000  0.5134130000000 1.0
C      1  0.4962540000000  0.5001980000000  0.5567970000000 1.0
C      1  0.5412160000000  0.5207360000000  0.5434190000000 1.0
C      1  0.5335240000000  0.5797860000000  0.5327200000000 1.0
C      1  0.5213230000000  0.5785130000000  0.4786530000000 1.0
C      1  0.4458340000000  0.4388190000000  0.5118610000000 1.0
C      1  0.5014800000000  0.3980600000000  0.4464620000000 1.0
C      1  0.5137070000000  0.5512480000000  0.4748110000000 1.0
C      1  0.4653130000000  0.5822850000000  0.5144170000000 1.0
C      1  0.4180270000000  0.4717760000000  0.4903840000000 1.0
END
