TITL C-599893-4344-795 2.05659199005465 125000 -349.475968923189 0 0 59 (C1) n - 1
REM
REM in /home/nfs/bkarasulu/CARBON/AIRSS/Generating-Clusters/TERSOFF/Only-C1/FIRE-HFTN
REM
REM
REM
REM
REM
REM ./C.cell (11c1c37f851c82e70ff6c80c92926a4b)
REM AIRSS Version 0.9.1 bugfix July 2018 build 013d7b7c2542+ Fri, 06 Jul 2018 19:26:36 +0100
REM compiler GCC version 9.2.1 20190827 (Red Hat 9.2.1-1)
REM options -cpp -mtune=generic -march=x86-64 -g -O0 -fpre-include=/usr/include/finclude/math-vector-fortran.h
REM seed 223422365 723027457 1932362823 -1163714787 -495427946 5795826 1803980596 1070463823 -1494769396 -1563130636 1506813058 -623153501 -526663600 1908275855 887198610 1020305841 -218233827 -2001014874 824546373 -2100318988 -948257832 1161266086 -1356118834 -1816821304 -120549855 1329014825 375912855 -1658124756 1619055414 244636485 -1833886115 -70937441 1523652566
REM
CELL 1.54180   50.00000   50.00000   50.00000   90.00000   90.00000   90.00000
LATT -1
SFAC C  
C      1  0.5234870000000  0.4733110000000  0.4537640000000 1.0
C      1  0.4910610000000  0.4713960000000  0.5745040000000 1.0
C      1  0.4218700000000  0.4817060000000  0.4679270000000 1.0
C      1  0.5625690000000  0.5345700000000  0.4384770000000 1.0
C      1  0.4096120000000  0.4462800000000  0.5373050000000 1.0
C      1  0.4015420000000  0.4895610000000  0.3919350000000 1.0
C      1  0.5108140000000  0.4817580000000  0.5062090000000 1.0
C      1  0.4813520000000  0.5369220000000  0.5094930000000 1.0
C      1  0.6077110000000  0.5879470000000  0.4606040000000 1.0
C      1  0.5266780000000  0.4987740000000  0.5227930000000 1.0
C      1  0.5122030000000  0.4537240000000  0.5106560000000 1.0
C      1  0.4701180000000  0.5244970000000  0.5322630000000 1.0
C      1  0.4373300000000  0.4451110000000  0.5284690000000 1.0
C      1  0.3872410000000  0.4851360000000  0.5572860000000 1.0
C      1  0.5639020000000  0.5273370000000  0.4664590000000 1.0
C      1  0.5522130000000  0.5055000000000  0.4803790000000 1.0
C      1  0.4987910000000  0.4628420000000  0.4512610000000 1.0
C      1  0.4890280000000  0.4389560000000  0.5052280000000 1.0
C      1  0.4954720000000  0.4967060000000  0.4878120000000 1.0
C      1  0.4738220000000  0.4955440000000  0.5725840000000 1.0
C      1  0.5674240000000  0.5271690000000  0.5209000000000 1.0
C      1  0.4758930000000  0.4540700000000  0.4627180000000 1.0
C      1  0.3861950000000  0.5278680000000  0.4962590000000 1.0
C      1  0.5355020000000  0.4412980000000  0.5194990000000 1.0
C      1  0.3975340000000  0.5115220000000  0.5149530000000 1.0
C      1  0.4080790000000  0.4869220000000  0.4170330000000 1.0
C      1  0.5342640000000  0.5114310000000  0.3991620000000 1.0
C      1  0.4337960000000  0.4692200000000  0.5686680000000 1.0
C      1  0.4337940000000  0.5091960000000  0.5970640000000 1.0
C      1  0.4777510000000  0.4486930000000  0.5641530000000 1.0
C      1  0.4518070000000  0.4510290000000  0.5533870000000 1.0
C      1  0.6016190000000  0.5623530000000  0.5221750000000 1.0
C      1  0.4147570000000  0.4842540000000  0.4425430000000 1.0
C      1  0.4303370000000  0.4800230000000  0.4945590000000 1.0
C      1  0.4243760000000  0.5018800000000  0.5122140000000 1.0
C      1  0.4883900000000  0.5227200000000  0.4876020000000 1.0
C      1  0.5689820000000  0.4631690000000  0.4647680000000 1.0
C      1  0.4674690000000  0.4473390000000  0.4890240000000 1.0
C      1  0.5907070000000  0.5654530000000  0.4606220000000 1.0
C      1  0.4065570000000  0.4651330000000  0.5592830000000 1.0
C      1  0.4866100000000  0.5127340000000  0.5523600000000 1.0
C      1  0.4443250000000  0.4563430000000  0.5031230000000 1.0
C      1  0.5839650000000  0.5461240000000  0.5081550000000 1.0
C      1  0.5587850000000  0.4322230000000  0.5282890000000 1.0
C      1  0.6183630000000  0.5779650000000  0.5346280000000 1.0
C      1  0.5790810000000  0.5577270000000  0.4344580000000 1.0
C      1  0.6135900000000  0.6023050000000  0.4382030000000 1.0
C      1  0.5490500000000  0.5093510000000  0.5092020000000 1.0
C      1  0.5478790000000  0.4807460000000  0.4663210000000 1.0
C      1  0.5862400000000  0.5737100000000  0.4123450000000 1.0
C      1  0.5810280000000  0.5469910000000  0.4801220000000 1.0
C      1  0.5821140000000  0.4241860000000  0.5367000000000 1.0
C      1  0.5169770000000  0.4809720000000  0.5670310000000 1.0
C      1  0.5477620000000  0.5219790000000  0.4188020000000 1.0
C      1  0.5148430000000  0.5031270000000  0.5481920000000 1.0
C      1  0.6028860000000  0.5952100000000  0.4141460000000 1.0
C      1  0.4442340000000  0.5142840000000  0.5277430000000 1.0
C      1  0.3837030000000  0.5035890000000  0.5381410000000 1.0
C      1  0.4465160000000  0.4921140000000  0.5800460000000 1.0
END
