TITL C-599890-3321-765 3536.74024027758 125000 -1170.2599656516 0 0 191 (C1) n - 1
REM
REM in /home/nfs/bkarasulu/CARBON/AIRSS/Generating-Clusters/TERSOFF/Only-C1/FIRE-HFTN
REM
REM
REM
REM
REM
REM ./C.cell (11c1c37f851c82e70ff6c80c92926a4b)
REM AIRSS Version 0.9.1 bugfix July 2018 build 013d7b7c2542+ Fri, 06 Jul 2018 19:26:36 +0100
REM compiler GCC version 9.2.1 20190827 (Red Hat 9.2.1-1)
REM options -cpp -mtune=generic -march=x86-64 -g -O0 -fpre-include=/usr/include/finclude/math-vector-fortran.h
REM seed 494926820 931689627 -2061088933 -2033678072 1434871961 1462500672 2102203902 440181033 555076580 -1478008987 1135584163 1834317512 1192179944 1396256259 626454721 -2136019074 -1888841958 -1432525162 -1587138694 -858238261 -1424610446 -2123853558 -1442081712 -401116427 775658413 1550575029 526805065 -1802235044 -1678083110 628992100 2115318844 -2062183998 1718045396
REM
CELL 1.54180   50.00000   50.00000   50.00000   90.00000   90.00000   90.00000
LATT -1
SFAC C  
C      1  0.5684940000000  0.5130000000000  0.6175480000000 1.0
C      1  0.4827660000000  0.5566230000000  0.4482560000000 1.0
C      1  0.5928190000000  0.5657450000000  0.4536990000000 1.0
C      1  0.4428720000000  0.3754360000000  0.5498450000000 1.0
C      1  0.5613430000000  0.5444450000000  0.4892600000000 1.0
C      1  0.3824970000000  0.3802710000000  0.5103440000000 1.0
C      1  0.5017250000000  0.6533940000000  0.4174520000000 1.0
C      1  0.3785160000000  0.4032900000000  0.4976820000000 1.0
C      1  0.4297220000000  0.5935250000000  0.4548380000000 1.0
C      1  0.4772930000000  0.6219610000000  0.5335170000000 1.0
C      1  0.6233820000000  0.5204490000000  0.5610680000000 1.0
C      1  0.4901280000000  0.5110380000000  0.4490090000000 1.0
C      1  0.4620920000000  0.5091950000000  0.4396460000000 1.0
C      1  0.5411210000000  0.4508760000000  0.5439910000000 1.0
C      1  0.6090850000000  0.4751170000000  0.4242630000000 1.0
C      1  0.4780460000000  0.4312310000000  0.4194480000000 1.0
C      1  0.4047260000000  0.4765790000000  0.5779830000000 1.0
C      1  0.6302000000000  0.4609610000000  0.5238750000000 1.0
C      1  0.6127070000000  0.5442800000000  0.5542860000000 1.0
C      1  0.5698270000000  0.5294230000000  0.5633450000000 1.0
C      1  0.3803810000000  0.5685850000000  0.4482990000000 1.0
C      1  0.4653890000000  0.5419470000000  0.4026670000000 1.0
C      1  0.6243560000000  0.4483870000000  0.5012420000000 1.0
C      1  0.4396680000000  0.5622420000000  0.5973040000000 1.0
C      1  0.4060380000000  0.4459650000000  0.4820030000000 1.0
C      1  0.4275720000000  0.4906550000000  0.5728630000000 1.0
C      1  0.5791100000000  0.5649260000000  0.4792230000000 1.0
C      1  0.4974860000000  0.3925700000000  0.5256170000000 1.0
C      1  0.4394580000000  0.5225480000000  0.4776370000000 1.0
C      1  0.5369840000000  0.4201620000000  0.4341340000000 1.0
C      1  0.4749620000000  0.4723980000000  0.4691400000000 1.0
C      1  0.3774770000000  0.5433160000000  0.5136540000000 1.0
C      1  0.5232430000000  0.5763120000000  0.5189890000000 1.0
C      1  0.5267230000000  0.5329060000000  0.3945080000000 1.0
C      1  0.4468610000000  0.4146950000000  0.6354150000000 1.0
C      1  0.4212870000000  0.3641610000000  0.5393220000000 1.0
C      1  0.5577950000000  0.4429280000000  0.5922260000000 1.0
C      1  0.5282120000000  0.4343200000000  0.4109450000000 1.0
C      1  0.5685640000000  0.5074860000000  0.5210470000000 1.0
C      1  0.4561530000000  0.5207250000000  0.5492700000000 1.0
C      1  0.4680800000000  0.4685160000000  0.5916180000000 1.0
C      1  0.4118260000000  0.5432100000000  0.4186550000000 1.0
C      1  0.4412440000000  0.5505170000000  0.4725240000000 1.0
C      1  0.5309540000000  0.5895220000000  0.4945030000000 1.0
C      1  0.4790800000000  0.3834060000000  0.4440000000000 1.0
C      1  0.5220810000000  0.5230930000000  0.5120680000000 1.0
C      1  0.5718250000000  0.4694710000000  0.5907620000000 1.0
C      1  0.5047980000000  0.6415370000000  0.4638620000000 1.0
C      1  0.4780280000000  0.5350830000000  0.5922290000000 1.0
C      1  0.4788190000000  0.4337980000000  0.5294710000000 1.0
C      1  0.3930720000000  0.5682410000000  0.4724090000000 1.0
C      1  0.4435070000000  0.5172870000000  0.5043670000000 1.0
C      1  0.5332820000000  0.4676400000000  0.4990190000000 1.0
C      1  0.4941500000000  0.4828350000000  0.4525280000000 1.0
C      1  0.5672590000000  0.4986700000000  0.3912160000000 1.0
C      1  0.6201250000000  0.5348940000000  0.4885880000000 1.0
C      1  0.6275640000000  0.4670280000000  0.5511300000000 1.0
C      1  0.5047500000000  0.4711780000000  0.4290650000000 1.0
C      1  0.5707440000000  0.5052170000000  0.5496100000000 1.0
C      1  0.5479590000000  0.4311340000000  0.5671710000000 1.0
C      1  0.4931280000000  0.4561090000000  0.5848950000000 1.0
C      1  0.5271180000000  0.5747620000000  0.4704930000000 1.0
C      1  0.5326290000000  0.4419140000000  0.6088860000000 1.0
C      1  0.3784480000000  0.5246380000000  0.4940390000000 1.0
C      1  0.5373450000000  0.4379140000000  0.4568610000000 1.0
C      1  0.6144410000000  0.5522980000000  0.5083030000000 1.0
C      1  0.5365510000000  0.4750770000000  0.5631880000000 1.0
C      1  0.4566890000000  0.5464980000000  0.5378310000000 1.0
C      1  0.5306440000000  0.4817230000000  0.4742220000000 1.0
C      1  0.5398460000000  0.5648620000000  0.5666360000000 1.0
C      1  0.6005320000000  0.5579670000000  0.5323990000000 1.0
C      1  0.4313590000000  0.5057360000000  0.5488750000000 1.0
C      1  0.5162780000000  0.4755310000000  0.5845490000000 1.0
C      1  0.5228970000000  0.4145710000000  0.5681910000000 1.0
C      1  0.3989210000000  0.4991600000000  0.4534990000000 1.0
C      1  0.5294980000000  0.6175430000000  0.4958330000000 1.0
C      1  0.3928340000000  0.5025130000000  0.4827730000000 1.0
C      1  0.5854480000000  0.5039240000000  0.4723140000000 1.0
C      1  0.4638170000000  0.6062220000000  0.5538660000000 1.0
C      1  0.4373330000000  0.5507690000000  0.4034360000000 1.0
C      1  0.5966740000000  0.5252580000000  0.4195680000000 1.0
C      1  0.4677770000000  0.6050330000000  0.4896780000000 1.0
C      1  0.5196030000000  0.3873890000000  0.4679130000000 1.0
C      1  0.4774530000000  0.5778240000000  0.4932080000000 1.0
C      1  0.5412070000000  0.5943380000000  0.4177140000000 1.0
C      1  0.4141250000000  0.4501450000000  0.4552100000000 1.0
C      1  0.3900160000000  0.5865350000000  0.5456880000000 1.0
C      1  0.6067940000000  0.5225420000000  0.4668990000000 1.0
C      1  0.5235450000000  0.3996320000000  0.5402680000000 1.0
C      1  0.5994160000000  0.5890840000000  0.4412530000000 1.0
C      1  0.5567820000000  0.5353820000000  0.6074500000000 1.0
C      1  0.5544570000000  0.5450060000000  0.5809100000000 1.0
C      1  0.5265310000000  0.5482840000000  0.4593460000000 1.0
C      1  0.3719370000000  0.6072060000000  0.5439320000000 1.0
C      1  0.4036080000000  0.5212410000000  0.4351770000000 1.0
C      1  0.5557870000000  0.4483330000000  0.4980350000000 1.0
C      1  0.4947500000000  0.5201220000000  0.5745450000000 1.0
C      1  0.4962090000000  0.5169760000000  0.5069260000000 1.0
C      1  0.4357870000000  0.5369290000000  0.6103500000000 1.0
C      1  0.4515320000000  0.4093910000000  0.6103230000000 1.0
C      1  0.5889230000000  0.4439050000000  0.4621270000000 1.0
C      1  0.5449490000000  0.5720940000000  0.5391040000000 1.0
C      1  0.5516770000000  0.5712920000000  0.4087320000000 1.0
C      1  0.4802810000000  0.4798830000000  0.5416600000000 1.0
C      1  0.4559950000000  0.5175240000000  0.6032650000000 1.0
C      1  0.4823980000000  0.6240600000000  0.5051570000000 1.0
C      1  0.4194000000000  0.4626580000000  0.5004710000000 1.0
C      1  0.6239580000000  0.4446990000000  0.5687480000000 1.0
C      1  0.5829960000000  0.4953600000000  0.4996880000000 1.0
C      1  0.4470940000000  0.4596620000000  0.5075200000000 1.0
C      1  0.5739840000000  0.5703320000000  0.5328800000000 1.0
C      1  0.4780760000000  0.4033230000000  0.4255610000000 1.0
C      1  0.4635900000000  0.4810890000000  0.5182740000000 1.0
C      1  0.3986930000000  0.3655180000000  0.5254060000000 1.0
C      1  0.5462620000000  0.4498080000000  0.3951520000000 1.0
C      1  0.4342130000000  0.5577610000000  0.5270390000000 1.0
C      1  0.4776920000000  0.4078420000000  0.5403870000000 1.0
C      1  0.5408090000000  0.4922520000000  0.4481880000000 1.0
C      1  0.5509130000000  0.4053910000000  0.5285130000000 1.0
C      1  0.5589130000000  0.4730090000000  0.3893570000000 1.0
C      1  0.5969920000000  0.4555670000000  0.4378810000000 1.0
C      1  0.4675450000000  0.5635720000000  0.5869640000000 1.0
C      1  0.4201130000000  0.5894510000000  0.4275750000000 1.0
C      1  0.5061080000000  0.6326910000000  0.4907250000000 1.0
C      1  0.3982520000000  0.5687790000000  0.4262780000000 1.0
C      1  0.3839610000000  0.5625150000000  0.5314860000000 1.0
C      1  0.4599330000000  0.4099080000000  0.4892900000000 1.0
C      1  0.4595410000000  0.3962450000000  0.5584090000000 1.0
C      1  0.4229000000000  0.5054920000000  0.5213650000000 1.0
C      1  0.3871830000000  0.4268300000000  0.4890430000000 1.0
C      1  0.4371100000000  0.4349370000000  0.4467730000000 1.0
C      1  0.4857460000000  0.4483400000000  0.4812130000000 1.0
C      1  0.5127660000000  0.4352400000000  0.4745070000000 1.0
C      1  0.5224060000000  0.4851060000000  0.6346070000000 1.0
C      1  0.5766620000000  0.4876080000000  0.6122380000000 1.0
C      1  0.5730370000000  0.5246520000000  0.4029680000000 1.0
C      1  0.4571810000000  0.4050380000000  0.5847980000000 1.0
C      1  0.4696840000000  0.5068380000000  0.5076770000000 1.0
C      1  0.5559610000000  0.4337350000000  0.5223640000000 1.0
C      1  0.5496710000000  0.5343170000000  0.4649210000000 1.0
C      1  0.4785230000000  0.5604330000000  0.4207970000000 1.0
C      1  0.5275270000000  0.6145320000000  0.4288960000000 1.0
C      1  0.4066710000000  0.4738220000000  0.4412550000000 1.0
C      1  0.5199780000000  0.4603510000000  0.5242150000000 1.0
C      1  0.5193740000000  0.4096680000000  0.4862790000000 1.0
C      1  0.4539110000000  0.4457410000000  0.4251580000000 1.0
C      1  0.6276710000000  0.4939930000000  0.5596340000000 1.0
C      1  0.6009280000000  0.5397940000000  0.4441270000000 1.0
C      1  0.5237110000000  0.4922550000000  0.4220970000000 1.0
C      1  0.6126170000000  0.4206480000000  0.5590520000000 1.0
C      1  0.4679550000000  0.5612120000000  0.4718080000000 1.0
C      1  0.4460700000000  0.4717280000000  0.4135950000000 1.0
C      1  0.5610940000000  0.5099170000000  0.4569280000000 1.0
C      1  0.4135040000000  0.5908160000000  0.5617520000000 1.0
C      1  0.4077530000000  0.4884450000000  0.5039350000000 1.0
C      1  0.4663410000000  0.4362870000000  0.5022950000000 1.0
C      1  0.5972100000000  0.4013330000000  0.5487540000000 1.0
C      1  0.4804370000000  0.5052850000000  0.5549890000000 1.0
C      1  0.4940140000000  0.5711610000000  0.5175700000000 1.0
C      1  0.5088910000000  0.4300180000000  0.5905160000000 1.0
C      1  0.4185410000000  0.5760100000000  0.5851930000000 1.0
C      1  0.4020310000000  0.4780310000000  0.3920590000000 1.0
C      1  0.5023230000000  0.4461650000000  0.4162830000000 1.0
C      1  0.5097940000000  0.5120460000000  0.4036250000000 1.0
C      1  0.6092920000000  0.4398390000000  0.4811140000000 1.0
C      1  0.5504160000000  0.5277510000000  0.5107660000000 1.0
C      1  0.4793190000000  0.5150950000000  0.3992540000000 1.0
C      1  0.4364760000000  0.5806380000000  0.4055210000000 1.0
C      1  0.5113930000000  0.6364960000000  0.4367660000000 1.0
C      1  0.4920330000000  0.3792310000000  0.4691830000000 1.0
C      1  0.4800360000000  0.3890590000000  0.4942920000000 1.0
C      1  0.4173890000000  0.4751860000000  0.4144050000000 1.0
C      1  0.5637430000000  0.4839030000000  0.5666080000000 1.0
C      1  0.5330970000000  0.3931500000000  0.4431040000000 1.0
C      1  0.4212450000000  0.5706050000000  0.4712230000000 1.0
C      1  0.6321850000000  0.4463050000000  0.5948270000000 1.0
C      1  0.5257470000000  0.4706970000000  0.6119790000000 1.0
C      1  0.5021420000000  0.5363900000000  0.4524460000000 1.0
C      1  0.4947280000000  0.4564490000000  0.5360160000000 1.0
C      1  0.4352530000000  0.6076980000000  0.5546140000000 1.0
C      1  0.4499350000000  0.4911260000000  0.5919140000000 1.0
C      1  0.4613400000000  0.4965080000000  0.4138270000000 1.0
C      1  0.4498020000000  0.4997960000000  0.4627860000000 1.0
C      1  0.4487890000000  0.6095200000000  0.4686730000000 1.0
C      1  0.4790010000000  0.5636870000000  0.5405370000000 1.0
C      1  0.5745910000000  0.3923710000000  0.5371530000000 1.0
C      1  0.6117290000000  0.5010050000000  0.4177810000000 1.0
C      1  0.5620770000000  0.4421310000000  0.4711230000000 1.0
C      1  0.4452520000000  0.4141390000000  0.4649620000000 1.0
C      1  0.5518820000000  0.5440860000000  0.4012530000000 1.0
C      1  0.4746970000000  0.5803990000000  0.5636110000000 1.0
END
