TITL C-599896-8500-887 42227.5859365904 125000 -843.394912188171 0 0 138 (C1) n - 1
REM
REM in /home/nfs/bkarasulu/CARBON/AIRSS/Generating-Clusters/TERSOFF/Only-C1/FIRE-HFTN
REM
REM
REM
REM
REM
REM ./C.cell (11c1c37f851c82e70ff6c80c92926a4b)
REM AIRSS Version 0.9.1 bugfix July 2018 build 013d7b7c2542+ Fri, 06 Jul 2018 19:26:36 +0100
REM compiler GCC version 9.2.1 20190827 (Red Hat 9.2.1-1)
REM options -cpp -mtune=generic -march=x86-64 -g -O0 -fpre-include=/usr/include/finclude/math-vector-fortran.h
REM seed -780019672 668167962 1031859304 -881480329 -1094673571 -715294565 655606725 1163464615 1203270131 -1498174222 -1098012789 769681549 -657005080 -792740394 -1243182751 -569835752 1389455556 -1953184547 1952867846 268409036 812977743 999277271 -1592150605 978984754 676811623 -259385169 -1678526568 -403391147 -1177386 -1234429693 -1531394581 242037228 1873772862
REM
CELL 1.54180   50.00000   50.00000   50.00000   90.00000   90.00000   90.00000
LATT -1
SFAC C  
C      1  0.5685680000000  0.4492310000000  0.4233740000000 1.0
C      1  0.4252400000000  0.5106690000000  0.4153630000000 1.0
C      1  0.5028120000000  0.5035620000000  0.5123020000000 1.0
C      1  0.6386070000000  0.5039360000000  0.4532210000000 1.0
C      1  0.4051650000000  0.5193980000000  0.4615820000000 1.0
C      1  0.5082910000000  0.5211840000000  0.5832580000000 1.0
C      1  0.6004000000000  0.4618540000000  0.5757880000000 1.0
C      1  0.6137570000000  0.5127340000000  0.4565390000000 1.0
C      1  0.5390770000000  0.4842510000000  0.6083500000000 1.0
C      1  0.4518430000000  0.5568840000000  0.5128270000000 1.0
C      1  0.5383540000000  0.4640250000000  0.5361670000000 1.0
C      1  0.4968040000000  0.5464090000000  0.5332770000000 1.0
C      1  0.3935620000000  0.5746570000000  0.5262400000000 1.0
C      1  0.4975570000000  0.4608170000000  0.4867700000000 1.0
C      1  0.6437320000000  0.4433110000000  0.4193390000000 1.0
C      1  0.4324370000000  0.4380950000000  0.5628650000000 1.0
C      1  0.4811620000000  0.4475630000000  0.5695250000000 1.0
C      1  0.6579860000000  0.4626610000000  0.4308600000000 1.0
C      1  0.4716200000000  0.4957770000000  0.4031810000000 1.0
C      1  0.4270440000000  0.6135760000000  0.4780550000000 1.0
C      1  0.4645980000000  0.5507540000000  0.4882470000000 1.0
C      1  0.5111780000000  0.6152830000000  0.4921350000000 1.0
C      1  0.5066830000000  0.4035570000000  0.5085800000000 1.0
C      1  0.4298050000000  0.5599280000000  0.4401000000000 1.0
C      1  0.3906310000000  0.3680330000000  0.4985040000000 1.0
C      1  0.5063660000000  0.4456460000000  0.4646040000000 1.0
C      1  0.5321220000000  0.4509330000000  0.4551190000000 1.0
C      1  0.5026930000000  0.4457320000000  0.5886970000000 1.0
C      1  0.6017070000000  0.5965550000000  0.6207710000000 1.0
C      1  0.4957340000000  0.5329880000000  0.4197750000000 1.0
C      1  0.5308310000000  0.4480790000000  0.5796090000000 1.0
C      1  0.4441930000000  0.5335010000000  0.5271550000000 1.0
C      1  0.5613620000000  0.5694600000000  0.6072330000000 1.0
C      1  0.5889980000000  0.5734520000000  0.6147920000000 1.0
C      1  0.4879200000000  0.4811560000000  0.5042120000000 1.0
C      1  0.4520940000000  0.4536080000000  0.5143990000000 1.0
C      1  0.4995300000000  0.4569470000000  0.6148500000000 1.0
C      1  0.5239970000000  0.4231740000000  0.5193360000000 1.0
C      1  0.4974740000000  0.4203650000000  0.4240040000000 1.0
C      1  0.5299080000000  0.4598080000000  0.3933160000000 1.0
C      1  0.3949870000000  0.5110670000000  0.4875640000000 1.0
C      1  0.5659530000000  0.4916590000000  0.3969220000000 1.0
C      1  0.5549120000000  0.4666790000000  0.4046890000000 1.0
C      1  0.5211070000000  0.3844140000000  0.4932560000000 1.0
C      1  0.4478780000000  0.5307990000000  0.5742680000000 1.0
C      1  0.5426520000000  0.5551890000000  0.4178170000000 1.0
C      1  0.5412020000000  0.4870200000000  0.5533250000000 1.0
C      1  0.4492360000000  0.5063860000000  0.5177910000000 1.0
C      1  0.6024370000000  0.4873960000000  0.5855510000000 1.0
C      1  0.4181000000000  0.5849910000000  0.5352970000000 1.0
C      1  0.4158050000000  0.3752820000000  0.4944590000000 1.0
C      1  0.4070660000000  0.5073450000000  0.4355060000000 1.0
C      1  0.5166170000000  0.4762930000000  0.6238890000000 1.0
C      1  0.5015990000000  0.6019180000000  0.4690500000000 1.0
C      1  0.4209630000000  0.5970770000000  0.5595710000000 1.0
C      1  0.4087590000000  0.5158290000000  0.5517420000000 1.0
C      1  0.4785180000000  0.4099180000000  0.5090590000000 1.0
C      1  0.5495790000000  0.5511000000000  0.4813360000000 1.0
C      1  0.4889270000000  0.4434740000000  0.5426230000000 1.0
C      1  0.4131620000000  0.4440380000000  0.5441650000000 1.0
C      1  0.4515670000000  0.5172860000000  0.4065430000000 1.0
C      1  0.4304330000000  0.5343690000000  0.5522520000000 1.0
C      1  0.4537230000000  0.4640210000000  0.4489740000000 1.0
C      1  0.5798910000000  0.5267890000000  0.6068440000000 1.0
C      1  0.5480690000000  0.5750390000000  0.4376010000000 1.0
C      1  0.5621690000000  0.5978240000000  0.4326780000000 1.0
C      1  0.3655380000000  0.3621570000000  0.5024350000000 1.0
C      1  0.5229640000000  0.5369700000000  0.4268400000000 1.0
C      1  0.5414460000000  0.5310000000000  0.4994100000000 1.0
C      1  0.5847540000000  0.4992880000000  0.6047010000000 1.0
C      1  0.5473600000000  0.3882970000000  0.4864740000000 1.0
C      1  0.4934820000000  0.4944710000000  0.4488040000000 1.0
C      1  0.4605140000000  0.4807130000000  0.5120850000000 1.0
C      1  0.4191100000000  0.4890420000000  0.5559850000000 1.0
C      1  0.4490600000000  0.5330610000000  0.4731570000000 1.0
C      1  0.6191530000000  0.4347190000000  0.4138210000000 1.0
C      1  0.4806690000000  0.4752390000000  0.3865150000000 1.0
C      1  0.5533170000000  0.4235350000000  0.5177720000000 1.0
C      1  0.5493090000000  0.5124100000000  0.5439760000000 1.0
C      1  0.4902650000000  0.5110180000000  0.5637710000000 1.0
C      1  0.4678960000000  0.5897010000000  0.4324370000000 1.0
C      1  0.5799730000000  0.4443260000000  0.5859090000000 1.0
C      1  0.4964620000000  0.5188100000000  0.5363260000000 1.0
C      1  0.5604700000000  0.5435000000000  0.3992090000000 1.0
C      1  0.4419160000000  0.6026400000000  0.4974660000000 1.0
C      1  0.4903230000000  0.5574540000000  0.4798750000000 1.0
C      1  0.5251510000000  0.6063920000000  0.5136820000000 1.0
C      1  0.4699770000000  0.4332590000000  0.5235570000000 1.0
C      1  0.4033660000000  0.6101610000000  0.4660100000000 1.0
C      1  0.5342400000000  0.5177820000000  0.4457010000000 1.0
C      1  0.5156020000000  0.5060340000000  0.4638110000000 1.0
C      1  0.5370140000000  0.5687440000000  0.4634410000000 1.0
C      1  0.5621280000000  0.4122710000000  0.4927810000000 1.0
C      1  0.5927930000000  0.4375880000000  0.4153850000000 1.0
C      1  0.3822620000000  0.5937180000000  0.4675620000000 1.0
C      1  0.4250130000000  0.5410980000000  0.4607990000000 1.0
C      1  0.5359200000000  0.4781220000000  0.5801390000000 1.0
C      1  0.5573040000000  0.4376880000000  0.5691140000000 1.0
C      1  0.4534350000000  0.4558080000000  0.5717680000000 1.0
C      1  0.6557060000000  0.4858030000000  0.4438820000000 1.0
C      1  0.4716970000000  0.4104010000000  0.4626400000000 1.0
C      1  0.3738880000000  0.5731310000000  0.4825360000000 1.0
C      1  0.5478390000000  0.5352220000000  0.5271290000000 1.0
C      1  0.5377230000000  0.5873730000000  0.5281280000000 1.0
C      1  0.4547270000000  0.5651490000000  0.4267160000000 1.0
C      1  0.4631610000000  0.5065100000000  0.5725860000000 1.0
C      1  0.3859280000000  0.5315450000000  0.5067240000000 1.0
C      1  0.5615270000000  0.5122460000000  0.4482490000000 1.0
C      1  0.4627460000000  0.4009830000000  0.4873430000000 1.0
C      1  0.5661420000000  0.4802690000000  0.6161230000000 1.0
C      1  0.5099250000000  0.5746340000000  0.4696630000000 1.0
C      1  0.5205400000000  0.5127700000000  0.4918130000000 1.0
C      1  0.4348840000000  0.4486690000000  0.4394900000000 1.0
C      1  0.5547530000000  0.5416420000000  0.6021970000000 1.0
C      1  0.5046500000000  0.4629650000000  0.3848750000000 1.0
C      1  0.5594000000000  0.4420190000000  0.5398860000000 1.0
C      1  0.5466490000000  0.5627100000000  0.5347090000000 1.0
C      1  0.4457290000000  0.4835970000000  0.5690100000000 1.0
C      1  0.3987270000000  0.4849480000000  0.5126890000000 1.0
C      1  0.4915100000000  0.4257840000000  0.4502050000000 1.0
C      1  0.4681790000000  0.4860550000000  0.4580800000000 1.0
C      1  0.4916360000000  0.5040310000000  0.4221410000000 1.0
C      1  0.5704790000000  0.4281630000000  0.4705990000000 1.0
C      1  0.4675980000000  0.5421270000000  0.4148550000000 1.0
C      1  0.4084780000000  0.4707450000000  0.5354390000000 1.0
C      1  0.5294100000000  0.5330880000000  0.5944620000000 1.0
C      1  0.5740650000000  0.4525670000000  0.6130880000000 1.0
C      1  0.3902000000000  0.5173500000000  0.5308610000000 1.0
C      1  0.4824890000000  0.6059360000000  0.4485470000000 1.0
C      1  0.5873220000000  0.5132950000000  0.4543860000000 1.0
C      1  0.5996320000000  0.5465650000000  0.6143190000000 1.0
C      1  0.5675190000000  0.5181810000000  0.3930090000000 1.0
C      1  0.3822310000000  0.5592270000000  0.5054590000000 1.0
C      1  0.5146550000000  0.4470820000000  0.5321230000000 1.0
C      1  0.5584540000000  0.4433390000000  0.4496210000000 1.0
C      1  0.4398710000000  0.5823680000000  0.5169260000000 1.0
C      1  0.4546750000000  0.5062060000000  0.4711200000000 1.0
C      1  0.4399190000000  0.3855290000000  0.4905610000000 1.0
END
