TITL C-599896-8500-929 0.00577557198637203 125000 -1195.65366605925 0 0 193 (C1) n - 1
REM
REM in /home/nfs/bkarasulu/CARBON/AIRSS/Generating-Clusters/TERSOFF/Only-C1/FIRE-HFTN
REM
REM
REM
REM
REM
REM ./C.cell (11c1c37f851c82e70ff6c80c92926a4b)
REM AIRSS Version 0.9.1 bugfix July 2018 build 013d7b7c2542+ Fri, 06 Jul 2018 19:26:36 +0100
REM compiler GCC version 9.2.1 20190827 (Red Hat 9.2.1-1)
REM options -cpp -mtune=generic -march=x86-64 -g -O0 -fpre-include=/usr/include/finclude/math-vector-fortran.h
REM seed 282875077 1643979603 -1368851255 1003903109 -231414892 -97559556 1261643606 2067819370 -1497178762 -510660971 2015675525 348926458 -179251733 -1806232012 1162200665 -567346380 -1562479140 84919173 -1437890134 -265572314 1404824576 288985007 -726122104 2009443474 -457328926 733730200 -1884246638 688305440 137559290 1552934391 2124299782 -2126491675 -1901445682
REM
CELL 1.54180   50.00000   50.00000   50.00000   90.00000   90.00000   90.00000
LATT -1
SFAC C  
C      1  0.4970380000000  0.5549380000000  0.5435440000000 1.0
C      1  0.4973180000000  0.3944890000000  0.4343840000000 1.0
C      1  0.4024030000000  0.4144100000000  0.5154060000000 1.0
C      1  0.4480700000000  0.4318430000000  0.4861300000000 1.0
C      1  0.5342610000000  0.5585310000000  0.4984360000000 1.0
C      1  0.4511560000000  0.4099880000000  0.5230010000000 1.0
C      1  0.5083010000000  0.5302120000000  0.4057180000000 1.0
C      1  0.5111510000000  0.4204600000000  0.4690500000000 1.0
C      1  0.5536230000000  0.4656050000000  0.3969880000000 1.0
C      1  0.5016160000000  0.4661460000000  0.4527580000000 1.0
C      1  0.5197370000000  0.5322400000000  0.6252020000000 1.0
C      1  0.5305270000000  0.6241690000000  0.5695930000000 1.0
C      1  0.5272490000000  0.4633540000000  0.4065600000000 1.0
C      1  0.5059210000000  0.4295970000000  0.6275890000000 1.0
C      1  0.5143520000000  0.4565780000000  0.6249560000000 1.0
C      1  0.4680740000000  0.5838790000000  0.4189940000000 1.0
C      1  0.5963560000000  0.5724840000000  0.5580850000000 1.0
C      1  0.5115710000000  0.5766220000000  0.5030890000000 1.0
C      1  0.5594990000000  0.5110970000000  0.4366910000000 1.0
C      1  0.4952110000000  0.5942450000000  0.4847010000000 1.0
C      1  0.4839100000000  0.4399680000000  0.3981740000000 1.0
C      1  0.5979420000000  0.4680080000000  0.5023500000000 1.0
C      1  0.5945750000000  0.4803930000000  0.4529780000000 1.0
C      1  0.5974090000000  0.5204730000000  0.5036330000000 1.0
C      1  0.5946410000000  0.4618860000000  0.4746040000000 1.0
C      1  0.3899060000000  0.5765060000000  0.5274690000000 1.0
C      1  0.5886250000000  0.4664020000000  0.5624880000000 1.0
C      1  0.5239110000000  0.4605940000000  0.5774210000000 1.0
C      1  0.3607260000000  0.5686150000000  0.4916210000000 1.0
C      1  0.5293360000000  0.5548470000000  0.6143710000000 1.0
C      1  0.5673890000000  0.4868520000000  0.4466480000000 1.0
C      1  0.5780260000000  0.4297720000000  0.6062610000000 1.0
C      1  0.4372350000000  0.4666610000000  0.4078080000000 1.0
C      1  0.4736410000000  0.4927540000000  0.3920680000000 1.0
C      1  0.4268230000000  0.3960570000000  0.5582740000000 1.0
C      1  0.4835270000000  0.5091660000000  0.4456980000000 1.0
C      1  0.5330030000000  0.5293100000000  0.3903540000000 1.0
C      1  0.4295910000000  0.4312430000000  0.5917690000000 1.0
C      1  0.3803650000000  0.3981190000000  0.5131710000000 1.0
C      1  0.5092990000000  0.5102620000000  0.4297600000000 1.0
C      1  0.4076640000000  0.5806610000000  0.4805870000000 1.0
C      1  0.5943100000000  0.5445890000000  0.4376790000000 1.0
C      1  0.5335300000000  0.5508790000000  0.4480120000000 1.0
C      1  0.4914950000000  0.5467980000000  0.4739080000000 1.0
C      1  0.5430820000000  0.4209990000000  0.5554030000000 1.0
C      1  0.4659910000000  0.5075860000000  0.5647500000000 1.0
C      1  0.3794170000000  0.4555130000000  0.5023800000000 1.0
C      1  0.4471190000000  0.6005250000000  0.4568180000000 1.0
C      1  0.4408790000000  0.4214710000000  0.4364490000000 1.0
C      1  0.5630920000000  0.4687860000000  0.5485650000000 1.0
C      1  0.4923200000000  0.4548680000000  0.5040960000000 1.0
C      1  0.4497050000000  0.4556340000000  0.5386910000000 1.0
C      1  0.4793180000000  0.4852600000000  0.4597100000000 1.0
C      1  0.5072660000000  0.4816160000000  0.6356770000000 1.0
C      1  0.5054720000000  0.5575150000000  0.4505940000000 1.0
C      1  0.5599210000000  0.5890880000000  0.5852910000000 1.0
C      1  0.4580920000000  0.5152930000000  0.4072850000000 1.0
C      1  0.4645410000000  0.4645580000000  0.3981000000000 1.0
C      1  0.5426620000000  0.6098690000000  0.4025830000000 1.0
C      1  0.5672320000000  0.5824040000000  0.4666540000000 1.0
C      1  0.5340020000000  0.5211100000000  0.4439640000000 1.0
C      1  0.4753220000000  0.4523080000000  0.5846080000000 1.0
C      1  0.5407940000000  0.3652660000000  0.5060040000000 1.0
C      1  0.5470330000000  0.5601350000000  0.4728790000000 1.0
C      1  0.5544010000000  0.5442110000000  0.4040920000000 1.0
C      1  0.5400940000000  0.6236390000000  0.4660310000000 1.0
C      1  0.5211500000000  0.4060440000000  0.5453210000000 1.0
C      1  0.5068480000000  0.4080980000000  0.6108890000000 1.0
C      1  0.5877620000000  0.4016210000000  0.4837260000000 1.0
C      1  0.4216240000000  0.5840300000000  0.4550060000000 1.0
C      1  0.4273030000000  0.5569510000000  0.4365310000000 1.0
C      1  0.5460830000000  0.5934930000000  0.4240870000000 1.0
C      1  0.5464260000000  0.4939620000000  0.3594310000000 1.0
C      1  0.5103290000000  0.4469670000000  0.3910260000000 1.0
C      1  0.4771860000000  0.3799650000000  0.5443870000000 1.0
C      1  0.3850800000000  0.5832510000000  0.4980000000000 1.0
C      1  0.5860730000000  0.4209730000000  0.5805890000000 1.0
C      1  0.6118570000000  0.5213600000000  0.4791480000000 1.0
C      1  0.5500950000000  0.4678560000000  0.4609360000000 1.0
C      1  0.4544290000000  0.3873770000000  0.5644470000000 1.0
C      1  0.5528680000000  0.6081730000000  0.5645740000000 1.0
C      1  0.4817170000000  0.3810870000000  0.4585660000000 1.0
C      1  0.5543740000000  0.6101870000000  0.5101970000000 1.0
C      1  0.4461800000000  0.5415590000000  0.4570630000000 1.0
C      1  0.5542930000000  0.5217170000000  0.5345820000000 1.0
C      1  0.4353510000000  0.5869450000000  0.5570710000000 1.0
C      1  0.5592640000000  0.4483430000000  0.6113800000000 1.0
C      1  0.5955500000000  0.5465380000000  0.5171570000000 1.0
C      1  0.5866580000000  0.3870040000000  0.4373340000000 1.0
C      1  0.4487200000000  0.4781700000000  0.5246010000000 1.0
C      1  0.4023800000000  0.4395600000000  0.5008930000000 1.0
C      1  0.5052960000000  0.6196370000000  0.5621750000000 1.0
C      1  0.5070100000000  0.5314260000000  0.5264180000000 1.0
C      1  0.5017710000000  0.6202740000000  0.4967660000000 1.0
C      1  0.5648250000000  0.6067300000000  0.5381920000000 1.0
C      1  0.5160010000000  0.4702290000000  0.4992310000000 1.0
C      1  0.4912930000000  0.4361910000000  0.5248660000000 1.0
C      1  0.6016120000000  0.4420610000000  0.5141860000000 1.0
C      1  0.5574740000000  0.4916710000000  0.5275440000000 1.0
C      1  0.4563560000000  0.6071450000000  0.5144460000000 1.0
C      1  0.4132420000000  0.5150240000000  0.4866490000000 1.0
C      1  0.4975300000000  0.4983130000000  0.3749210000000 1.0
C      1  0.5744830000000  0.5305630000000  0.4215300000000 1.0
C      1  0.4280840000000  0.5387300000000  0.4820030000000 1.0
C      1  0.5864870000000  0.5794670000000  0.5832790000000 1.0
C      1  0.5688560000000  0.4485550000000  0.4706460000000 1.0
C      1  0.5339500000000  0.4583940000000  0.6043150000000 1.0
C      1  0.4242890000000  0.4054510000000  0.5311380000000 1.0
C      1  0.5360880000000  0.5376330000000  0.5187760000000 1.0
C      1  0.5884020000000  0.5699620000000  0.4493760000000 1.0
C      1  0.6120670000000  0.5293440000000  0.4535350000000 1.0
C      1  0.5419750000000  0.4503270000000  0.5574710000000 1.0
C      1  0.5141480000000  0.4788020000000  0.4266190000000 1.0
C      1  0.4583110000000  0.4926220000000  0.5028550000000 1.0
C      1  0.4378430000000  0.5163750000000  0.5583790000000 1.0
C      1  0.4665410000000  0.5592410000000  0.4696860000000 1.0
C      1  0.5184950000000  0.4091320000000  0.4952140000000 1.0
C      1  0.5415610000000  0.5749650000000  0.6014760000000 1.0
C      1  0.5451010000000  0.3898430000000  0.4624450000000 1.0
C      1  0.4788640000000  0.5541050000000  0.5653590000000 1.0
C      1  0.4062850000000  0.5527120000000  0.5650560000000 1.0
C      1  0.5735320000000  0.5919090000000  0.4940300000000 1.0
C      1  0.4078860000000  0.5791190000000  0.5505910000000 1.0
C      1  0.6000780000000  0.4406750000000  0.5658690000000 1.0
C      1  0.5253340000000  0.5088770000000  0.3706780000000 1.0
C      1  0.4101290000000  0.5068870000000  0.5135700000000 1.0
C      1  0.4448870000000  0.4041020000000  0.4783860000000 1.0
C      1  0.4313070000000  0.4028580000000  0.4537140000000 1.0
C      1  0.5245600000000  0.4698100000000  0.4720920000000 1.0
C      1  0.4671960000000  0.3857670000000  0.4850810000000 1.0
C      1  0.5705060000000  0.5316270000000  0.5553940000000 1.0
C      1  0.5953510000000  0.4850860000000  0.5822830000000 1.0
C      1  0.4273720000000  0.5646940000000  0.4960710000000 1.0
C      1  0.4127420000000  0.4957520000000  0.4651220000000 1.0
C      1  0.4680670000000  0.4293220000000  0.4386980000000 1.0
C      1  0.3918900000000  0.5334680000000  0.5488500000000 1.0
C      1  0.5689900000000  0.5245260000000  0.5823110000000 1.0
C      1  0.4685140000000  0.3868760000000  0.5161300000000 1.0
C      1  0.4295670000000  0.4731930000000  0.4713780000000 1.0
C      1  0.5111960000000  0.5081610000000  0.6334470000000 1.0
C      1  0.3758180000000  0.5491670000000  0.5309220000000 1.0
C      1  0.4738060000000  0.4442510000000  0.4846110000000 1.0
C      1  0.4839670000000  0.4171210000000  0.4178070000000 1.0
C      1  0.4101400000000  0.5039130000000  0.4371440000000 1.0
C      1  0.4682470000000  0.5180230000000  0.5047260000000 1.0
C      1  0.4081750000000  0.5328300000000  0.4305200000000 1.0
C      1  0.4961660000000  0.4678390000000  0.5724060000000 1.0
C      1  0.5838560000000  0.5058820000000  0.5945110000000 1.0
C      1  0.5906530000000  0.5756690000000  0.5109080000000 1.0
C      1  0.5441030000000  0.5649100000000  0.4224760000000 1.0
C      1  0.4598550000000  0.5423280000000  0.3967940000000 1.0
C      1  0.5521100000000  0.6031550000000  0.4504350000000 1.0
C      1  0.4917270000000  0.5323860000000  0.4990980000000 1.0
C      1  0.5023200000000  0.3896570000000  0.5595910000000 1.0
C      1  0.4673570000000  0.4037180000000  0.5851790000000 1.0
C      1  0.4570450000000  0.6070630000000  0.4309240000000 1.0
C      1  0.4878970000000  0.5450410000000  0.3925800000000 1.0
C      1  0.5320420000000  0.6225380000000  0.4939840000000 1.0
C      1  0.5734410000000  0.3926640000000  0.4605840000000 1.0
C      1  0.4884020000000  0.4393120000000  0.4591240000000 1.0
C      1  0.5226280000000  0.4024560000000  0.4479270000000 1.0
C      1  0.4646240000000  0.4325190000000  0.5335730000000 1.0
C      1  0.4244950000000  0.4482580000000  0.4849370000000 1.0
C      1  0.4524760000000  0.5649550000000  0.5659110000000 1.0
C      1  0.4566150000000  0.4823070000000  0.4764290000000 1.0
C      1  0.5108400000000  0.4162700000000  0.5213300000000 1.0
C      1  0.4124350000000  0.5135770000000  0.5409380000000 1.0
C      1  0.5856090000000  0.4934190000000  0.5112300000000 1.0
C      1  0.5268330000000  0.4858090000000  0.5202840000000 1.0
C      1  0.5356570000000  0.3865550000000  0.4899640000000 1.0
C      1  0.4149170000000  0.4124250000000  0.5784440000000 1.0
C      1  0.4187540000000  0.4837570000000  0.4183320000000 1.0
C      1  0.4792590000000  0.5292340000000  0.5790950000000 1.0
C      1  0.5891770000000  0.5903200000000  0.5367530000000 1.0
C      1  0.5659080000000  0.4079810000000  0.5657270000000 1.0
C      1  0.4596780000000  0.5204300000000  0.4366760000000 1.0
C      1  0.4821950000000  0.6195000000000  0.5191640000000 1.0
C      1  0.5071850000000  0.5018090000000  0.5360470000000 1.0
C      1  0.5928340000000  0.5463340000000  0.5464650000000 1.0
C      1  0.5036470000000  0.5796330000000  0.5313260000000 1.0
C      1  0.4888300000000  0.4907460000000  0.5560510000000 1.0
C      1  0.4956580000000  0.6056030000000  0.5403190000000 1.0
C      1  0.4441930000000  0.5827490000000  0.5107680000000 1.0
C      1  0.5968130000000  0.4173670000000  0.5037130000000 1.0
C      1  0.4328260000000  0.5433340000000  0.5704690000000 1.0
C      1  0.4954140000000  0.3980490000000  0.5871780000000 1.0
C      1  0.5614150000000  0.4763600000000  0.3734600000000 1.0
C      1  0.4688710000000  0.5876520000000  0.4723070000000 1.0
C      1  0.3564230000000  0.5482370000000  0.5097980000000 1.0
C      1  0.3571330000000  0.4689810000000  0.5035190000000 1.0
C      1  0.4481780000000  0.5632300000000  0.4126540000000 1.0
C      1  0.4923860000000  0.5739670000000  0.4309260000000 1.0
C      1  0.4579530000000  0.4304950000000  0.5901650000000 1.0
END
