TITL C-599897-7526-1120 0.0063106987859373 125000 -481.525859797907 0 0 79 (C1) n - 1
REM
REM in /home/nfs/bkarasulu/CARBON/AIRSS/Generating-Clusters/TERSOFF/Only-C1/FIRE-HFTN
REM
REM
REM
REM
REM
REM ./C.cell (11c1c37f851c82e70ff6c80c92926a4b)
REM AIRSS Version 0.9.1 bugfix July 2018 build 013d7b7c2542+ Fri, 06 Jul 2018 19:26:36 +0100
REM compiler GCC version 9.2.1 20190827 (Red Hat 9.2.1-1)
REM options -cpp -mtune=generic -march=x86-64 -g -O0 -fpre-include=/usr/include/finclude/math-vector-fortran.h
REM seed 302639992 -1413706065 -1235219143 -1935956540 84320146 1416583409 -401241670 1837432692 -1301172994 1699970483 -1998714813 -2116731035 1833076091 1937998597 -1399626163 -1301775250 -1496487392 -227281434 1802263673 -1284676488 -1093853716 1488141017 -1076640245 1980439896 524018558 1249969259 937934053 -1845984501 153933112 -527012647 -1931094128 -565161445 -300717375
REM
CELL 1.54180   50.00000   50.00000   50.00000   90.00000   90.00000   90.00000
LATT -1
SFAC C  
C      1  0.5376790000000  0.4358760000000  0.4478440000000 1.0
C      1  0.6005600000000  0.4734840000000  0.5101460000000 1.0
C      1  0.4513040000000  0.4805030000000  0.5156840000000 1.0
C      1  0.4116570000000  0.5222000000000  0.4582710000000 1.0
C      1  0.5465570000000  0.5258080000000  0.4756420000000 1.0
C      1  0.5244150000000  0.5548460000000  0.5459840000000 1.0
C      1  0.4279100000000  0.5446650000000  0.4534710000000 1.0
C      1  0.4666230000000  0.5528330000000  0.4256100000000 1.0
C      1  0.5130990000000  0.4769880000000  0.5136060000000 1.0
C      1  0.4236440000000  0.4580400000000  0.4500990000000 1.0
C      1  0.4690580000000  0.5038280000000  0.5709850000000 1.0
C      1  0.5507070000000  0.4282670000000  0.5199430000000 1.0
C      1  0.4654440000000  0.4792570000000  0.4629850000000 1.0
C      1  0.4777990000000  0.5649290000000  0.5396050000000 1.0
C      1  0.5215010000000  0.4495030000000  0.5551440000000 1.0
C      1  0.5876870000000  0.4823950000000  0.5341640000000 1.0
C      1  0.5437790000000  0.4697830000000  0.5599160000000 1.0
C      1  0.4115700000000  0.4987410000000  0.5019080000000 1.0
C      1  0.4946460000000  0.4992810000000  0.5586600000000 1.0
C      1  0.4952930000000  0.5848680000000  0.5261730000000 1.0
C      1  0.3383910000000  0.5173790000000  0.4251800000000 1.0
C      1  0.4727680000000  0.5242860000000  0.4764240000000 1.0
C      1  0.5091930000000  0.5278460000000  0.5070370000000 1.0
C      1  0.5070070000000  0.4685520000000  0.4883630000000 1.0
C      1  0.5392170000000  0.4187430000000  0.4703250000000 1.0
C      1  0.4268730000000  0.4871230000000  0.5533230000000 1.0
C      1  0.4954070000000  0.4897180000000  0.5318710000000 1.0
C      1  0.5794200000000  0.4926240000000  0.4701790000000 1.0
C      1  0.5743000000000  0.5247340000000  0.5127080000000 1.0
C      1  0.3621020000000  0.5193620000000  0.4358310000000 1.0
C      1  0.4645210000000  0.5316030000000  0.5754240000000 1.0
C      1  0.4840230000000  0.5983470000000  0.5041600000000 1.0
C      1  0.3862000000000  0.5212580000000  0.4466760000000 1.0
C      1  0.5385890000000  0.4957790000000  0.5715450000000 1.0
C      1  0.5200380000000  0.5005430000000  0.4299970000000 1.0
C      1  0.4200220000000  0.5000430000000  0.4743920000000 1.0
C      1  0.5462430000000  0.5716020000000  0.5057160000000 1.0
C      1  0.5553210000000  0.5448690000000  0.5166660000000 1.0
C      1  0.4258090000000  0.4899130000000  0.5245790000000 1.0
C      1  0.4544560000000  0.4521190000000  0.5158170000000 1.0
C      1  0.5847610000000  0.5102860000000  0.5343030000000 1.0
C      1  0.5695760000000  0.5315470000000  0.4388050000000 1.0
C      1  0.4828910000000  0.5512090000000  0.5653150000000 1.0
C      1  0.4660020000000  0.4558200000000  0.5635230000000 1.0
C      1  0.5713090000000  0.4376420000000  0.5369700000000 1.0
C      1  0.4515910000000  0.4815040000000  0.5680720000000 1.0
C      1  0.4846070000000  0.4179960000000  0.5025270000000 1.0
C      1  0.5684410000000  0.5123610000000  0.4879280000000 1.0
C      1  0.4780710000000  0.5257420000000  0.5057470000000 1.0
C      1  0.5556700000000  0.4284960000000  0.4914860000000 1.0
C      1  0.5434590000000  0.4590080000000  0.4357440000000 1.0
C      1  0.4777000000000  0.5042690000000  0.4568210000000 1.0
C      1  0.5238410000000  0.5788640000000  0.5274560000000 1.0
C      1  0.5282710000000  0.3937770000000  0.4702990000000 1.0
C      1  0.4845600000000  0.5335910000000  0.4201810000000 1.0
C      1  0.4698340000000  0.5961360000000  0.4816140000000 1.0
C      1  0.5448820000000  0.4871590000000  0.4340780000000 1.0
C      1  0.5109970000000  0.5429150000000  0.5676830000000 1.0
C      1  0.4492230000000  0.5615720000000  0.4460570000000 1.0
C      1  0.5516860000000  0.5715010000000  0.4765130000000 1.0
C      1  0.4651860000000  0.5478000000000  0.5205180000000 1.0
C      1  0.5164600000000  0.5138290000000  0.5698100000000 1.0
C      1  0.4567810000000  0.5833230000000  0.4621870000000 1.0
C      1  0.4725110000000  0.4988070000000  0.5175340000000 1.0
C      1  0.5204690000000  0.5217740000000  0.4821700000000 1.0
C      1  0.4695610000000  0.4405700000000  0.4948100000000 1.0
C      1  0.5296780000000  0.5347470000000  0.5262270000000 1.0
C      1  0.5891980000000  0.4695010000000  0.4842010000000 1.0
C      1  0.5557100000000  0.5476110000000  0.4592880000000 1.0
C      1  0.4816610000000  0.4602860000000  0.4777060000000 1.0
C      1  0.4947490000000  0.4514920000000  0.5669030000000 1.0
C      1  0.4545820000000  0.4409810000000  0.5419090000000 1.0
C      1  0.5038610000000  0.4156420000000  0.5211480000000 1.0
C      1  0.5688550000000  0.5013690000000  0.4432230000000 1.0
C      1  0.4364130000000  0.4789700000000  0.4625870000000 1.0
C      1  0.5696540000000  0.4641820000000  0.5472100000000 1.0
C      1  0.5771880000000  0.4443190000000  0.4818850000000 1.0
C      1  0.5250830000000  0.4297160000000  0.5331110000000 1.0
C      1  0.4941960000000  0.5111460000000  0.4343970000000 1.0
END
