TITL C-599893-4344-11 5.31379598303812e-06 125000 -608.012770201533 0 0 100 (C1) n - 1
REM
REM in /home/nfs/bkarasulu/CARBON/AIRSS/Generating-Clusters/TERSOFF/Only-C1/FIRE-HFTN
REM
REM
REM
REM
REM
REM ./C.cell (11c1c37f851c82e70ff6c80c92926a4b)
REM AIRSS Version 0.9.1 bugfix July 2018 build 013d7b7c2542+ Fri, 06 Jul 2018 19:26:36 +0100
REM compiler GCC version 9.2.1 20190827 (Red Hat 9.2.1-1)
REM options -cpp -mtune=generic -march=x86-64 -g -O0 -fpre-include=/usr/include/finclude/math-vector-fortran.h
REM seed -848832105 1042789811 1614308182 2006590097 -2027817283 699184971 322329839 -536891338 133082938 -662908644 -1867502387 -1381299716 1800109533 757696849 -1399308929 1982942992 -882502465 -1506757125 -1853887163 -864359947 1558649719 805156828 -1521151486 -125131489 765571903 2103615178 696827841 -859679167 1020896889 471877162 1060738299 -401249929 950106555
REM
CELL 1.54180   50.00000   50.00000   50.00000   90.00000   90.00000   90.00000
LATT -1
SFAC C  
C      1  0.5442680000000  0.4335800000000  0.5472770000000 1.0
C      1  0.5571210000000  0.5036040000000  0.5637750000000 1.0
C      1  0.5360580000000  0.4723170000000  0.3955570000000 1.0
C      1  0.3953490000000  0.5140520000000  0.5058130000000 1.0
C      1  0.5152460000000  0.5366490000000  0.4355300000000 1.0
C      1  0.4537980000000  0.5000600000000  0.5025850000000 1.0
C      1  0.5490830000000  0.5303420000000  0.4988690000000 1.0
C      1  0.5293600000000  0.5177530000000  0.4210890000000 1.0
C      1  0.5947780000000  0.5111550000000  0.5057740000000 1.0
C      1  0.4562720000000  0.5615580000000  0.5363200000000 1.0
C      1  0.4803920000000  0.5607040000000  0.4205640000000 1.0
C      1  0.4453730000000  0.4282160000000  0.5155020000000 1.0
C      1  0.5718410000000  0.4686230000000  0.4267180000000 1.0
C      1  0.5039980000000  0.5366200000000  0.5778130000000 1.0
C      1  0.5580680000000  0.5719000000000  0.4355200000000 1.0
C      1  0.4703010000000  0.4153430000000  0.5201540000000 1.0
C      1  0.4692360000000  0.5863250000000  0.5414020000000 1.0
C      1  0.4101980000000  0.4682200000000  0.5189140000000 1.0
C      1  0.4874000000000  0.5929950000000  0.5183290000000 1.0
C      1  0.4754300000000  0.4489830000000  0.4217670000000 1.0
C      1  0.5127860000000  0.5891290000000  0.5566420000000 1.0
C      1  0.4850560000000  0.4037490000000  0.4751150000000 1.0
C      1  0.5539730000000  0.4235240000000  0.4490480000000 1.0
C      1  0.5610360000000  0.5246190000000  0.5436350000000 1.0
C      1  0.5135210000000  0.5815210000000  0.5284380000000 1.0
C      1  0.5207710000000  0.4798910000000  0.5347530000000 1.0
C      1  0.5005240000000  0.5076990000000  0.6145100000000 1.0
C      1  0.4789190000000  0.4066990000000  0.5457250000000 1.0
C      1  0.5420340000000  0.4310990000000  0.4246040000000 1.0
C      1  0.4861800000000  0.5915980000000  0.5644060000000 1.0
C      1  0.4495610000000  0.5126810000000  0.6068530000000 1.0
C      1  0.4908980000000  0.4125980000000  0.5002960000000 1.0
C      1  0.5178610000000  0.4786420000000  0.5628860000000 1.0
C      1  0.4766640000000  0.4717820000000  0.4692720000000 1.0
C      1  0.6271730000000  0.5398660000000  0.4825970000000 1.0
C      1  0.4552990000000  0.4890580000000  0.4765340000000 1.0
C      1  0.5731990000000  0.4879210000000  0.4449540000000 1.0
C      1  0.5414990000000  0.5377860000000  0.5253530000000 1.0
C      1  0.4629440000000  0.4911960000000  0.5283290000000 1.0
C      1  0.5165220000000  0.5039970000000  0.4794150000000 1.0
C      1  0.5153260000000  0.4652000000000  0.3780010000000 1.0
C      1  0.4994830000000  0.5274260000000  0.4810550000000 1.0
C      1  0.4406450000000  0.5014330000000  0.4548300000000 1.0
C      1  0.6024220000000  0.5282270000000  0.4835100000000 1.0
C      1  0.4817700000000  0.4537300000000  0.5827300000000 1.0
C      1  0.4672390000000  0.5467010000000  0.5137420000000 1.0
C      1  0.5397090000000  0.4790200000000  0.5159950000000 1.0
C      1  0.4699770000000  0.5379770000000  0.4371570000000 1.0
C      1  0.4268350000000  0.5232970000000  0.5940370000000 1.0
C      1  0.4496800000000  0.5279910000000  0.5023480000000 1.0
C      1  0.5514220000000  0.4552760000000  0.4125780000000 1.0
C      1  0.4715050000000  0.4533310000000  0.4490660000000 1.0
C      1  0.5869300000000  0.5229670000000  0.5306460000000 1.0
C      1  0.4375420000000  0.5488330000000  0.5531230000000 1.0
C      1  0.4515030000000  0.5913960000000  0.4812710000000 1.0
C      1  0.4247450000000  0.4457120000000  0.5150540000000 1.0
C      1  0.5436850000000  0.5117010000000  0.4784850000000 1.0
C      1  0.4932080000000  0.5338420000000  0.4544910000000 1.0
C      1  0.4617080000000  0.4957150000000  0.4119680000000 1.0
C      1  0.5174440000000  0.4203040000000  0.4165810000000 1.0
C      1  0.5755840000000  0.5559310000000  0.4486050000000 1.0
C      1  0.4122580000000  0.5070570000000  0.5498460000000 1.0
C      1  0.5174130000000  0.5539910000000  0.5213770000000 1.0
C      1  0.4594980000000  0.4588960000000  0.5686340000000 1.0
C      1  0.4915800000000  0.4269720000000  0.4148210000000 1.0
C      1  0.5650360000000  0.5098560000000  0.4599140000000 1.0
C      1  0.3975640000000  0.5376230000000  0.4932190000000 1.0
C      1  0.4094260000000  0.5597810000000  0.4839580000000 1.0
C      1  0.5319480000000  0.4993780000000  0.5767540000000 1.0
C      1  0.4134780000000  0.4984810000000  0.4527960000000 1.0
C      1  0.5338520000000  0.5777190000000  0.4244060000000 1.0
C      1  0.5085040000000  0.4544320000000  0.5739280000000 1.0
C      1  0.5018180000000  0.4093080000000  0.5597970000000 1.0
C      1  0.4552360000000  0.5136720000000  0.4330770000000 1.0
C      1  0.5620810000000  0.4283670000000  0.4740530000000 1.0
C      1  0.5832090000000  0.5321540000000  0.4622990000000 1.0
C      1  0.5166480000000  0.5165770000000  0.5930930000000 1.0
C      1  0.4053060000000  0.5309720000000  0.6092110000000 1.0
C      1  0.4254720000000  0.5264650000000  0.5656350000000 1.0
C      1  0.5629630000000  0.4676130000000  0.5044770000000 1.0
C      1  0.5644190000000  0.4520400000000  0.5565000000000 1.0
C      1  0.5419390000000  0.4269190000000  0.5189580000000 1.0
C      1  0.4878100000000  0.5294510000000  0.5577660000000 1.0
C      1  0.4725740000000  0.4710050000000  0.4034750000000 1.0
C      1  0.4887460000000  0.4690530000000  0.3804010000000 1.0
C      1  0.5099640000000  0.5626020000000  0.4227320000000 1.0
C      1  0.5593510000000  0.4396810000000  0.4996030000000 1.0
C      1  0.5177800000000  0.4162390000000  0.5085700000000 1.0
C      1  0.4737070000000  0.5073460000000  0.6169990000000 1.0
C      1  0.5859110000000  0.4841310000000  0.5020220000000 1.0
C      1  0.4043700000000  0.4954610000000  0.5251830000000 1.0
C      1  0.4283660000000  0.5780670000000  0.4790820000000 1.0
C      1  0.5202990000000  0.4304210000000  0.5633750000000 1.0
C      1  0.4789410000000  0.5099400000000  0.5420970000000 1.0
C      1  0.5709910000000  0.4781450000000  0.5612960000000 1.0
C      1  0.4744260000000  0.5976060000000  0.4938670000000 1.0
C      1  0.4545730000000  0.4703140000000  0.5449260000000 1.0
C      1  0.4951320000000  0.5429810000000  0.5051720000000 1.0
C      1  0.5029700000000  0.4797790000000  0.4755760000000 1.0
C      1  0.5360850000000  0.4994390000000  0.4031910000000 1.0
END
