TITL C-599892-9790-872 0.0144675962435962 125000 -240.869888887253 0 0 42 (C1) n - 1
REM
REM in /home/nfs/bkarasulu/CARBON/AIRSS/Generating-Clusters/TERSOFF/Only-C1/FIRE-HFTN
REM
REM
REM
REM
REM
REM ./C.cell (11c1c37f851c82e70ff6c80c92926a4b)
REM AIRSS Version 0.9.1 bugfix July 2018 build 013d7b7c2542+ Fri, 06 Jul 2018 19:26:36 +0100
REM compiler GCC version 9.2.1 20190827 (Red Hat 9.2.1-1)
REM options -cpp -mtune=generic -march=x86-64 -g -O0 -fpre-include=/usr/include/finclude/math-vector-fortran.h
REM seed -1881228163 -999682025 244408638 1735336257 570169293 -1672625680 -1445069133 1153614791 1978099987 -1157080492 1637866099 -1013893762 1701377936 -1899223701 744359059 -624197714 876955508 -523245887 -36510004 1224170137 328103301 605398759 -1205188728 -1919668020 -1527983448 976832942 12916555 1201709157 -969239111 166773382 -1318991835 442776272 41472087
REM
CELL 1.54180   50.00000   50.00000   50.00000   90.00000   90.00000   90.00000
LATT -1
SFAC C  
C      1  0.4784730000000  0.4782410000000  0.5337870000000 1.0
C      1  0.5352750000000  0.4405810000000  0.4899540000000 1.0
C      1  0.5083480000000  0.5337120000000  0.4664400000000 1.0
C      1  0.5478760000000  0.5040430000000  0.4643770000000 1.0
C      1  0.4705860000000  0.4758430000000  0.4596670000000 1.0
C      1  0.5423790000000  0.4452350000000  0.5354670000000 1.0
C      1  0.5599050000000  0.5153160000000  0.4875400000000 1.0
C      1  0.4425920000000  0.4737620000000  0.4580400000000 1.0
C      1  0.5470870000000  0.4526800000000  0.4677740000000 1.0
C      1  0.5139400000000  0.5323300000000  0.5493940000000 1.0
C      1  0.4871050000000  0.4827850000000  0.4379800000000 1.0
C      1  0.4259890000000  0.5352780000000  0.4713890000000 1.0
C      1  0.5277350000000  0.4689920000000  0.5386460000000 1.0
C      1  0.4585540000000  0.4987220000000  0.5302700000000 1.0
C      1  0.5104850000000  0.5087250000000  0.5085430000000 1.0
C      1  0.5506560000000  0.4337040000000  0.5125380000000 1.0
C      1  0.4759430000000  0.4590390000000  0.5531100000000 1.0
C      1  0.4836950000000  0.5679530000000  0.5054880000000 1.0
C      1  0.4707480000000  0.5404160000000  0.5033140000000 1.0
C      1  0.5568670000000  0.5201520000000  0.5153130000000 1.0
C      1  0.5087790000000  0.4448860000000  0.4973690000000 1.0
C      1  0.5725120000000  0.5121660000000  0.5373470000000 1.0
C      1  0.5237540000000  0.5144440000000  0.4523850000000 1.0
C      1  0.5292280000000  0.5294180000000  0.5232810000000 1.0
C      1  0.5616060000000  0.4994010000000  0.5585770000000 1.0
C      1  0.4216190000000  0.4864990000000  0.4719330000000 1.0
C      1  0.5136840000000  0.5614480000000  0.4691280000000 1.0
C      1  0.5537720000000  0.4770050000000  0.4589430000000 1.0
C      1  0.5019570000000  0.4786290000000  0.5143380000000 1.0
C      1  0.4935900000000  0.5236620000000  0.4894100000000 1.0
C      1  0.5089380000000  0.4981400000000  0.4346300000000 1.0
C      1  0.4884810000000  0.4276990000000  0.4979360000000 1.0
C      1  0.4332480000000  0.4906050000000  0.5213090000000 1.0
C      1  0.4196930000000  0.4821750000000  0.4997770000000 1.0
C      1  0.5106320000000  0.5707380000000  0.4960630000000 1.0
C      1  0.4677400000000  0.5260110000000  0.5303560000000 1.0
C      1  0.4144100000000  0.5124050000000  0.4633990000000 1.0
C      1  0.4819030000000  0.4766480000000  0.4849320000000 1.0
C      1  0.4867220000000  0.5332460000000  0.5505210000000 1.0
C      1  0.5293980000000  0.5587710000000  0.5136690000000 1.0
C      1  0.4459470000000  0.5425180000000  0.4874780000000 1.0
C      1  0.5381470000000  0.4859780000000  0.5581850000000 1.0
END
