TITL C-599895-9959-492 1.7803557883505e-07 125000 -790.819702955513 0 0 130 (C1) n - 1
REM
REM in /home/nfs/bkarasulu/CARBON/AIRSS/Generating-Clusters/TERSOFF/Only-C1/FIRE-HFTN
REM
REM
REM
REM
REM
REM ./C.cell (11c1c37f851c82e70ff6c80c92926a4b)
REM AIRSS Version 0.9.1 bugfix July 2018 build 013d7b7c2542+ Fri, 06 Jul 2018 19:26:36 +0100
REM compiler GCC version 9.2.1 20190827 (Red Hat 9.2.1-1)
REM options -cpp -mtune=generic -march=x86-64 -g -O0 -fpre-include=/usr/include/finclude/math-vector-fortran.h
REM seed 527424697 -1583888751 -472459567 -252522507 -1514427248 -786064536 -1672352437 -329145254 -1484484099 -2032186942 1141365225 -1524467631 -1548694598 7376917 736642398 533995156 233068026 -1327124912 1340486494 520007548 943898875 1277432539 -1922434334 546868827 -826296172 -2139469481 -50335999 1524205038 -123742889 1933431734 1679735601 611694229 -1717996018
REM
CELL 1.54180   50.00000   50.00000   50.00000   90.00000   90.00000   90.00000
LATT -1
SFAC C  
C      1  0.4615260000000  0.4205370000000  0.4527720000000 1.0
C      1  0.4965160000000  0.5375490000000  0.3738330000000 1.0
C      1  0.4657830000000  0.4595990000000  0.4871290000000 1.0
C      1  0.5889510000000  0.4553630000000  0.4842250000000 1.0
C      1  0.5472210000000  0.4246870000000  0.5729310000000 1.0
C      1  0.4182020000000  0.5285530000000  0.4651590000000 1.0
C      1  0.4218070000000  0.4434130000000  0.5586940000000 1.0
C      1  0.5792160000000  0.4793670000000  0.4416280000000 1.0
C      1  0.5206050000000  0.5420640000000  0.4597410000000 1.0
C      1  0.6049470000000  0.5301370000000  0.5323880000000 1.0
C      1  0.4918890000000  0.5046690000000  0.4933830000000 1.0
C      1  0.5688460000000  0.5696240000000  0.4508840000000 1.0
C      1  0.4723630000000  0.5207630000000  0.4786590000000 1.0
C      1  0.4949040000000  0.5957460000000  0.5374900000000 1.0
C      1  0.4174200000000  0.5648170000000  0.5012120000000 1.0
C      1  0.5598470000000  0.4778700000000  0.4188190000000 1.0
C      1  0.5085980000000  0.5472620000000  0.5477360000000 1.0
C      1  0.5139120000000  0.5187000000000  0.5074200000000 1.0
C      1  0.4653400000000  0.5620500000000  0.4233360000000 1.0
C      1  0.4484690000000  0.4877950000000  0.5751660000000 1.0
C      1  0.5099440000000  0.6106820000000  0.4543040000000 1.0
C      1  0.4212720000000  0.4490720000000  0.5004080000000 1.0
C      1  0.5128910000000  0.4892900000000  0.4392890000000 1.0
C      1  0.4224770000000  0.5518460000000  0.5752530000000 1.0
C      1  0.4850040000000  0.4625380000000  0.5935820000000 1.0
C      1  0.4183180000000  0.4780950000000  0.4609580000000 1.0
C      1  0.4614880000000  0.4336620000000  0.5312000000000 1.0
C      1  0.5428980000000  0.5569470000000  0.5818400000000 1.0
C      1  0.5540510000000  0.5438800000000  0.4110830000000 1.0
C      1  0.4458400000000  0.5415450000000  0.4209320000000 1.0
C      1  0.5074180000000  0.5374880000000  0.3992480000000 1.0
C      1  0.4328660000000  0.4261960000000  0.4594910000000 1.0
C      1  0.4533860000000  0.5834000000000  0.4393580000000 1.0
C      1  0.4887620000000  0.4749600000000  0.4912850000000 1.0
C      1  0.5275700000000  0.5661380000000  0.5595550000000 1.0
C      1  0.5536270000000  0.4201800000000  0.5091290000000 1.0
C      1  0.5454600000000  0.3999090000000  0.5592960000000 1.0
C      1  0.5123640000000  0.5445510000000  0.5195710000000 1.0
C      1  0.5416410000000  0.4344350000000  0.3753770000000 1.0
C      1  0.5492680000000  0.4503380000000  0.4206700000000 1.0
C      1  0.4865510000000  0.5380340000000  0.5901730000000 1.0
C      1  0.5714440000000  0.5172860000000  0.4728520000000 1.0
C      1  0.4766730000000  0.5917420000000  0.4841410000000 1.0
C      1  0.5762630000000  0.4898580000000  0.5799600000000 1.0
C      1  0.4577000000000  0.4719840000000  0.5971530000000 1.0
C      1  0.4874000000000  0.4777130000000  0.5393080000000 1.0
C      1  0.5380840000000  0.4231160000000  0.4632450000000 1.0
C      1  0.4503360000000  0.4444200000000  0.5058500000000 1.0
C      1  0.5316680000000  0.4955550000000  0.4603920000000 1.0
C      1  0.5682890000000  0.5196030000000  0.5006970000000 1.0
C      1  0.5843210000000  0.5378610000000  0.5153510000000 1.0
C      1  0.5282160000000  0.4866710000000  0.5857320000000 1.0
C      1  0.5343490000000  0.5253300000000  0.4024970000000 1.0
C      1  0.4478020000000  0.4495170000000  0.5505130000000 1.0
C      1  0.5422170000000  0.5126960000000  0.5092620000000 1.0
C      1  0.5554590000000  0.4389550000000  0.4468110000000 1.0
C      1  0.3881180000000  0.5120900000000  0.5247140000000 1.0
C      1  0.4177380000000  0.4497090000000  0.4714390000000 1.0
C      1  0.4908480000000  0.6114530000000  0.4730910000000 1.0
C      1  0.3993140000000  0.5337870000000  0.5394280000000 1.0
C      1  0.5613940000000  0.5819610000000  0.4736130000000 1.0
C      1  0.4455120000000  0.4845720000000  0.4534610000000 1.0
C      1  0.4950670000000  0.4402050000000  0.5767140000000 1.0
C      1  0.5452720000000  0.4983760000000  0.4045770000000 1.0
C      1  0.5237510000000  0.3908240000000  0.5459400000000 1.0
C      1  0.5923450000000  0.4675940000000  0.5362490000000 1.0
C      1  0.4888720000000  0.5110240000000  0.5978230000000 1.0
C      1  0.5945130000000  0.4621970000000  0.5098190000000 1.0
C      1  0.4409950000000  0.4994060000000  0.5101670000000 1.0
C      1  0.4347100000000  0.5899380000000  0.4585610000000 1.0
C      1  0.5770100000000  0.4552270000000  0.4584600000000 1.0
C      1  0.4378560000000  0.5280390000000  0.4437700000000 1.0
C      1  0.4596920000000  0.5445220000000  0.4902250000000 1.0
C      1  0.4705300000000  0.5701030000000  0.5010000000000 1.0
C      1  0.4118920000000  0.5265410000000  0.5660440000000 1.0
C      1  0.5105020000000  0.5614170000000  0.4415540000000 1.0
C      1  0.5181660000000  0.5884300000000  0.4418920000000 1.0
C      1  0.5691790000000  0.4422730000000  0.5707060000000 1.0
C      1  0.4625170000000  0.4739170000000  0.5531170000000 1.0
C      1  0.5290040000000  0.4882760000000  0.5576750000000 1.0
C      1  0.5331070000000  0.4381420000000  0.4010300000000 1.0
C      1  0.4301430000000  0.5432720000000  0.4872770000000 1.0
C      1  0.4619660000000  0.4636270000000  0.4587870000000 1.0
C      1  0.5460820000000  0.5249580000000  0.4576490000000 1.0
C      1  0.4899350000000  0.4499060000000  0.4208110000000 1.0
C      1  0.5089870000000  0.4584480000000  0.4783400000000 1.0
C      1  0.4204720000000  0.5868130000000  0.4821150000000 1.0
C      1  0.5535610000000  0.5744010000000  0.4995840000000 1.0
C      1  0.5036310000000  0.4024150000000  0.4158750000000 1.0
C      1  0.5500410000000  0.4092290000000  0.4848000000000 1.0
C      1  0.4857210000000  0.4914360000000  0.3983100000000 1.0
C      1  0.4014000000000  0.4601000000000  0.5182600000000 1.0
C      1  0.4574700000000  0.5102320000000  0.4554260000000 1.0
C      1  0.5344100000000  0.4691050000000  0.5134640000000 1.0
C      1  0.5072220000000  0.4298610000000  0.4095450000000 1.0
C      1  0.5101740000000  0.4310760000000  0.4683610000000 1.0
C      1  0.4741590000000  0.5777900000000  0.5285530000000 1.0
C      1  0.5022810000000  0.4860060000000  0.5965460000000 1.0
C      1  0.4831180000000  0.5460290000000  0.5624970000000 1.0
C      1  0.6047270000000  0.5228350000000  0.5581210000000 1.0
C      1  0.5829150000000  0.5173050000000  0.5748680000000 1.0
C      1  0.4691840000000  0.4450440000000  0.4391580000000 1.0
C      1  0.5747020000000  0.5643370000000  0.5154130000000 1.0
C      1  0.5180850000000  0.5921310000000  0.5517690000000 1.0
C      1  0.5647020000000  0.5388020000000  0.5802750000000 1.0
C      1  0.4971470000000  0.4775060000000  0.4188460000000 1.0
C      1  0.3899930000000  0.4862120000000  0.5169820000000 1.0
C      1  0.4398840000000  0.5077900000000  0.5345880000000 1.0
C      1  0.5322040000000  0.4752710000000  0.4837500000000 1.0
C      1  0.5275790000000  0.5652360000000  0.5064140000000 1.0
C      1  0.5815720000000  0.4668390000000  0.5626830000000 1.0
C      1  0.4981080000000  0.3924500000000  0.4405810000000 1.0
C      1  0.5160210000000  0.4783910000000  0.5348980000000 1.0
C      1  0.5610840000000  0.5458880000000  0.4378680000000 1.0
C      1  0.3999430000000  0.4472380000000  0.5434370000000 1.0
C      1  0.4624950000000  0.5619940000000  0.5491700000000 1.0
C      1  0.5280990000000  0.5598980000000  0.6059690000000 1.0
C      1  0.5537380000000  0.4865010000000  0.5972560000000 1.0
C      1  0.4320600000000  0.5067120000000  0.5621300000000 1.0
C      1  0.4843390000000  0.4241240000000  0.5470520000000 1.0
C      1  0.4996960000000  0.4016520000000  0.5406720000000 1.0
C      1  0.5220550000000  0.4334430000000  0.5824470000000 1.0
C      1  0.4885680000000  0.4109070000000  0.4603910000000 1.0
C      1  0.4043680000000  0.5028950000000  0.4666630000000 1.0
C      1  0.5470890000000  0.4442410000000  0.5189940000000 1.0
C      1  0.4341070000000  0.5640330000000  0.5515490000000 1.0
C      1  0.4141820000000  0.5585480000000  0.5292660000000 1.0
C      1  0.5012970000000  0.5555730000000  0.6071760000000 1.0
C      1  0.4934910000000  0.5533880000000  0.4200680000000 1.0
C      1  0.5882120000000  0.5020320000000  0.4559030000000 1.0
END
