TITL C-599890-3321-857 0.326876496994092 125000 -130.115634440589 0 0 24 (C1) n - 1
REM
REM in /home/nfs/bkarasulu/CARBON/AIRSS/Generating-Clusters/TERSOFF/Only-C1/FIRE-HFTN
REM
REM
REM
REM
REM
REM ./C.cell (11c1c37f851c82e70ff6c80c92926a4b)
REM AIRSS Version 0.9.1 bugfix July 2018 build 013d7b7c2542+ Fri, 06 Jul 2018 19:26:36 +0100
REM compiler GCC version 9.2.1 20190827 (Red Hat 9.2.1-1)
REM options -cpp -mtune=generic -march=x86-64 -g -O0 -fpre-include=/usr/include/finclude/math-vector-fortran.h
REM seed 937190494 -1897641879 -1750007507 -1174604231 647201587 -1958091993 -1498835889 -266790841 1814818098 1385319882 1041781229 -132364983 613173160 -1581916803 -364448313 -435879921 -237803771 449944256 500818702 523890824 2090197684 -777015728 1911970530 1891014778 -80879289 1684764316 247774573 -201012075 273426862 194266234 -1065815387 -1227149863 -5080958
REM
CELL 1.54180   50.00000   50.00000   50.00000   90.00000   90.00000   90.00000
LATT -1
SFAC C  
C      1  0.4878990000000  0.4932190000000  0.4292040000000 1.0
C      1  0.5084500000000  0.4986650000000  0.5846870000000 1.0
C      1  0.4695300000000  0.4747330000000  0.4682060000000 1.0
C      1  0.5239490000000  0.5067230000000  0.4672240000000 1.0
C      1  0.5006210000000  0.4941970000000  0.5324850000000 1.0
C      1  0.5617130000000  0.5159010000000  0.6297920000000 1.0
C      1  0.4926080000000  0.4960280000000  0.6299140000000 1.0
C      1  0.4652360000000  0.5441230000000  0.4358950000000 1.0
C      1  0.4778000000000  0.5188480000000  0.4700990000000 1.0
C      1  0.5128240000000  0.5010910000000  0.6121980000000 1.0
C      1  0.5158370000000  0.4835120000000  0.4841420000000 1.0
C      1  0.5059100000000  0.4382460000000  0.4596210000000 1.0
C      1  0.5004180000000  0.5086040000000  0.4507360000000 1.0
C      1  0.4967260000000  0.4919830000000  0.5053290000000 1.0
C      1  0.4978370000000  0.4628440000000  0.4693190000000 1.0
C      1  0.4605260000000  0.4899970000000  0.4412460000000 1.0
C      1  0.4565760000000  0.5197030000000  0.4495100000000 1.0
C      1  0.5145750000000  0.5531760000000  0.4538000000000 1.0
C      1  0.5045190000000  0.4964250000000  0.5585880000000 1.0
C      1  0.4732190000000  0.4971490000000  0.4889560000000 1.0
C      1  0.5135400000000  0.4152910000000  0.4499310000000 1.0
C      1  0.4901160000000  0.5559540000000  0.4410420000000 1.0
C      1  0.5381000000000  0.5087520000000  0.6213940000000 1.0
C      1  0.5314690000000  0.5348360000000  0.4666780000000 1.0
END
