TITL C-599892-9790-992 2.2169837891372 125000 -355.120801168477 0 0 59 (C1) n - 1
REM
REM in /home/nfs/bkarasulu/CARBON/AIRSS/Generating-Clusters/TERSOFF/Only-C1/FIRE-HFTN
REM
REM
REM
REM
REM
REM ./C.cell (11c1c37f851c82e70ff6c80c92926a4b)
REM AIRSS Version 0.9.1 bugfix July 2018 build 013d7b7c2542+ Fri, 06 Jul 2018 19:26:36 +0100
REM compiler GCC version 9.2.1 20190827 (Red Hat 9.2.1-1)
REM options -cpp -mtune=generic -march=x86-64 -g -O0 -fpre-include=/usr/include/finclude/math-vector-fortran.h
REM seed -976800005 -390763254 2069780438 489889280 -1371344365 251976681 859747184 -776241406 980974778 911294814 -149055620 -1492382746 -1918007586 -509250127 -1778987914 569289810 656582357 444104407 -2113859578 892698242 -1739152747 -1874476608 -246665856 -434227294 -1355403896 -2115430986 -1736878738 -1484818405 -537232249 1500554378 -2113196787 1943187710 849164270
REM
CELL 1.54180   50.00000   50.00000   50.00000   90.00000   90.00000   90.00000
LATT -1
SFAC C  
C      1  0.4504260000000  0.5116510000000  0.4898790000000 1.0
C      1  0.5154880000000  0.4670420000000  0.4496110000000 1.0
C      1  0.5552210000000  0.5393090000000  0.5249760000000 1.0
C      1  0.5251050000000  0.4398140000000  0.5158800000000 1.0
C      1  0.5647370000000  0.4902430000000  0.4799270000000 1.0
C      1  0.5096350000000  0.4940560000000  0.4432310000000 1.0
C      1  0.5906440000000  0.6202670000000  0.4233450000000 1.0
C      1  0.4763100000000  0.5010960000000  0.5736040000000 1.0
C      1  0.5461010000000  0.5326880000000  0.4357640000000 1.0
C      1  0.5414600000000  0.4890390000000  0.5760490000000 1.0
C      1  0.5377490000000  0.4476050000000  0.4903820000000 1.0
C      1  0.4761910000000  0.4443820000000  0.5271100000000 1.0
C      1  0.5493470000000  0.5164080000000  0.5693660000000 1.0
C      1  0.4271190000000  0.4412450000000  0.4494000000000 1.0
C      1  0.6073020000000  0.6675780000000  0.4062040000000 1.0
C      1  0.5365940000000  0.4933170000000  0.5317010000000 1.0
C      1  0.5091240000000  0.5410800000000  0.5795100000000 1.0
C      1  0.5348490000000  0.4733340000000  0.5523150000000 1.0
C      1  0.4938250000000  0.4342090000000  0.4814420000000 1.0
C      1  0.5739930000000  0.5729780000000  0.4404930000000 1.0
C      1  0.4566040000000  0.4353370000000  0.5712170000000 1.0
C      1  0.5353700000000  0.5421460000000  0.5695520000000 1.0
C      1  0.3934430000000  0.4512520000000  0.5377310000000 1.0
C      1  0.4080410000000  0.4383070000000  0.5558610000000 1.0
C      1  0.3924690000000  0.4786390000000  0.4970920000000 1.0
C      1  0.4886550000000  0.5237840000000  0.5804030000000 1.0
C      1  0.5167980000000  0.4474370000000  0.4697780000000 1.0
C      1  0.5433550000000  0.5567040000000  0.5451830000000 1.0
C      1  0.4674680000000  0.4808780000000  0.5566430000000 1.0
C      1  0.3539490000000  0.4766030000000  0.5261740000000 1.0
C      1  0.5440050000000  0.5083070000000  0.4902030000000 1.0
C      1  0.4734990000000  0.4518040000000  0.5557130000000 1.0
C      1  0.5989720000000  0.6439200000000  0.4147760000000 1.0
C      1  0.5554100000000  0.5139400000000  0.5399030000000 1.0
C      1  0.5848720000000  0.5089910000000  0.4712310000000 1.0
C      1  0.5562070000000  0.5346950000000  0.4967030000000 1.0
C      1  0.4568560000000  0.4625620000000  0.5154460000000 1.0
C      1  0.4123410000000  0.4622880000000  0.4562500000000 1.0
C      1  0.5751130000000  0.5367920000000  0.4739720000000 1.0
C      1  0.5287520000000  0.5123770000000  0.4334860000000 1.0
C      1  0.4278390000000  0.5040580000000  0.4749850000000 1.0
C      1  0.5823160000000  0.5966150000000  0.4319140000000 1.0
C      1  0.3801450000000  0.4687740000000  0.5202810000000 1.0
C      1  0.3295400000000  0.4839080000000  0.5316550000000 1.0
C      1  0.5237210000000  0.4991840000000  0.5074850000000 1.0
C      1  0.4491320000000  0.4271290000000  0.4542210000000 1.0
C      1  0.4091970000000  0.4828810000000  0.4749700000000 1.0
C      1  0.4967460000000  0.4346950000000  0.5105030000000 1.0
C      1  0.4723320000000  0.4245560000000  0.4668820000000 1.0
C      1  0.4972680000000  0.5037870000000  0.5005840000000 1.0
C      1  0.4535410000000  0.4863890000000  0.5317130000000 1.0
C      1  0.4772880000000  0.5083820000000  0.4810060000000 1.0
C      1  0.5653060000000  0.5482530000000  0.4497270000000 1.0
C      1  0.4472100000000  0.5098510000000  0.5180830000000 1.0
C      1  0.5606690000000  0.4630370000000  0.4849890000000 1.0
C      1  0.5329270000000  0.4475060000000  0.5418820000000 1.0
C      1  0.6154960000000  0.6908480000000  0.3977740000000 1.0
C      1  0.4300700000000  0.4314370000000  0.5693170000000 1.0
C      1  0.4858620000000  0.5046050000000  0.4545220000000 1.0
END
