TITL C-599891-72-1332 0.400209218601318 125000 -1063.39998738224 0 0 174 (C1) n - 1
REM
REM in /home/nfs/bkarasulu/CARBON/AIRSS/Generating-Clusters/TERSOFF/Only-C1/FIRE-HFTN
REM
REM
REM
REM
REM
REM ./C.cell (11c1c37f851c82e70ff6c80c92926a4b)
REM AIRSS Version 0.9.1 bugfix July 2018 build 013d7b7c2542+ Fri, 06 Jul 2018 19:26:36 +0100
REM compiler GCC version 9.2.1 20190827 (Red Hat 9.2.1-1)
REM options -cpp -mtune=generic -march=x86-64 -g -O0 -fpre-include=/usr/include/finclude/math-vector-fortran.h
REM seed 1851235573 1189087164 692961711 718189102 84890686 -1680212424 686886527 290979675 -1769390196 162233241 1478829414 -1363011555 -2122421148 -1172758867 -349367356 234825860 101467303 1497136856 -1814626300 -1195488510 728985043 -2085677042 -1290478258 1087789437 1916130606 1149152774 1486623415 1561067221 -1500718725 -1539527288 910311847 -216401198 1219881903
REM
CELL 1.54180   50.00000   50.00000   50.00000   90.00000   90.00000   90.00000
LATT -1
SFAC C  
C      1  0.5472010000000  0.4922440000000  0.5253870000000 1.0
C      1  0.4019280000000  0.5383010000000  0.5465300000000 1.0
C      1  0.5160260000000  0.5412390000000  0.6010230000000 1.0
C      1  0.4160050000000  0.5035890000000  0.4301780000000 1.0
C      1  0.5166730000000  0.5096350000000  0.4459890000000 1.0
C      1  0.4865610000000  0.6188120000000  0.5050370000000 1.0
C      1  0.5221830000000  0.5819920000000  0.4460650000000 1.0
C      1  0.4586360000000  0.5918530000000  0.4730880000000 1.0
C      1  0.4283510000000  0.5501370000000  0.4222770000000 1.0
C      1  0.4971680000000  0.4025230000000  0.5841420000000 1.0
C      1  0.6191180000000  0.5063370000000  0.5350090000000 1.0
C      1  0.5489910000000  0.4116140000000  0.5925570000000 1.0
C      1  0.5610120000000  0.6012710000000  0.5333930000000 1.0
C      1  0.5507280000000  0.4503040000000  0.5686040000000 1.0
C      1  0.5162060000000  0.5691150000000  0.4948920000000 1.0
C      1  0.5533240000000  0.5340720000000  0.5665080000000 1.0
C      1  0.4186110000000  0.5013530000000  0.5770650000000 1.0
C      1  0.5479890000000  0.4313400000000  0.5204560000000 1.0
C      1  0.3942860000000  0.6653560000000  0.4909060000000 1.0
C      1  0.5494910000000  0.5297100000000  0.4146270000000 1.0
C      1  0.6056250000000  0.5209390000000  0.4898070000000 1.0
C      1  0.4920220000000  0.4753190000000  0.5190710000000 1.0
C      1  0.5234570000000  0.5311450000000  0.4257760000000 1.0
C      1  0.5037650000000  0.5686380000000  0.5810130000000 1.0
C      1  0.5250560000000  0.4952300000000  0.3899470000000 1.0
C      1  0.5416610000000  0.4972340000000  0.4576430000000 1.0
C      1  0.5896380000000  0.4726150000000  0.4758890000000 1.0
C      1  0.4984400000000  0.5118730000000  0.4933430000000 1.0
C      1  0.5314370000000  0.4567030000000  0.6146460000000 1.0
C      1  0.4481890000000  0.4568880000000  0.4758020000000 1.0
C      1  0.5375740000000  0.4431300000000  0.5447030000000 1.0
C      1  0.6984160000000  0.5134810000000  0.4991850000000 1.0
C      1  0.5902710000000  0.5479370000000  0.4372910000000 1.0
C      1  0.4404110000000  0.4968250000000  0.5336410000000 1.0
C      1  0.4289320000000  0.5215960000000  0.4103670000000 1.0
C      1  0.4368000000000  0.4951810000000  0.5995410000000 1.0
C      1  0.4211260000000  0.4142410000000  0.4565930000000 1.0
C      1  0.5870330000000  0.5015920000000  0.4771290000000 1.0
C      1  0.5629530000000  0.4815110000000  0.4187870000000 1.0
C      1  0.5544340000000  0.5292220000000  0.4963880000000 1.0
C      1  0.4971010000000  0.3908370000000  0.4917680000000 1.0
C      1  0.3982920000000  0.5444480000000  0.5208200000000 1.0
C      1  0.4176270000000  0.5305900000000  0.5687590000000 1.0
C      1  0.4900030000000  0.6211910000000  0.5337780000000 1.0
C      1  0.7228730000000  0.5224040000000  0.5005470000000 1.0
C      1  0.5289380000000  0.4965930000000  0.5459890000000 1.0
C      1  0.4643740000000  0.5107350000000  0.5300180000000 1.0
C      1  0.4698290000000  0.5131470000000  0.5018590000000 1.0
C      1  0.3987200000000  0.4583790000000  0.5423000000000 1.0
C      1  0.4727830000000  0.5830480000000  0.4210660000000 1.0
C      1  0.4207780000000  0.4762940000000  0.4356080000000 1.0
C      1  0.4171030000000  0.4747640000000  0.3241510000000 1.0
C      1  0.4466670000000  0.5101230000000  0.3900010000000 1.0
C      1  0.4020150000000  0.4670640000000  0.4794360000000 1.0
C      1  0.4745170000000  0.4549370000000  0.4605900000000 1.0
C      1  0.5233560000000  0.5698550000000  0.5597200000000 1.0
C      1  0.5204740000000  0.4865320000000  0.5712070000000 1.0
C      1  0.5707210000000  0.6255700000000  0.5418310000000 1.0
C      1  0.4912010000000  0.4227400000000  0.6006850000000 1.0
C      1  0.6254620000000  0.5099990000000  0.5076960000000 1.0
C      1  0.4573350000000  0.4177280000000  0.5416120000000 1.0
C      1  0.4486800000000  0.5739050000000  0.5367720000000 1.0
C      1  0.5043310000000  0.4688760000000  0.6172130000000 1.0
C      1  0.5070720000000  0.4836210000000  0.4950280000000 1.0
C      1  0.4731230000000  0.4240790000000  0.4521210000000 1.0
C      1  0.5643160000000  0.5516120000000  0.4249880000000 1.0
C      1  0.4365520000000  0.4983930000000  0.3668840000000 1.0
C      1  0.5004830000000  0.5747460000000  0.4265950000000 1.0
C      1  0.4598900000000  0.4942240000000  0.6147550000000 1.0
C      1  0.3982430000000  0.4381510000000  0.5197600000000 1.0
C      1  0.5503940000000  0.5025930000000  0.4030380000000 1.0
C      1  0.4721300000000  0.3802700000000  0.4979230000000 1.0
C      1  0.5741620000000  0.4254230000000  0.4619190000000 1.0
C      1  0.4664160000000  0.5279500000000  0.4393450000000 1.0
C      1  0.5990040000000  0.5498470000000  0.4885260000000 1.0
C      1  0.4492680000000  0.3933160000000  0.4873880000000 1.0
C      1  0.6398880000000  0.4710950000000  0.4845480000000 1.0
C      1  0.5204380000000  0.3832170000000  0.4772240000000 1.0
C      1  0.5128060000000  0.4311900000000  0.4230430000000 1.0
C      1  0.5095530000000  0.4295680000000  0.3959360000000 1.0
C      1  0.3990540000000  0.4212830000000  0.4714630000000 1.0
C      1  0.5652410000000  0.4538920000000  0.4700150000000 1.0
C      1  0.4635800000000  0.6019440000000  0.4987820000000 1.0
C      1  0.3952220000000  0.6398980000000  0.4853670000000 1.0
C      1  0.4851820000000  0.6083910000000  0.5576260000000 1.0
C      1  0.4504350000000  0.4520580000000  0.5739770000000 1.0
C      1  0.5288170000000  0.3935210000000  0.5469310000000 1.0
C      1  0.4752000000000  0.4639040000000  0.5798450000000 1.0
C      1  0.4983130000000  0.4941000000000  0.4009030000000 1.0
C      1  0.4532710000000  0.5069510000000  0.4797120000000 1.0
C      1  0.4623710000000  0.4396610000000  0.5231590000000 1.0
C      1  0.4593250000000  0.5031040000000  0.4520770000000 1.0
C      1  0.5008390000000  0.5247660000000  0.4671530000000 1.0
C      1  0.5508350000000  0.4700110000000  0.4453660000000 1.0
C      1  0.4523240000000  0.5719830000000  0.5647400000000 1.0
C      1  0.5300620000000  0.5437370000000  0.5523490000000 1.0
C      1  0.4671600000000  0.5672130000000  0.4661380000000 1.0
C      1  0.5443070000000  0.3910470000000  0.4922940000000 1.0
C      1  0.4295520000000  0.4803620000000  0.5137400000000 1.0
C      1  0.4849020000000  0.5120190000000  0.5525070000000 1.0
C      1  0.4070580000000  0.5191040000000  0.4527870000000 1.0
C      1  0.5894630000000  0.5530110000000  0.5374190000000 1.0
C      1  0.4272600000000  0.3970310000000  0.5057730000000 1.0
C      1  0.4893470000000  0.4954610000000  0.6200510000000 1.0
C      1  0.4774180000000  0.5279740000000  0.5761010000000 1.0
C      1  0.5359460000000  0.4980030000000  0.5921610000000 1.0
C      1  0.4267550000000  0.4865160000000  0.3453250000000 1.0
C      1  0.4982630000000  0.4134970000000  0.4403900000000 1.0
C      1  0.5165360000000  0.5896230000000  0.4743360000000 1.0
C      1  0.5504010000000  0.5738480000000  0.4409780000000 1.0
C      1  0.5364500000000  0.4775150000000  0.5035760000000 1.0
C      1  0.4004620000000  0.5882160000000  0.4751840000000 1.0
C      1  0.5757730000000  0.5280880000000  0.5469130000000 1.0
C      1  0.4795340000000  0.5431220000000  0.4599210000000 1.0
C      1  0.5018460000000  0.4182160000000  0.4964710000000 1.0
C      1  0.4110040000000  0.4122490000000  0.5213890000000 1.0
C      1  0.4038820000000  0.5147470000000  0.4818490000000 1.0
C      1  0.5603590000000  0.5120290000000  0.4740850000000 1.0
C      1  0.5989220000000  0.5100240000000  0.5526590000000 1.0
C      1  0.5124650000000  0.5217800000000  0.5410710000000 1.0
C      1  0.4460280000000  0.4569580000000  0.5049580000000 1.0
C      1  0.6473390000000  0.4953590000000  0.4967160000000 1.0
C      1  0.4082780000000  0.4898650000000  0.4954130000000 1.0
C      1  0.5092000000000  0.4418970000000  0.5453090000000 1.0
C      1  0.5901230000000  0.5653260000000  0.5122040000000 1.0
C      1  0.6156250000000  0.4619300000000  0.4777120000000 1.0
C      1  0.5127550000000  0.5279770000000  0.5124910000000 1.0
C      1  0.5414890000000  0.4020950000000  0.5199920000000 1.0
C      1  0.4747500000000  0.4802940000000  0.4431200000000 1.0
C      1  0.4477250000000  0.5714460000000  0.4180140000000 1.0
C      1  0.4997650000000  0.4606780000000  0.4765210000000 1.0
C      1  0.5735710000000  0.5890350000000  0.5105580000000 1.0
C      1  0.4750850000000  0.3946200000000  0.5430210000000 1.0
C      1  0.4750750000000  0.5116660000000  0.3952470000000 1.0
C      1  0.5626770000000  0.5159750000000  0.5211960000000 1.0
C      1  0.5650350000000  0.4030330000000  0.4768190000000 1.0
C      1  0.4909330000000  0.4846910000000  0.5676700000000 1.0
C      1  0.5919500000000  0.5608360000000  0.4628970000000 1.0
C      1  0.5392940000000  0.5898900000000  0.5478350000000 1.0
C      1  0.4928490000000  0.5692780000000  0.5122380000000 1.0
C      1  0.5164270000000  0.4391150000000  0.4850950000000 1.0
C      1  0.4785170000000  0.5330170000000  0.4140900000000 1.0
C      1  0.4585140000000  0.5376750000000  0.5922110000000 1.0
C      1  0.5008960000000  0.5224200000000  0.6179230000000 1.0
C      1  0.5408500000000  0.5263060000000  0.5917050000000 1.0
C      1  0.5003220000000  0.3950180000000  0.5566750000000 1.0
C      1  0.5307010000000  0.4497280000000  0.4344830000000 1.0
C      1  0.4124040000000  0.5480650000000  0.4472630000000 1.0
C      1  0.4667640000000  0.5793850000000  0.5165550000000 1.0
C      1  0.4053860000000  0.4788780000000  0.5607390000000 1.0
C      1  0.4055450000000  0.5611320000000  0.4722700000000 1.0
C      1  0.4240420000000  0.4637910000000  0.4607590000000 1.0
C      1  0.4988530000000  0.4891000000000  0.4299890000000 1.0
C      1  0.6735500000000  0.5044400000000  0.4978290000000 1.0
C      1  0.5463230000000  0.3954850000000  0.5704340000000 1.0
C      1  0.4790030000000  0.5836720000000  0.5728010000000 1.0
C      1  0.4874310000000  0.4510360000000  0.5305000000000 1.0
C      1  0.4017710000000  0.5412850000000  0.4933510000000 1.0
C      1  0.5136030000000  0.3910220000000  0.4502060000000 1.0
C      1  0.5459100000000  0.4402600000000  0.5952050000000 1.0
C      1  0.5679980000000  0.5973610000000  0.4842340000000 1.0
C      1  0.4881330000000  0.4506000000000  0.6015890000000 1.0
C      1  0.4699810000000  0.3734480000000  0.5251910000000 1.0
C      1  0.5703430000000  0.5809480000000  0.4616910000000 1.0
C      1  0.4489570000000  0.4088790000000  0.4626980000000 1.0
C      1  0.4375790000000  0.5502160000000  0.5781940000000 1.0
C      1  0.3966940000000  0.6140030000000  0.4799130000000 1.0
C      1  0.5074100000000  0.6149740000000  0.4852120000000 1.0
C      1  0.3936330000000  0.4425070000000  0.4906190000000 1.0
C      1  0.5445280000000  0.4492570000000  0.4946940000000 1.0
C      1  0.4440090000000  0.4276100000000  0.5644450000000 1.0
C      1  0.5901740000000  0.4220430000000  0.4399750000000 1.0
C      1  0.5316350000000  0.5457770000000  0.4994970000000 1.0
C      1  0.5027810000000  0.5476370000000  0.4167150000000 1.0
END
