TITL C-599896-8500-145 0.20245387474701 125000 -310.174355404646 0 0 52 (C1) n - 1
REM
REM in /home/nfs/bkarasulu/CARBON/AIRSS/Generating-Clusters/TERSOFF/Only-C1/FIRE-HFTN
REM
REM
REM
REM
REM
REM ./C.cell (11c1c37f851c82e70ff6c80c92926a4b)
REM AIRSS Version 0.9.1 bugfix July 2018 build 013d7b7c2542+ Fri, 06 Jul 2018 19:26:36 +0100
REM compiler GCC version 9.2.1 20190827 (Red Hat 9.2.1-1)
REM options -cpp -mtune=generic -march=x86-64 -g -O0 -fpre-include=/usr/include/finclude/math-vector-fortran.h
REM seed -2046685422 -1407004550 1254451544 -1953794047 1709703976 -17185062 -274158048 1783123372 771111122 -179163163 1006517695 1973906755 191302872 1530399190 1594734753 1908273252 657646178 -603946044 733901759 519881815 371038863 -322124621 -1847438006 -188333655 2019163352 519017846 2083532140 -834350885 -1377460231 -1021751945 -1256046027 -295329780 1372856313
REM
CELL 1.54180   50.00000   50.00000   50.00000   90.00000   90.00000   90.00000
LATT -1
SFAC C  
C      1  0.4626370000000  0.4882950000000  0.5852770000000 1.0
C      1  0.5291610000000  0.5329730000000  0.5186890000000 1.0
C      1  0.5419340000000  0.4153010000000  0.4733620000000 1.0
C      1  0.4474330000000  0.4607800000000  0.5225530000000 1.0
C      1  0.5145730000000  0.4259060000000  0.5321260000000 1.0
C      1  0.5032930000000  0.5361140000000  0.5036220000000 1.0
C      1  0.4934960000000  0.5561120000000  0.4587050000000 1.0
C      1  0.5188890000000  0.4957530000000  0.4911840000000 1.0
C      1  0.4308810000000  0.4976330000000  0.5494110000000 1.0
C      1  0.5368280000000  0.5050030000000  0.5105900000000 1.0
C      1  0.5171600000000  0.4258770000000  0.4764320000000 1.0
C      1  0.5743060000000  0.5043710000000  0.4829760000000 1.0
C      1  0.4388930000000  0.4959500000000  0.5751580000000 1.0
C      1  0.5098550000000  0.4531380000000  0.4779980000000 1.0
C      1  0.5257360000000  0.5304410000000  0.5491090000000 1.0
C      1  0.5404870000000  0.4317300000000  0.5276640000000 1.0
C      1  0.4393390000000  0.5508500000000  0.4738660000000 1.0
C      1  0.5704620000000  0.4511170000000  0.4924310000000 1.0
C      1  0.5223600000000  0.4700880000000  0.4559610000000 1.0
C      1  0.4877720000000  0.4281390000000  0.5308120000000 1.0
C      1  0.4017610000000  0.5065980000000  0.3938930000000 1.0
C      1  0.4780580000000  0.5343660000000  0.4495650000000 1.0
C      1  0.5271690000000  0.5015040000000  0.5540410000000 1.0
C      1  0.4173270000000  0.5167550000000  0.4127900000000 1.0
C      1  0.4329190000000  0.5268720000000  0.4316600000000 1.0
C      1  0.4868950000000  0.4826700000000  0.5753210000000 1.0
C      1  0.5107200000000  0.5800390000000  0.5016600000000 1.0
C      1  0.5043670000000  0.5574840000000  0.4840590000000 1.0
C      1  0.5030670000000  0.4862680000000  0.5526800000000 1.0
C      1  0.4659100000000  0.5579500000000  0.5165520000000 1.0
C      1  0.4497080000000  0.5371420000000  0.4513480000000 1.0
C      1  0.5224540000000  0.5504920000000  0.5669730000000 1.0
C      1  0.5692410000000  0.5307850000000  0.4909070000000 1.0
C      1  0.5508560000000  0.4710290000000  0.4538910000000 1.0
C      1  0.4777530000000  0.5307420000000  0.5160150000000 1.0
C      1  0.5616210000000  0.4491940000000  0.5197240000000 1.0
C      1  0.4440970000000  0.5604690000000  0.4985680000000 1.0
C      1  0.4920280000000  0.4835860000000  0.5256800000000 1.0
C      1  0.5513320000000  0.5494690000000  0.5053260000000 1.0
C      1  0.5648540000000  0.4719290000000  0.5356180000000 1.0
C      1  0.5685770000000  0.4759760000000  0.4764040000000 1.0
C      1  0.4456430000000  0.4890970000000  0.5268830000000 1.0
C      1  0.4701980000000  0.5031930000000  0.5210500000000 1.0
C      1  0.5040880000000  0.4721550000000  0.5010930000000 1.0
C      1  0.5466310000000  0.4924940000000  0.5347140000000 1.0
C      1  0.5124700000000  0.4964210000000  0.4630150000000 1.0
C      1  0.4862180000000  0.5799740000000  0.5183970000000 1.0
C      1  0.4923870000000  0.5101990000000  0.4495540000000 1.0
C      1  0.3864520000000  0.4966060000000  0.3753060000000 1.0
C      1  0.5397340000000  0.5766140000000  0.5052200000000 1.0
C      1  0.4638490000000  0.4396170000000  0.5261550000000 1.0
C      1  0.5661210000000  0.4267420000000  0.4780090000000 1.0
END
