TITL C-599891-72-1361 -6425.08292205387 125000 -687.176870977196 0 0 113 (C1) n - 1
REM
REM in /home/nfs/bkarasulu/CARBON/AIRSS/Generating-Clusters/TERSOFF/Only-C1/FIRE-HFTN
REM
REM
REM
REM
REM
REM ./C.cell (11c1c37f851c82e70ff6c80c92926a4b)
REM AIRSS Version 0.9.1 bugfix July 2018 build 013d7b7c2542+ Fri, 06 Jul 2018 19:26:36 +0100
REM compiler GCC version 9.2.1 20190827 (Red Hat 9.2.1-1)
REM options -cpp -mtune=generic -march=x86-64 -g -O0 -fpre-include=/usr/include/finclude/math-vector-fortran.h
REM seed 861810831 -479442399 1381598555 642743799 869234971 247967271 230690234 1141079666 -1540427337 -1333738333 1281189692 -1690911662 -1886070832 -1332813054 2057761443 167754612 639714416 -58365404 -406416015 -1372458771 -974227931 535920111 -783423673 -189672628 -267358270 -391171174 58218858 200844552 -1124945160 540309069 -1107480240 -846549078 -254869471
REM
CELL 1.54180   50.00000   50.00000   50.00000   90.00000   90.00000   90.00000
LATT -1
SFAC C  
C      1  0.5246990000000  0.4834180000000  0.4190100000000 1.0
C      1  0.4921710000000  0.5760120000000  0.5950710000000 1.0
C      1  0.4704320000000  0.5785390000000  0.5501310000000 1.0
C      1  0.3403830000000  0.5376810000000  0.5347960000000 1.0
C      1  0.4738070000000  0.4842250000000  0.6021050000000 1.0
C      1  0.5652660000000  0.5225930000000  0.4092930000000 1.0
C      1  0.5318300000000  0.5159640000000  0.5126980000000 1.0
C      1  0.5103690000000  0.4119610000000  0.4175670000000 1.0
C      1  0.5207240000000  0.5098670000000  0.4281220000000 1.0
C      1  0.4614560000000  0.5570510000000  0.4774170000000 1.0
C      1  0.4726800000000  0.6028570000000  0.4616620000000 1.0
C      1  0.5498400000000  0.5613080000000  0.4410990000000 1.0
C      1  0.5413210000000  0.4515170000000  0.5220760000000 1.0
C      1  0.4759280000000  0.4589590000000  0.5881510000000 1.0
C      1  0.5232560000000  0.5682010000000  0.4491570000000 1.0
C      1  0.4555710000000  0.4913410000000  0.5095600000000 1.0
C      1  0.4885910000000  0.5307040000000  0.6038370000000 1.0
C      1  0.4749490000000  0.6054880000000  0.5475700000000 1.0
C      1  0.4756030000000  0.4408380000000  0.4044670000000 1.0
C      1  0.4648820000000  0.5760770000000  0.4559490000000 1.0
C      1  0.3145530000000  0.5387810000000  0.5314330000000 1.0
C      1  0.5680090000000  0.5417000000000  0.4314520000000 1.0
C      1  0.5968530000000  0.4897220000000  0.5345110000000 1.0
C      1  0.5433840000000  0.4261350000000  0.5355350000000 1.0
C      1  0.4624380000000  0.5636430000000  0.5270480000000 1.0
C      1  0.4708230000000  0.4752770000000  0.4912410000000 1.0
C      1  0.4489240000000  0.4980290000000  0.6030810000000 1.0
C      1  0.5375410000000  0.4257260000000  0.5633020000000 1.0
C      1  0.5513280000000  0.4739070000000  0.4131140000000 1.0
C      1  0.4567120000000  0.5559290000000  0.4129960000000 1.0
C      1  0.5276070000000  0.4044520000000  0.4703290000000 1.0
C      1  0.5511150000000  0.4454040000000  0.4094560000000 1.0
C      1  0.5259930000000  0.5654740000000  0.5447880000000 1.0
C      1  0.5114440000000  0.4313120000000  0.5704730000000 1.0
C      1  0.4632560000000  0.4144270000000  0.4986980000000 1.0
C      1  0.5428560000000  0.4904140000000  0.4675870000000 1.0
C      1  0.4993940000000  0.5080780000000  0.4708530000000 1.0
C      1  0.4795700000000  0.4654590000000  0.4184570000000 1.0
C      1  0.4965390000000  0.5032580000000  0.6029470000000 1.0
C      1  0.3666440000000  0.5365600000000  0.5382120000000 1.0
C      1  0.5547060000000  0.5295000000000  0.5697560000000 1.0
C      1  0.5456420000000  0.3858330000000  0.4675100000000 1.0
C      1  0.5247360000000  0.5621050000000  0.5168590000000 1.0
C      1  0.4318350000000  0.5133800000000  0.5613910000000 1.0
C      1  0.5470140000000  0.5036430000000  0.5803630000000 1.0
C      1  0.4230880000000  0.4643870000000  0.4813960000000 1.0
C      1  0.5474990000000  0.4516030000000  0.4945090000000 1.0
C      1  0.5285120000000  0.4055210000000  0.5225710000000 1.0
C      1  0.4569830000000  0.4773970000000  0.5344090000000 1.0
C      1  0.4990510000000  0.6064250000000  0.4677800000000 1.0
C      1  0.5079030000000  0.4244990000000  0.4691030000000 1.0
C      1  0.4961100000000  0.4891680000000  0.4914660000000 1.0
C      1  0.5029130000000  0.5576310000000  0.4311630000000 1.0
C      1  0.5817780000000  0.5698140000000  0.4995480000000 1.0
C      1  0.4449170000000  0.5202720000000  0.5853790000000 1.0
C      1  0.4426510000000  0.5198570000000  0.4473020000000 1.0
C      1  0.4801830000000  0.4165920000000  0.4740060000000 1.0
C      1  0.4541660000000  0.5649530000000  0.3874850000000 1.0
C      1  0.5845190000000  0.5267480000000  0.4504180000000 1.0
C      1  0.4756930000000  0.5658130000000  0.4314670000000 1.0
C      1  0.5343170000000  0.4238960000000  0.4116090000000 1.0
C      1  0.6044000000000  0.4821860000000  0.4573880000000 1.0
C      1  0.4660080000000  0.5393350000000  0.5861090000000 1.0
C      1  0.4407980000000  0.5359010000000  0.4243210000000 1.0
C      1  0.4458180000000  0.5146010000000  0.4969350000000 1.0
C      1  0.6096950000000  0.4770910000000  0.4833540000000 1.0
C      1  0.5137480000000  0.5823630000000  0.4729800000000 1.0
C      1  0.5817440000000  0.4747300000000  0.5533430000000 1.0
C      1  0.5670880000000  0.5466630000000  0.4949410000000 1.0
C      1  0.5050000000000  0.5698000000000  0.4980440000000 1.0
C      1  0.5034680000000  0.4706130000000  0.5510630000000 1.0
C      1  0.5632270000000  0.4818720000000  0.5717350000000 1.0
C      1  0.5968710000000  0.5173000000000  0.5412360000000 1.0
C      1  0.5420710000000  0.5415740000000  0.5077800000000 1.0
C      1  0.5153030000000  0.4504140000000  0.4565490000000 1.0
C      1  0.4164220000000  0.4814090000000  0.4594560000000 1.0
C      1  0.4512420000000  0.4578420000000  0.4787460000000 1.0
C      1  0.4798770000000  0.4583880000000  0.5376950000000 1.0
C      1  0.5058820000000  0.4652810000000  0.4315630000000 1.0
C      1  0.4682520000000  0.4227810000000  0.4478820000000 1.0
C      1  0.4559300000000  0.4410140000000  0.5740950000000 1.0
C      1  0.5022390000000  0.4565610000000  0.5766280000000 1.0
C      1  0.5099370000000  0.5334790000000  0.4180900000000 1.0
C      1  0.4478310000000  0.4270890000000  0.5506130000000 1.0
C      1  0.4825800000000  0.4187920000000  0.4218290000000 1.0
C      1  0.5015740000000  0.4081010000000  0.5252930000000 1.0
C      1  0.4568730000000  0.4718070000000  0.4346060000000 1.0
C      1  0.5233850000000  0.4727420000000  0.5309350000000 1.0
C      1  0.5231360000000  0.5078250000000  0.4563710000000 1.0
C      1  0.4204980000000  0.5330050000000  0.5443940000000 1.0
C      1  0.5902660000000  0.4992280000000  0.4397690000000 1.0
C      1  0.4380560000000  0.5499180000000  0.5304370000000 1.0
C      1  0.5016020000000  0.5553590000000  0.6108670000000 1.0
C      1  0.4504150000000  0.4184530000000  0.5236190000000 1.0
C      1  0.5719290000000  0.4943930000000  0.4167950000000 1.0
C      1  0.4487610000000  0.5311490000000  0.4736880000000 1.0
C      1  0.4379010000000  0.4872670000000  0.5524050000000 1.0
C      1  0.6066920000000  0.4800850000000  0.5099220000000 1.0
C      1  0.4725390000000  0.5662880000000  0.5756790000000 1.0
C      1  0.3928900000000  0.5353110000000  0.5415420000000 1.0
C      1  0.4057880000000  0.4551720000000  0.5001460000000 1.0
C      1  0.5947010000000  0.5919020000000  0.5044560000000 1.0
C      1  0.5369180000000  0.5507150000000  0.5645160000000 1.0
C      1  0.5165080000000  0.4925080000000  0.5118620000000 1.0
C      1  0.5371250000000  0.4629890000000  0.4708970000000 1.0
C      1  0.4766060000000  0.5631570000000  0.5017850000000 1.0
C      1  0.4897700000000  0.4295550000000  0.5380620000000 1.0
C      1  0.4379690000000  0.4920020000000  0.4433520000000 1.0
C      1  0.5637860000000  0.5013750000000  0.4823580000000 1.0
C      1  0.5236510000000  0.4992710000000  0.5957190000000 1.0
C      1  0.5759270000000  0.5262800000000  0.4775260000000 1.0
C      1  0.5803100000000  0.5311230000000  0.5574310000000 1.0
C      1  0.4560320000000  0.4486170000000  0.4524520000000 1.0
END
