TITL C-599892-9790-877 0.752536092188567 125000 -207.781619231845 0 0 35 (C1) n - 1
REM
REM in /home/nfs/bkarasulu/CARBON/AIRSS/Generating-Clusters/TERSOFF/Only-C1/FIRE-HFTN
REM
REM
REM
REM
REM
REM ./C.cell (11c1c37f851c82e70ff6c80c92926a4b)
REM AIRSS Version 0.9.1 bugfix July 2018 build 013d7b7c2542+ Fri, 06 Jul 2018 19:26:36 +0100
REM compiler GCC version 9.2.1 20190827 (Red Hat 9.2.1-1)
REM options -cpp -mtune=generic -march=x86-64 -g -O0 -fpre-include=/usr/include/finclude/math-vector-fortran.h
REM seed 207655358 -1930661604 757742961 -450072869 1198029688 -1739933619 1262300145 736621526 1095924392 -385403332 -1068056565 1083749643 -1676452033 -1001101240 -1774155174 223664440 2078408770 60334866 -1962763733 -526179939 182914599 265124053 1542168079 1608126924 -1956655325 -1637330639 -1844715508 -1270895863 -1459564320 975148006 848527056 -1564043684 -402482387
REM
CELL 1.54180   50.00000   50.00000   50.00000   90.00000   90.00000   90.00000
LATT -1
SFAC C  
C      1  0.4642470000000  0.5636750000000  0.5355590000000 1.0
C      1  0.4530450000000  0.5840650000000  0.5226410000000 1.0
C      1  0.5867730000000  0.5013620000000  0.5275630000000 1.0
C      1  0.4662840000000  0.5509380000000  0.4549470000000 1.0
C      1  0.5158650000000  0.4756860000000  0.5633770000000 1.0
C      1  0.4829470000000  0.4568540000000  0.4592380000000 1.0
C      1  0.5382320000000  0.4783980000000  0.5785020000000 1.0
C      1  0.4715910000000  0.4787390000000  0.4765030000000 1.0
C      1  0.4703460000000  0.4455380000000  0.5140720000000 1.0
C      1  0.4420480000000  0.4810140000000  0.4718570000000 1.0
C      1  0.5416480000000  0.4811580000000  0.5228750000000 1.0
C      1  0.4406760000000  0.5620870000000  0.4584710000000 1.0
C      1  0.4736190000000  0.5388580000000  0.5369610000000 1.0
C      1  0.4986720000000  0.4337100000000  0.4635460000000 1.0
C      1  0.4744560000000  0.4208970000000  0.5039440000000 1.0
C      1  0.4817350000000  0.5298730000000  0.4602410000000 1.0
C      1  0.4841600000000  0.5048490000000  0.4689850000000 1.0
C      1  0.4870040000000  0.4145500000000  0.4808290000000 1.0
C      1  0.4188600000000  0.5451270000000  0.4533730000000 1.0
C      1  0.4769660000000  0.4718730000000  0.5058170000000 1.0
C      1  0.6291840000000  0.5230550000000  0.5043480000000 1.0
C      1  0.4428940000000  0.5927320000000  0.4995620000000 1.0
C      1  0.4379460000000  0.5848340000000  0.4745440000000 1.0
C      1  0.6500250000000  0.5336940000000  0.4928520000000 1.0
C      1  0.6079940000000  0.5122380000000  0.5160330000000 1.0
C      1  0.5616580000000  0.4854620000000  0.5667800000000 1.0
C      1  0.4120420000000  0.5194640000000  0.4564010000000 1.0
C      1  0.4913610000000  0.4893110000000  0.5230720000000 1.0
C      1  0.4211890000000  0.4955810000000  0.4639810000000 1.0
C      1  0.5155550000000  0.4810230000000  0.5353870000000 1.0
C      1  0.5461660000000  0.4695010000000  0.4978890000000 1.0
C      1  0.4808150000000  0.5142940000000  0.5300090000000 1.0
C      1  0.5642310000000  0.4895930000000  0.5388060000000 1.0
C      1  0.5264740000000  0.4373600000000  0.4634690000000 1.0
C      1  0.5432930000000  0.4526070000000  0.4775630000000 1.0
END
