TITL C-599890-3321-1344 -10467.7575898275 125000 -956.83986214967 0 0 157 (C1) n - 1
REM
REM in /home/nfs/bkarasulu/CARBON/AIRSS/Generating-Clusters/TERSOFF/Only-C1/FIRE-HFTN
REM
REM
REM
REM
REM
REM ./C.cell (11c1c37f851c82e70ff6c80c92926a4b)
REM AIRSS Version 0.9.1 bugfix July 2018 build 013d7b7c2542+ Fri, 06 Jul 2018 19:26:36 +0100
REM compiler GCC version 9.2.1 20190827 (Red Hat 9.2.1-1)
REM options -cpp -mtune=generic -march=x86-64 -g -O0 -fpre-include=/usr/include/finclude/math-vector-fortran.h
REM seed 898346660 -1497507665 1728840503 1234305309 1991776095 -1621088375 563515162 -993718644 36437739 -698210297 254311766 200847766 -1951249014 905254463 1961519818 1246361798 -1857610021 536937928 679140169 -251037278 1854666814 -152631916 -1588223804 499073483 1093728204 -275855809 -1402164653 -472834139 1510427365 -696635046 743026710 1656755221 -961878633
REM
CELL 1.54180   50.00000   50.00000   50.00000   90.00000   90.00000   90.00000
LATT -1
SFAC C  
C      1  0.4753020000000  0.5514380000000  0.5375450000000 1.0
C      1  0.5181310000000  0.4795930000000  0.3989680000000 1.0
C      1  0.5984190000000  0.5425470000000  0.5418630000000 1.0
C      1  0.6181970000000  0.4739270000000  0.4897320000000 1.0
C      1  0.5128110000000  0.5214180000000  0.4221790000000 1.0
C      1  0.4380090000000  0.4562410000000  0.5023440000000 1.0
C      1  0.4289670000000  0.5486080000000  0.5301150000000 1.0
C      1  0.5284590000000  0.5978940000000  0.5507590000000 1.0
C      1  0.5048310000000  0.4132120000000  0.4416830000000 1.0
C      1  0.5323830000000  0.4161490000000  0.4331210000000 1.0
C      1  0.5774250000000  0.5542980000000  0.4295530000000 1.0
C      1  0.4883790000000  0.4622550000000  0.4664670000000 1.0
C      1  0.5051690000000  0.5829270000000  0.4820810000000 1.0
C      1  0.4514480000000  0.5793000000000  0.5642000000000 1.0
C      1  0.4610310000000  0.4241470000000  0.5272220000000 1.0
C      1  0.5861030000000  0.4422000000000  0.5576000000000 1.0
C      1  0.3946140000000  0.4526950000000  0.4845950000000 1.0
C      1  0.5257470000000  0.5412530000000  0.5534280000000 1.0
C      1  0.4512650000000  0.5466600000000  0.4604090000000 1.0
C      1  0.4998410000000  0.5946050000000  0.5455130000000 1.0
C      1  0.6053480000000  0.4381060000000  0.4593630000000 1.0
C      1  0.4577280000000  0.5714440000000  0.4231400000000 1.0
C      1  0.4063940000000  0.4875030000000  0.4030040000000 1.0
C      1  0.5600810000000  0.4519540000000  0.4440060000000 1.0
C      1  0.4655420000000  0.5223580000000  0.4563610000000 1.0
C      1  0.5318600000000  0.4361640000000  0.5844790000000 1.0
C      1  0.5434660000000  0.4584940000000  0.4921670000000 1.0
C      1  0.5363450000000  0.5854350000000  0.5756190000000 1.0
C      1  0.4777080000000  0.5287230000000  0.5542600000000 1.0
C      1  0.4452590000000  0.3765450000000  0.5438880000000 1.0
C      1  0.4054790000000  0.5960560000000  0.4593670000000 1.0
C      1  0.5707010000000  0.5347160000000  0.4123470000000 1.0
C      1  0.5425800000000  0.5491960000000  0.5061270000000 1.0
C      1  0.3807870000000  0.4878480000000  0.5147290000000 1.0
C      1  0.5028940000000  0.5179380000000  0.4911020000000 1.0
C      1  0.4390770000000  0.4984570000000  0.6003540000000 1.0
C      1  0.5628220000000  0.5787350000000  0.5832960000000 1.0
C      1  0.5370080000000  0.4291910000000  0.5572770000000 1.0
C      1  0.4188770000000  0.5184470000000  0.5265010000000 1.0
C      1  0.6166430000000  0.4930790000000  0.5115360000000 1.0
C      1  0.4113990000000  0.5698860000000  0.4519120000000 1.0
C      1  0.5516500000000  0.4011070000000  0.4484710000000 1.0
C      1  0.4609330000000  0.5097260000000  0.3868730000000 1.0
C      1  0.4761510000000  0.5783940000000  0.5478350000000 1.0
C      1  0.5196640000000  0.5644220000000  0.5819460000000 1.0
C      1  0.4905240000000  0.4882340000000  0.6059100000000 1.0
C      1  0.4066640000000  0.5308270000000  0.5827650000000 1.0
C      1  0.5649720000000  0.5287780000000  0.5932350000000 1.0
C      1  0.4778840000000  0.5787260000000  0.4905240000000 1.0
C      1  0.5282040000000  0.5063360000000  0.4030560000000 1.0
C      1  0.4114750000000  0.4974790000000  0.4549800000000 1.0
C      1  0.4996220000000  0.5265360000000  0.5733820000000 1.0
C      1  0.5649480000000  0.4252580000000  0.5534460000000 1.0
C      1  0.5610800000000  0.4733630000000  0.5344850000000 1.0
C      1  0.5229240000000  0.5211700000000  0.4720780000000 1.0
C      1  0.5326840000000  0.4863550000000  0.5775230000000 1.0
C      1  0.4876810000000  0.4825930000000  0.5567500000000 1.0
C      1  0.4370240000000  0.3540400000000  0.5541470000000 1.0
C      1  0.5509910000000  0.4688390000000  0.4662120000000 1.0
C      1  0.5014340000000  0.5890450000000  0.4531430000000 1.0
C      1  0.5905450000000  0.5835760000000  0.4993810000000 1.0
C      1  0.5888880000000  0.4542980000000  0.4423650000000 1.0
C      1  0.5206290000000  0.4464780000000  0.5042650000000 1.0
C      1  0.3859070000000  0.4409170000000  0.5101920000000 1.0
C      1  0.3849750000000  0.4630110000000  0.5294560000000 1.0
C      1  0.6151840000000  0.5712290000000  0.5084190000000 1.0
C      1  0.5228360000000  0.5866640000000  0.4348350000000 1.0
C      1  0.5160170000000  0.4383980000000  0.5391210000000 1.0
C      1  0.5648390000000  0.4579210000000  0.5101150000000 1.0
C      1  0.4682780000000  0.4397290000000  0.5726410000000 1.0
C      1  0.5471220000000  0.5444310000000  0.5353470000000 1.0
C      1  0.5020350000000  0.3974040000000  0.4653970000000 1.0
C      1  0.4730480000000  0.5841030000000  0.4446570000000 1.0
C      1  0.5025670000000  0.4827790000000  0.4524720000000 1.0
C      1  0.5263590000000  0.5714200000000  0.4968850000000 1.0
C      1  0.4704260000000  0.4937280000000  0.4081690000000 1.0
C      1  0.5689590000000  0.4919870000000  0.4625740000000 1.0
C      1  0.4731680000000  0.5528530000000  0.4068510000000 1.0
C      1  0.5370320000000  0.4810160000000  0.5465140000000 1.0
C      1  0.3995850000000  0.5494640000000  0.4695900000000 1.0
C      1  0.5936530000000  0.4827930000000  0.4489660000000 1.0
C      1  0.5723420000000  0.5461930000000  0.5498120000000 1.0
C      1  0.5495000000000  0.5914950000000  0.4413360000000 1.0
C      1  0.4396220000000  0.4419950000000  0.4565780000000 1.0
C      1  0.4898800000000  0.4732980000000  0.4027470000000 1.0
C      1  0.4634550000000  0.5027780000000  0.5519240000000 1.0
C      1  0.5709080000000  0.4128420000000  0.4932470000000 1.0
C      1  0.5703180000000  0.5518020000000  0.5779140000000 1.0
C      1  0.4305770000000  0.4971090000000  0.4761210000000 1.0
C      1  0.4278400000000  0.5678020000000  0.4269920000000 1.0
C      1  0.5007770000000  0.5464830000000  0.4137290000000 1.0
C      1  0.4122860000000  0.4930220000000  0.4277940000000 1.0
C      1  0.5837010000000  0.4375990000000  0.5019150000000 1.0
C      1  0.5509860000000  0.4001670000000  0.4770490000000 1.0
C      1  0.4608760000000  0.5720370000000  0.4688440000000 1.0
C      1  0.4687690000000  0.4449310000000  0.4538980000000 1.0
C      1  0.5082340000000  0.5084810000000  0.5163040000000 1.0
C      1  0.4770190000000  0.5189890000000  0.4822560000000 1.0
C      1  0.5701230000000  0.5168260000000  0.4756580000000 1.0
C      1  0.4169190000000  0.4485770000000  0.5693610000000 1.0
C      1  0.5030560000000  0.4977610000000  0.5796330000000 1.0
C      1  0.3797350000000  0.4148530000000  0.5146600000000 1.0
C      1  0.3972100000000  0.4586490000000  0.5542920000000 1.0
C      1  0.5247840000000  0.3928170000000  0.4852970000000 1.0
C      1  0.4895270000000  0.4517430000000  0.5587850000000 1.0
C      1  0.4650170000000  0.5047270000000  0.4342320000000 1.0
C      1  0.5495530000000  0.6022870000000  0.5317360000000 1.0
C      1  0.3911270000000  0.5155870000000  0.5139860000000 1.0
C      1  0.4263610000000  0.4300860000000  0.4354500000000 1.0
C      1  0.4971560000000  0.4556900000000  0.4922050000000 1.0
C      1  0.4343290000000  0.5048450000000  0.5521480000000 1.0
C      1  0.5544390000000  0.5167460000000  0.4003990000000 1.0
C      1  0.3870390000000  0.5017630000000  0.4691160000000 1.0
C      1  0.6389390000000  0.5847370000000  0.5067290000000 1.0
C      1  0.5177880000000  0.5689470000000  0.4136920000000 1.0
C      1  0.5715060000000  0.5962560000000  0.5168180000000 1.0
C      1  0.4542930000000  0.3993810000000  0.5339130000000 1.0
C      1  0.5850430000000  0.5809510000000  0.4717010000000 1.0
C      1  0.5470570000000  0.5300790000000  0.4842750000000 1.0
C      1  0.4554950000000  0.5470280000000  0.5183240000000 1.0
C      1  0.4880490000000  0.3675060000000  0.4984450000000 1.0
C      1  0.6083620000000  0.4835140000000  0.5370390000000 1.0
C      1  0.5352030000000  0.4574360000000  0.4033290000000 1.0
C      1  0.4614700000000  0.5366850000000  0.3869530000000 1.0
C      1  0.5527260000000  0.5052000000000  0.5893820000000 1.0
C      1  0.3890120000000  0.5269700000000  0.4850340000000 1.0
C      1  0.5428200000000  0.4410770000000  0.4247640000000 1.0
C      1  0.6141520000000  0.5446430000000  0.5193160000000 1.0
C      1  0.4835990000000  0.4309110000000  0.4328410000000 1.0
C      1  0.4632590000000  0.4927800000000  0.6104690000000 1.0
C      1  0.4991840000000  0.5491470000000  0.5932380000000 1.0
C      1  0.4237300000000  0.5086700000000  0.5788950000000 1.0
C      1  0.4231870000000  0.4496750000000  0.4793780000000 1.0
C      1  0.5144600000000  0.5088940000000  0.4479600000000 1.0
C      1  0.4084370000000  0.5559290000000  0.5729230000000 1.0
C      1  0.4841050000000  0.4459710000000  0.4087560000000 1.0
C      1  0.5958540000000  0.5251930000000  0.4817470000000 1.0
C      1  0.4831890000000  0.4663970000000  0.5139400000000 1.0
C      1  0.6132720000000  0.5211330000000  0.5034510000000 1.0
C      1  0.4596980000000  0.4509160000000  0.5185510000000 1.0
C      1  0.5027430000000  0.4849030000000  0.5310470000000 1.0
C      1  0.4585330000000  0.5246590000000  0.5019570000000 1.0
C      1  0.4570090000000  0.5764330000000  0.5920280000000 1.0
C      1  0.5866410000000  0.4692440000000  0.5482080000000 1.0
C      1  0.4132580000000  0.5629170000000  0.4038170000000 1.0
C      1  0.6068460000000  0.4466750000000  0.4873380000000 1.0
C      1  0.4360060000000  0.5081600000000  0.5015490000000 1.0
C      1  0.4803450000000  0.3807310000000  0.4752890000000 1.0
C      1  0.4760910000000  0.5611430000000  0.6036510000000 1.0
C      1  0.5139810000000  0.3746920000000  0.5051510000000 1.0
C      1  0.6178610000000  0.4863770000000  0.4635620000000 1.0
C      1  0.5723220000000  0.5760190000000  0.4471220000000 1.0
C      1  0.5290050000000  0.4615520000000  0.5958330000000 1.0
C      1  0.3812160000000  0.4792310000000  0.4857020000000 1.0
C      1  0.4416690000000  0.4409410000000  0.5761340000000 1.0
C      1  0.5086590000000  0.4679940000000  0.6152170000000 1.0
C      1  0.4273700000000  0.5652470000000  0.5539330000000 1.0
END
