TITL C-599897-7526-234 -0.0110737995472096 125000 -170.363133460518 0 0 30 (C1) n - 1
REM
REM in /home/nfs/bkarasulu/CARBON/AIRSS/Generating-Clusters/TERSOFF/Only-C1/FIRE-HFTN
REM
REM
REM
REM
REM
REM ./C.cell (11c1c37f851c82e70ff6c80c92926a4b)
REM AIRSS Version 0.9.1 bugfix July 2018 build 013d7b7c2542+ Fri, 06 Jul 2018 19:26:36 +0100
REM compiler GCC version 9.2.1 20190827 (Red Hat 9.2.1-1)
REM options -cpp -mtune=generic -march=x86-64 -g -O0 -fpre-include=/usr/include/finclude/math-vector-fortran.h
REM seed 1796820514 -243509312 -1952335899 -349005589 1651074380 708331936 -2129532252 -1398807209 -4233249 1949357988 314330748 1158634191 -1463977464 -211056237 -1018791851 -1751653439 -395714014 -1016474577 -242156704 381327945 412019122 -270281882 -584771748 -67516155 -1561757015 1415419502 226921801 1781284321 1177257589 2130901982 -1887153145 278381040 -1439406758
REM
CELL 1.54180   50.00000   50.00000   50.00000   90.00000   90.00000   90.00000
LATT -1
SFAC C  
C      1  0.4902120000000  0.4971420000000  0.5023680000000 1.0
C      1  0.5718100000000  0.4720070000000  0.5395250000000 1.0
C      1  0.5308270000000  0.4814650000000  0.4860200000000 1.0
C      1  0.4083190000000  0.5287550000000  0.5414730000000 1.0
C      1  0.4712950000000  0.5017620000000  0.5508280000000 1.0
C      1  0.4850640000000  0.4974670000000  0.5284940000000 1.0
C      1  0.5165170000000  0.4561820000000  0.4861900000000 1.0
C      1  0.4880010000000  0.4537830000000  0.4816650000000 1.0
C      1  0.4952760000000  0.5405110000000  0.4845130000000 1.0
C      1  0.5403280000000  0.5520260000000  0.4706920000000 1.0
C      1  0.4218660000000  0.5261180000000  0.4928920000000 1.0
C      1  0.4486170000000  0.4879280000000  0.4785560000000 1.0
C      1  0.5311190000000  0.4326580000000  0.4932990000000 1.0
C      1  0.5361010000000  0.5090670000000  0.4935310000000 1.0
C      1  0.4494370000000  0.5101020000000  0.5635670000000 1.0
C      1  0.4630820000000  0.4647390000000  0.4791320000000 1.0
C      1  0.4462300000000  0.5164760000000  0.4827160000000 1.0
C      1  0.5548060000000  0.5119560000000  0.5145150000000 1.0
C      1  0.5285680000000  0.4096710000000  0.4787110000000 1.0
C      1  0.4250360000000  0.5205230000000  0.5606350000000 1.0
C      1  0.5233680000000  0.5335190000000  0.4833460000000 1.0
C      1  0.4074580000000  0.5307980000000  0.5148480000000 1.0
C      1  0.5484730000000  0.4338940000000  0.5153200000000 1.0
C      1  0.4925060000000  0.4980690000000  0.4751670000000 1.0
C      1  0.4951670000000  0.4985980000000  0.4490030000000 1.0
C      1  0.5730260000000  0.5857750000000  0.4471420000000 1.0
C      1  0.4686650000000  0.5347770000000  0.4822040000000 1.0
C      1  0.5567810000000  0.5690560000000  0.4588130000000 1.0
C      1  0.5684450000000  0.4975560000000  0.5324220000000 1.0
C      1  0.5636010000000  0.4476190000000  0.5324120000000 1.0
END
