TITL C-599896-8500-608 84881.5481084814 125000 -1150.98522616122 0 0 186 (C1) n - 1
REM
REM in /home/nfs/bkarasulu/CARBON/AIRSS/Generating-Clusters/TERSOFF/Only-C1/FIRE-HFTN
REM
REM
REM
REM
REM
REM ./C.cell (11c1c37f851c82e70ff6c80c92926a4b)
REM AIRSS Version 0.9.1 bugfix July 2018 build 013d7b7c2542+ Fri, 06 Jul 2018 19:26:36 +0100
REM compiler GCC version 9.2.1 20190827 (Red Hat 9.2.1-1)
REM options -cpp -mtune=generic -march=x86-64 -g -O0 -fpre-include=/usr/include/finclude/math-vector-fortran.h
REM seed 1264795536 -1499823934 -47085344 -1936964281 -675383660 -1909116399 888090630 437041234 -698132151 -1313874854 1264515513 -1852334425 -1716390847 -1176901873 342512023 -1322019392 387060651 1330572741 -554960190 3446701 1558552921 677565169 394683931 2086470012 1159275827 -1920170205 707655855 1935038737 -791416348 1237069707 1230860805 1984652157 -1732853721
REM
CELL 1.54180   50.00000   50.00000   50.00000   90.00000   90.00000   90.00000
LATT -1
SFAC C  
C      1  0.5814670000000  0.4556390000000  0.4171830000000 1.0
C      1  0.4525340000000  0.5505760000000  0.5012400000000 1.0
C      1  0.5898840000000  0.5843460000000  0.5606690000000 1.0
C      1  0.5059980000000  0.5300990000000  0.4464230000000 1.0
C      1  0.5578060000000  0.4622480000000  0.4023960000000 1.0
C      1  0.4839320000000  0.3926420000000  0.4720450000000 1.0
C      1  0.5745110000000  0.4917760000000  0.5378580000000 1.0
C      1  0.5386300000000  0.4500790000000  0.5354520000000 1.0
C      1  0.4575760000000  0.4952650000000  0.3927310000000 1.0
C      1  0.5136300000000  0.4716230000000  0.4405570000000 1.0
C      1  0.4872840000000  0.5843330000000  0.3766630000000 1.0
C      1  0.4373840000000  0.5784940000000  0.4195710000000 1.0
C      1  0.4858060000000  0.5162030000000  0.4996830000000 1.0
C      1  0.5991460000000  0.5537970000000  0.5233940000000 1.0
C      1  0.4681230000000  0.4854260000000  0.4528770000000 1.0
C      1  0.4952220000000  0.5165760000000  0.6275940000000 1.0
C      1  0.4903330000000  0.5608760000000  0.3907810000000 1.0
C      1  0.5875880000000  0.5814810000000  0.5320200000000 1.0
C      1  0.5209260000000  0.5063160000000  0.5629760000000 1.0
C      1  0.5237910000000  0.5306950000000  0.5151390000000 1.0
C      1  0.5246610000000  0.4388380000000  0.5117010000000 1.0
C      1  0.4933110000000  0.4673950000000  0.5575420000000 1.0
C      1  0.4841990000000  0.4456830000000  0.4802000000000 1.0
C      1  0.5229040000000  0.4469260000000  0.4505500000000 1.0
C      1  0.5479080000000  0.5120420000000  0.3986360000000 1.0
C      1  0.5554770000000  0.4728130000000  0.5275750000000 1.0
C      1  0.5858640000000  0.4361320000000  0.5983350000000 1.0
C      1  0.5929660000000  0.5075290000000  0.4245530000000 1.0
C      1  0.5885610000000  0.4748420000000  0.4766270000000 1.0
C      1  0.3697570000000  0.5267010000000  0.5167140000000 1.0
C      1  0.4819900000000  0.4928160000000  0.5152790000000 1.0
C      1  0.4606310000000  0.3942930000000  0.4882850000000 1.0
C      1  0.5487200000000  0.5648260000000  0.4982740000000 1.0
C      1  0.5453320000000  0.5236510000000  0.4738050000000 1.0
C      1  0.5590720000000  0.3970100000000  0.4655410000000 1.0
C      1  0.5820730000000  0.4301320000000  0.4298390000000 1.0
C      1  0.4673760000000  0.4605620000000  0.4659750000000 1.0
C      1  0.4406710000000  0.5900130000000  0.5199580000000 1.0
C      1  0.4187580000000  0.4776980000000  0.4262830000000 1.0
C      1  0.5227660000000  0.4401840000000  0.5867260000000 1.0
C      1  0.6012540000000  0.5000600000000  0.4729440000000 1.0
C      1  0.4910440000000  0.5770220000000  0.4936590000000 1.0
C      1  0.3833520000000  0.4297480000000  0.4454610000000 1.0
C      1  0.4391990000000  0.5534000000000  0.4056780000000 1.0
C      1  0.4555990000000  0.3905000000000  0.5409140000000 1.0
C      1  0.4334690000000  0.5984070000000  0.4678740000000 1.0
C      1  0.4863450000000  0.5645280000000  0.5985490000000 1.0
C      1  0.4750620000000  0.4506100000000  0.6054430000000 1.0
C      1  0.4791400000000  0.4400970000000  0.5256910000000 1.0
C      1  0.4438680000000  0.5346190000000  0.4576090000000 1.0
C      1  0.6024600000000  0.4189640000000  0.5519750000000 1.0
C      1  0.4146600000000  0.5392840000000  0.4581670000000 1.0
C      1  0.4682230000000  0.5249780000000  0.6219930000000 1.0
C      1  0.5934670000000  0.4943770000000  0.5793470000000 1.0
C      1  0.5387060000000  0.4578050000000  0.6033940000000 1.0
C      1  0.5164730000000  0.5865070000000  0.4563460000000 1.0
C      1  0.3783950000000  0.4570480000000  0.4852050000000 1.0
C      1  0.5308220000000  0.3681730000000  0.4924790000000 1.0
C      1  0.4052880000000  0.4178640000000  0.4003210000000 1.0
C      1  0.4294820000000  0.4158530000000  0.3895250000000 1.0
C      1  0.6076840000000  0.4350920000000  0.5061060000000 1.0
C      1  0.4662700000000  0.5450950000000  0.3978090000000 1.0
C      1  0.4390830000000  0.4877380000000  0.6040740000000 1.0
C      1  0.3885060000000  0.4227770000000  0.4203350000000 1.0
C      1  0.4016020000000  0.5642150000000  0.5260310000000 1.0
C      1  0.5765960000000  0.5662420000000  0.5779740000000 1.0
C      1  0.5435150000000  0.5020410000000  0.5825600000000 1.0
C      1  0.3670060000000  0.4800250000000  0.4929340000000 1.0
C      1  0.4806430000000  0.4177390000000  0.3992530000000 1.0
C      1  0.5426660000000  0.4317030000000  0.4913070000000 1.0
C      1  0.5744900000000  0.6103780000000  0.4923040000000 1.0
C      1  0.6036890000000  0.5425620000000  0.4961960000000 1.0
C      1  0.4003130000000  0.5547370000000  0.4763100000000 1.0
C      1  0.4504340000000  0.5062650000000  0.4623490000000 1.0
C      1  0.4175510000000  0.5341220000000  0.4117570000000 1.0
C      1  0.4539220000000  0.4567730000000  0.5348840000000 1.0
C      1  0.5986320000000  0.5183540000000  0.4504560000000 1.0
C      1  0.5081320000000  0.5948520000000  0.4820990000000 1.0
C      1  0.5380000000000  0.5558020000000  0.5239870000000 1.0
C      1  0.5336480000000  0.4860430000000  0.6050380000000 1.0
C      1  0.5686860000000  0.6014630000000  0.5199720000000 1.0
C      1  0.4060400000000  0.5227290000000  0.4363660000000 1.0
C      1  0.5378160000000  0.5117220000000  0.4984480000000 1.0
C      1  0.4155620000000  0.4239120000000  0.4802900000000 1.0
C      1  0.5064270000000  0.5502410000000  0.5838770000000 1.0
C      1  0.6011050000000  0.5318380000000  0.5489830000000 1.0
C      1  0.4390660000000  0.5495200000000  0.5824300000000 1.0
C      1  0.5494030000000  0.5714900000000  0.5821680000000 1.0
C      1  0.4260240000000  0.5918560000000  0.4947300000000 1.0
C      1  0.4631690000000  0.4725580000000  0.5616950000000 1.0
C      1  0.4226540000000  0.5774350000000  0.5416530000000 1.0
C      1  0.5645190000000  0.4479720000000  0.6092290000000 1.0
C      1  0.5438500000000  0.5978550000000  0.4512990000000 1.0
C      1  0.4560370000000  0.4162060000000  0.3894000000000 1.0
C      1  0.5564540000000  0.5758910000000  0.4355310000000 1.0
C      1  0.4910760000000  0.5928890000000  0.5955710000000 1.0
C      1  0.3920810000000  0.4367520000000  0.4712370000000 1.0
C      1  0.4102810000000  0.4446060000000  0.5494220000000 1.0
C      1  0.5000430000000  0.4193740000000  0.4172870000000 1.0
C      1  0.5024950000000  0.5244340000000  0.5753730000000 1.0
C      1  0.4602910000000  0.3848930000000  0.5150150000000 1.0
C      1  0.5170220000000  0.6022810000000  0.5440400000000 1.0
C      1  0.4369820000000  0.4350490000000  0.5480170000000 1.0
C      1  0.4960560000000  0.5369080000000  0.5162010000000 1.0
C      1  0.3905990000000  0.5386210000000  0.5318350000000 1.0
C      1  0.4376490000000  0.4087840000000  0.4801950000000 1.0
C      1  0.4688290000000  0.5638870000000  0.4825240000000 1.0
C      1  0.4399890000000  0.5742150000000  0.5657170000000 1.0
C      1  0.5577840000000  0.5430050000000  0.5401080000000 1.0
C      1  0.3631010000000  0.5045730000000  0.5029760000000 1.0
C      1  0.4927650000000  0.4392040000000  0.5500660000000 1.0
C      1  0.5959920000000  0.5458870000000  0.4605920000000 1.0
C      1  0.5716570000000  0.5592980000000  0.4542230000000 1.0
C      1  0.5530100000000  0.3908510000000  0.5327210000000 1.0
C      1  0.4560790000000  0.4675700000000  0.5915520000000 1.0
C      1  0.5725850000000  0.4037840000000  0.5158690000000 1.0
C      1  0.4452670000000  0.5348670000000  0.5207080000000 1.0
C      1  0.5749280000000  0.5204880000000  0.4056380000000 1.0
C      1  0.5324320000000  0.5643270000000  0.4200540000000 1.0
C      1  0.5480970000000  0.4853060000000  0.5016370000000 1.0
C      1  0.5713070000000  0.5133120000000  0.5850760000000 1.0
C      1  0.4441510000000  0.5821860000000  0.4467290000000 1.0
C      1  0.5974650000000  0.4790230000000  0.4214010000000 1.0
C      1  0.5461120000000  0.4864590000000  0.4108460000000 1.0
C      1  0.5598270000000  0.4723160000000  0.4785470000000 1.0
C      1  0.5092880000000  0.3984340000000  0.4601490000000 1.0
C      1  0.4916250000000  0.5676590000000  0.5221830000000 1.0
C      1  0.6102110000000  0.5148090000000  0.4957560000000 1.0
C      1  0.4604310000000  0.5018970000000  0.5595050000000 1.0
C      1  0.4197450000000  0.5255090000000  0.5725910000000 1.0
C      1  0.5513590000000  0.6121990000000  0.4753510000000 1.0
C      1  0.5328770000000  0.3838340000000  0.4685060000000 1.0
C      1  0.5328900000000  0.5145990000000  0.4506350000000 1.0
C      1  0.4769370000000  0.5149040000000  0.5771560000000 1.0
C      1  0.4966720000000  0.4401400000000  0.5043400000000 1.0
C      1  0.4902270000000  0.6024620000000  0.5682780000000 1.0
C      1  0.5156190000000  0.4994880000000  0.6225360000000 1.0
C      1  0.4808640000000  0.4217820000000  0.5693290000000 1.0
C      1  0.5118480000000  0.4214360000000  0.4426860000000 1.0
C      1  0.4955230000000  0.5136660000000  0.4209630000000 1.0
C      1  0.4718970000000  0.5177570000000  0.4033630000000 1.0
C      1  0.5282270000000  0.6114500000000  0.4949320000000 1.0
C      1  0.5617470000000  0.4110830000000  0.4906240000000 1.0
C      1  0.4650640000000  0.4857080000000  0.3675080000000 1.0
C      1  0.4015750000000  0.4691420000000  0.5415700000000 1.0
C      1  0.5438960000000  0.4500360000000  0.4699910000000 1.0
C      1  0.4939720000000  0.4325400000000  0.5931980000000 1.0
C      1  0.5360490000000  0.4332430000000  0.5601470000000 1.0
C      1  0.5178030000000  0.5521490000000  0.3980170000000 1.0
C      1  0.5997270000000  0.5000230000000  0.5507210000000 1.0
C      1  0.4546330000000  0.4132400000000  0.5580600000000 1.0
C      1  0.4195810000000  0.5021630000000  0.5894790000000 1.0
C      1  0.4580750000000  0.5594170000000  0.4574570000000 1.0
C      1  0.5127040000000  0.5608200000000  0.4428290000000 1.0
C      1  0.5612110000000  0.5168140000000  0.5378920000000 1.0
C      1  0.4755410000000  0.4760850000000  0.3456710000000 1.0
C      1  0.5436740000000  0.4059130000000  0.5549580000000 1.0
C      1  0.4282550000000  0.4895220000000  0.5043920000000 1.0
C      1  0.4040720000000  0.5722950000000  0.4979750000000 1.0
C      1  0.5350400000000  0.4897090000000  0.4364730000000 1.0
C      1  0.5725990000000  0.4086930000000  0.4434660000000 1.0
C      1  0.5958160000000  0.4176270000000  0.5247860000000 1.0
C      1  0.5376090000000  0.3714830000000  0.5185890000000 1.0
C      1  0.5544250000000  0.5501800000000  0.4753300000000 1.0
C      1  0.4656030000000  0.5894210000000  0.5589470000000 1.0
C      1  0.6039740000000  0.4538070000000  0.4874220000000 1.0
C      1  0.5481860000000  0.4471270000000  0.3819010000000 1.0
C      1  0.4252870000000  0.4943580000000  0.4736500000000 1.0
C      1  0.5989650000000  0.4259250000000  0.5774640000000 1.0
C      1  0.4620680000000  0.5480720000000  0.6039040000000 1.0
C      1  0.4089970000000  0.4948360000000  0.4471180000000 1.0
C      1  0.4106650000000  0.4937110000000  0.5293840000000 1.0
C      1  0.4900400000000  0.4868700000000  0.4348500000000 1.0
C      1  0.4502850000000  0.5176970000000  0.5397210000000 1.0
C      1  0.5179270000000  0.5720480000000  0.5402550000000 1.0
C      1  0.4070710000000  0.5193430000000  0.5456200000000 1.0
C      1  0.5378890000000  0.6100620000000  0.5237660000000 1.0
C      1  0.5224860000000  0.5244970000000  0.3979090000000 1.0
C      1  0.4673320000000  0.5842340000000  0.5310220000000 1.0
C      1  0.5051360000000  0.4890740000000  0.5437700000000 1.0
C      1  0.5841200000000  0.5389370000000  0.5748610000000 1.0
C      1  0.4372010000000  0.4815970000000  0.4069290000000 1.0
C      1  0.4912730000000  0.5217550000000  0.4721450000000 1.0
C      1  0.4551420000000  0.4796010000000  0.5143220000000 1.0
C      1  0.4497150000000  0.5037050000000  0.6248700000000 1.0
C      1  0.5253060000000  0.5646020000000  0.5695440000000 1.0
END
