TITL C-599897-7526-1476 3.52745544384664e-05 125000 -447.757630851528 0 0 74 (C1) n - 1
REM
REM in /home/nfs/bkarasulu/CARBON/AIRSS/Generating-Clusters/TERSOFF/Only-C1/FIRE-HFTN
REM
REM
REM
REM
REM
REM ./C.cell (11c1c37f851c82e70ff6c80c92926a4b)
REM AIRSS Version 0.9.1 bugfix July 2018 build 013d7b7c2542+ Fri, 06 Jul 2018 19:26:36 +0100
REM compiler GCC version 9.2.1 20190827 (Red Hat 9.2.1-1)
REM options -cpp -mtune=generic -march=x86-64 -g -O0 -fpre-include=/usr/include/finclude/math-vector-fortran.h
REM seed -585489284 1910214074 365148429 2049479044 -473683069 -1487980489 1216912854 1223155172 -2138344430 -2061317437 -1118719252 -1181911789 1865121966 -643047920 -1915547328 -2122919387 939182210 -212704650 -366714468 1544457445 -1373789168 157512407 1931836640 -202143785 773238946 188912442 -353602484 -141977639 995608240 -204037672 806857588 -2078475103 -1654327106
REM
CELL 1.54180   50.00000   50.00000   50.00000   90.00000   90.00000   90.00000
LATT -1
SFAC C  
C      1  0.5280420000000  0.5996830000000  0.4953670000000 1.0
C      1  0.5565200000000  0.5472880000000  0.5414270000000 1.0
C      1  0.5560240000000  0.5693480000000  0.5265390000000 1.0
C      1  0.5348860000000  0.4374420000000  0.5572130000000 1.0
C      1  0.4797970000000  0.4360030000000  0.4677080000000 1.0
C      1  0.4549060000000  0.4469150000000  0.4571640000000 1.0
C      1  0.4587530000000  0.4563800000000  0.5558220000000 1.0
C      1  0.5548590000000  0.5192500000000  0.5446620000000 1.0
C      1  0.4825310000000  0.5076860000000  0.5352110000000 1.0
C      1  0.5063010000000  0.4450180000000  0.5538750000000 1.0
C      1  0.4781290000000  0.4834780000000  0.4766210000000 1.0
C      1  0.4642570000000  0.4743620000000  0.5771680000000 1.0
C      1  0.4816270000000  0.5393160000000  0.6075490000000 1.0
C      1  0.5338280000000  0.4816530000000  0.5702650000000 1.0
C      1  0.5665530000000  0.4972740000000  0.4478960000000 1.0
C      1  0.5526990000000  0.4407660000000  0.4704590000000 1.0
C      1  0.5264530000000  0.4916090000000  0.4190660000000 1.0
C      1  0.4499440000000  0.4538660000000  0.5080800000000 1.0
C      1  0.4495270000000  0.4677010000000  0.4805810000000 1.0
C      1  0.5357590000000  0.4595720000000  0.5108430000000 1.0
C      1  0.4291450000000  0.4894720000000  0.4731640000000 1.0
C      1  0.4598560000000  0.5123400000000  0.4440380000000 1.0
C      1  0.4835770000000  0.5366900000000  0.4793060000000 1.0
C      1  0.5482790000000  0.4465260000000  0.5333720000000 1.0
C      1  0.4814740000000  0.5036760000000  0.4268950000000 1.0
C      1  0.4730200000000  0.5121460000000  0.4696580000000 1.0
C      1  0.5803760000000  0.5031190000000  0.4971640000000 1.0
C      1  0.4186250000000  0.5068230000000  0.4927650000000 1.0
C      1  0.5390550000000  0.5092050000000  0.5671530000000 1.0
C      1  0.5392750000000  0.4401770000000  0.4459270000000 1.0
C      1  0.4446830000000  0.5641590000000  0.4706650000000 1.0
C      1  0.5347590000000  0.4380660000000  0.4919460000000 1.0
C      1  0.4726340000000  0.4353240000000  0.5150990000000 1.0
C      1  0.4802040000000  0.4745050000000  0.4189130000000 1.0
C      1  0.4802610000000  0.4392350000000  0.5435740000000 1.0
C      1  0.4904720000000  0.6193550000000  0.5205550000000 1.0
C      1  0.4427510000000  0.5332570000000  0.5265950000000 1.0
C      1  0.4968430000000  0.4605910000000  0.4644360000000 1.0
C      1  0.5708730000000  0.4932760000000  0.3997640000000 1.0
C      1  0.5025490000000  0.4884620000000  0.5327220000000 1.0
C      1  0.4772700000000  0.4954730000000  0.5880720000000 1.0
C      1  0.4539130000000  0.5087190000000  0.5373520000000 1.0
C      1  0.5475120000000  0.5866090000000  0.5081420000000 1.0
C      1  0.4898690000000  0.5339470000000  0.5255480000000 1.0
C      1  0.4248700000000  0.5537340000000  0.4858190000000 1.0
C      1  0.5194130000000  0.5088950000000  0.4916000000000 1.0
C      1  0.4559750000000  0.4601060000000  0.4298120000000 1.0
C      1  0.5098080000000  0.4739400000000  0.5554460000000 1.0
C      1  0.4660610000000  0.5515090000000  0.5282090000000 1.0
C      1  0.4814240000000  0.5824840000000  0.4949110000000 1.0
C      1  0.5006280000000  0.6044010000000  0.4976490000000 1.0
C      1  0.5739210000000  0.4588900000000  0.4746780000000 1.0
C      1  0.4398340000000  0.4612110000000  0.5342100000000 1.0
C      1  0.5453000000000  0.4562230000000  0.5778450000000 1.0
C      1  0.4341820000000  0.4986450000000  0.4456550000000 1.0
C      1  0.4688440000000  0.5785320000000  0.5217430000000 1.0
C      1  0.4327880000000  0.4772010000000  0.4268610000000 1.0
C      1  0.4866030000000  0.4241490000000  0.4928550000000 1.0
C      1  0.5142930000000  0.4189050000000  0.4951320000000 1.0
C      1  0.4251990000000  0.5320190000000  0.5040320000000 1.0
C      1  0.4724710000000  0.5629180000000  0.4763490000000 1.0
C      1  0.5740180000000  0.4872500000000  0.4736420000000 1.0
C      1  0.5152310000000  0.4541300000000  0.4428940000000 1.0
C      1  0.6029640000000  0.5189350000000  0.4950720000000 1.0
C      1  0.4727900000000  0.6036860000000  0.5350380000000 1.0
C      1  0.5204120000000  0.4852820000000  0.5098330000000 1.0
C      1  0.5088820000000  0.4676580000000  0.4188250000000 1.0
C      1  0.4924860000000  0.5194250000000  0.5920480000000 1.0
C      1  0.5101110000000  0.5094840000000  0.4356480000000 1.0
C      1  0.5025950000000  0.5316360000000  0.5002840000000 1.0
C      1  0.5183470000000  0.5238230000000  0.5804940000000 1.0
C      1  0.5206020000000  0.5105030000000  0.4626630000000 1.0
C      1  0.5664840000000  0.5046030000000  0.5224980000000 1.0
C      1  0.5547950000000  0.4940570000000  0.4219180000000 1.0
END
