TITL C-599893-4344-1180 -0.00375325225118612 125000 -488.14513856322 0 0 81 (C1) n - 1
REM
REM in /home/nfs/bkarasulu/CARBON/AIRSS/Generating-Clusters/TERSOFF/Only-C1/FIRE-HFTN
REM
REM
REM
REM
REM
REM ./C.cell (11c1c37f851c82e70ff6c80c92926a4b)
REM AIRSS Version 0.9.1 bugfix July 2018 build 013d7b7c2542+ Fri, 06 Jul 2018 19:26:36 +0100
REM compiler GCC version 9.2.1 20190827 (Red Hat 9.2.1-1)
REM options -cpp -mtune=generic -march=x86-64 -g -O0 -fpre-include=/usr/include/finclude/math-vector-fortran.h
REM seed 1836588877 1201529921 207206286 731501064 372332419 2134213512 -63340724 1537904475 901474339 -1352280206 388175614 634689798 -1703969158 1177976790 -1238643580 -389375655 1643379457 -1608127089 -148460832 -1277719377 -15919426 963005764 1197931601 1315313425 -933359738 1671942331 1806509251 -279188524 -698859865 589336219 -1551781409 1136475404 -1721268699
REM
CELL 1.54180   50.00000   50.00000   50.00000   90.00000   90.00000   90.00000
LATT -1
SFAC C  
C      1  0.5172310000000  0.4831120000000  0.5665750000000 1.0
C      1  0.5234400000000  0.5818170000000  0.5490770000000 1.0
C      1  0.5002570000000  0.4565370000000  0.5203630000000 1.0
C      1  0.5264840000000  0.4139350000000  0.4488800000000 1.0
C      1  0.5009020000000  0.5254990000000  0.5063430000000 1.0
C      1  0.5496310000000  0.4796950000000  0.4975650000000 1.0
C      1  0.5367900000000  0.4619760000000  0.4796540000000 1.0
C      1  0.4997050000000  0.4573140000000  0.3982740000000 1.0
C      1  0.4723910000000  0.4988260000000  0.4737190000000 1.0
C      1  0.5253970000000  0.4974040000000  0.4181520000000 1.0
C      1  0.5276710000000  0.4408220000000  0.4376260000000 1.0
C      1  0.4737760000000  0.5177840000000  0.4950100000000 1.0
C      1  0.5901870000000  0.5351870000000  0.4760190000000 1.0
C      1  0.5159560000000  0.4797400000000  0.5355070000000 1.0
C      1  0.3755020000000  0.5223290000000  0.5457030000000 1.0
C      1  0.5608280000000  0.4293340000000  0.5435460000000 1.0
C      1  0.4856140000000  0.4488510000000  0.3765370000000 1.0
C      1  0.4724800000000  0.5837880000000  0.4891990000000 1.0
C      1  0.4707200000000  0.5050680000000  0.5685400000000 1.0
C      1  0.5354680000000  0.5585040000000  0.4587950000000 1.0
C      1  0.4565870000000  0.4257870000000  0.4338040000000 1.0
C      1  0.4736510000000  0.5674940000000  0.5128200000000 1.0
C      1  0.4964120000000  0.4972520000000  0.5800060000000 1.0
C      1  0.5203130000000  0.5175820000000  0.4841920000000 1.0
C      1  0.5643250000000  0.4713850000000  0.5682850000000 1.0
C      1  0.5001850000000  0.3864870000000  0.5552100000000 1.0
C      1  0.5182330000000  0.5237650000000  0.4264650000000 1.0
C      1  0.5583540000000  0.5259850000000  0.5112560000000 1.0
C      1  0.4015520000000  0.5213380000000  0.5504180000000 1.0
C      1  0.4896800000000  0.5435280000000  0.5857830000000 1.0
C      1  0.4525620000000  0.5504030000000  0.5220880000000 1.0
C      1  0.5086730000000  0.5702510000000  0.4569750000000 1.0
C      1  0.5456460000000  0.5070860000000  0.4926970000000 1.0
C      1  0.5848390000000  0.5185490000000  0.4553180000000 1.0
C      1  0.4676700000000  0.4730540000000  0.4835990000000 1.0
C      1  0.4738840000000  0.4632670000000  0.5080270000000 1.0
C      1  0.4250010000000  0.5195430000000  0.4927050000000 1.0
C      1  0.5413490000000  0.4110900000000  0.5457010000000 1.0
C      1  0.4290810000000  0.5196970000000  0.5529830000000 1.0
C      1  0.4527280000000  0.5789530000000  0.4691980000000 1.0
C      1  0.5404530000000  0.5355770000000  0.4417370000000 1.0
C      1  0.5132800000000  0.4093800000000  0.5463420000000 1.0
C      1  0.4696850000000  0.5355700000000  0.5667750000000 1.0
C      1  0.5038450000000  0.5214940000000  0.5949210000000 1.0
C      1  0.5595900000000  0.5127520000000  0.4444180000000 1.0
C      1  0.4442350000000  0.4964220000000  0.5614400000000 1.0
C      1  0.4100540000000  0.4794170000000  0.4633040000000 1.0
C      1  0.5423940000000  0.5227990000000  0.5354820000000 1.0
C      1  0.4996850000000  0.5549820000000  0.5159520000000 1.0
C      1  0.5392400000000  0.4631200000000  0.4511330000000 1.0
C      1  0.4489570000000  0.5292670000000  0.5032140000000 1.0
C      1  0.4350960000000  0.4708740000000  0.5623620000000 1.0
C      1  0.5210890000000  0.5721660000000  0.5236600000000 1.0
C      1  0.5457130000000  0.4875580000000  0.4370110000000 1.0
C      1  0.5514540000000  0.5180250000000  0.5622610000000 1.0
C      1  0.5026990000000  0.4417740000000  0.4215400000000 1.0
C      1  0.5125960000000  0.4820950000000  0.3990290000000 1.0
C      1  0.5391700000000  0.5795350000000  0.5033410000000 1.0
C      1  0.4872920000000  0.5565070000000  0.4423110000000 1.0
C      1  0.4118540000000  0.5013070000000  0.4783800000000 1.0
C      1  0.5704060000000  0.5453160000000  0.4935560000000 1.0
C      1  0.4878530000000  0.3650640000000  0.5634690000000 1.0
C      1  0.5161630000000  0.4486560000000  0.4943370000000 1.0
C      1  0.4344430000000  0.4390960000000  0.4402000000000 1.0
C      1  0.5778440000000  0.5551540000000  0.5909330000000 1.0
C      1  0.4479040000000  0.5421240000000  0.5489620000000 1.0
C      1  0.5449600000000  0.4917130000000  0.5725330000000 1.0
C      1  0.5511590000000  0.5641240000000  0.4829560000000 1.0
C      1  0.4772500000000  0.5088170000000  0.4479200000000 1.0
C      1  0.4609380000000  0.5666920000000  0.4462040000000 1.0
C      1  0.4980540000000  0.5886150000000  0.4763580000000 1.0
C      1  0.5654110000000  0.5368860000000  0.5771220000000 1.0
C      1  0.4838940000000  0.4215410000000  0.4314830000000 1.0
C      1  0.5463600000000  0.4719010000000  0.5249090000000 1.0
C      1  0.4183140000000  0.4577950000000  0.4501390000000 1.0
C      1  0.5619010000000  0.4573090000000  0.5437550000000 1.0
C      1  0.5154370000000  0.5106340000000  0.5288530000000 1.0
C      1  0.3499990000000  0.5231520000000  0.5403660000000 1.0
C      1  0.5010590000000  0.4032390000000  0.4459430000000 1.0
C      1  0.4920050000000  0.5294890000000  0.4352590000000 1.0
C      1  0.4991150000000  0.4320410000000  0.5375190000000 1.0
END
