TITL C-599893-4344-134 -0.0575852263358221 125000 -307.378581929907 0 0 51 (C1) n - 1
REM
REM in /home/nfs/bkarasulu/CARBON/AIRSS/Generating-Clusters/TERSOFF/Only-C1/FIRE-HFTN
REM
REM
REM
REM
REM
REM ./C.cell (11c1c37f851c82e70ff6c80c92926a4b)
REM AIRSS Version 0.9.1 bugfix July 2018 build 013d7b7c2542+ Fri, 06 Jul 2018 19:26:36 +0100
REM compiler GCC version 9.2.1 20190827 (Red Hat 9.2.1-1)
REM options -cpp -mtune=generic -march=x86-64 -g -O0 -fpre-include=/usr/include/finclude/math-vector-fortran.h
REM seed -43764034 936760087 663963313 2129496080 -1319022639 1302490805 -1121033438 -1276699712 2111003193 1523163588 83992587 783736076 721062119 -1687704994 -510770107 -1314959512 999157662 618050781 1260971503 1353767594 -100917180 -1677080273 -2085490942 -566807064 -1329742087 2100367319 144482496 -398924139 200707932 -601409881 -1134673195 1796337061 -63606154
REM
CELL 1.54180   50.00000   50.00000   50.00000   90.00000   90.00000   90.00000
LATT -1
SFAC C  
C      1  0.4539180000000  0.5225150000000  0.5410970000000 1.0
C      1  0.4880420000000  0.5149740000000  0.4373600000000 1.0
C      1  0.5601800000000  0.5628040000000  0.6192610000000 1.0
C      1  0.5383460000000  0.5303100000000  0.5904450000000 1.0
C      1  0.5461250000000  0.4925730000000  0.4634350000000 1.0
C      1  0.5136950000000  0.4697580000000  0.4907330000000 1.0
C      1  0.4762500000000  0.4722280000000  0.4149500000000 1.0
C      1  0.4359080000000  0.5091540000000  0.4673220000000 1.0
C      1  0.4487990000000  0.4402070000000  0.5050880000000 1.0
C      1  0.5544750000000  0.4844820000000  0.5362730000000 1.0
C      1  0.4432330000000  0.4933870000000  0.4451710000000 1.0
C      1  0.4395880000000  0.5204050000000  0.5186430000000 1.0
C      1  0.4304190000000  0.4179800000000  0.3946410000000 1.0
C      1  0.4421510000000  0.4382520000000  0.4083570000000 1.0
C      1  0.5455430000000  0.5320820000000  0.4927740000000 1.0
C      1  0.4742200000000  0.5207230000000  0.5583800000000 1.0
C      1  0.5259190000000  0.5121870000000  0.5730350000000 1.0
C      1  0.5219910000000  0.4640730000000  0.4280910000000 1.0
C      1  0.4603330000000  0.4590520000000  0.5199590000000 1.0
C      1  0.5245160000000  0.5511280000000  0.5318230000000 1.0
C      1  0.4594660000000  0.4578610000000  0.3971680000000 1.0
C      1  0.5484570000000  0.5218280000000  0.4669320000000 1.0
C      1  0.4951510000000  0.4558800000000  0.4291100000000 1.0
C      1  0.4584250000000  0.4340080000000  0.4554600000000 1.0
C      1  0.4856850000000  0.4432250000000  0.4530440000000 1.0
C      1  0.5163210000000  0.5131300000000  0.4325370000000 1.0
C      1  0.5731750000000  0.5691070000000  0.6414730000000 1.0
C      1  0.4850480000000  0.5275620000000  0.4863100000000 1.0
C      1  0.5405210000000  0.5765190000000  0.5762840000000 1.0
C      1  0.5018300000000  0.5152980000000  0.5053500000000 1.0
C      1  0.5465110000000  0.5565670000000  0.5957870000000 1.0
C      1  0.5313010000000  0.5679150000000  0.5512280000000 1.0
C      1  0.4492150000000  0.4279780000000  0.4813370000000 1.0
C      1  0.4992540000000  0.4866570000000  0.5090910000000 1.0
C      1  0.5859570000000  0.5754230000000  0.6632980000000 1.0
C      1  0.5411180000000  0.4769650000000  0.4867410000000 1.0
C      1  0.5007710000000  0.4495940000000  0.4761110000000 1.0
C      1  0.5565020000000  0.4777690000000  0.5103730000000 1.0
C      1  0.5247060000000  0.5315840000000  0.5119150000000 1.0
C      1  0.4836880000000  0.4722700000000  0.5282920000000 1.0
C      1  0.4332990000000  0.5158890000000  0.4930630000000 1.0
C      1  0.5309240000000  0.4881530000000  0.4389060000000 1.0
C      1  0.5434330000000  0.6031400000000  0.5817630000000 1.0
C      1  0.4390520000000  0.4431990000000  0.4363440000000 1.0
C      1  0.5340420000000  0.5330740000000  0.4444280000000 1.0
C      1  0.4815500000000  0.5306300000000  0.4599920000000 1.0
C      1  0.5420080000000  0.4951350000000  0.5573900000000 1.0
C      1  0.4938800000000  0.4654760000000  0.5527900000000 1.0
C      1  0.4680390000000  0.4957510000000  0.4297000000000 1.0
C      1  0.4288600000000  0.4690660000000  0.4421210000000 1.0
C      1  0.4981580000000  0.5150770000000  0.5688230000000 1.0
END
