TITL C-599893-4344-674 52.4779960955685 125000 -507.743362644924 0 0 84 (C1) n - 1
REM
REM in /home/nfs/bkarasulu/CARBON/AIRSS/Generating-Clusters/TERSOFF/Only-C1/FIRE-HFTN
REM
REM
REM
REM
REM
REM ./C.cell (11c1c37f851c82e70ff6c80c92926a4b)
REM AIRSS Version 0.9.1 bugfix July 2018 build 013d7b7c2542+ Fri, 06 Jul 2018 19:26:36 +0100
REM compiler GCC version 9.2.1 20190827 (Red Hat 9.2.1-1)
REM options -cpp -mtune=generic -march=x86-64 -g -O0 -fpre-include=/usr/include/finclude/math-vector-fortran.h
REM seed -1234898336 1545350452 1383905248 -577499465 961363276 -563189177 25978424 -1937877077 2038437065 1272051250 630801086 348286548 298334681 1055350199 930908294 1114138243 497281618 1247439281 346411616 -1348744454 3482430 -1085263027 -147282373 1076298145 1169327525 528706902 564595280 -1978623943 -1989012172 956808691 2081205791 -145012687 1637508164
REM
CELL 1.54180   50.00000   50.00000   50.00000   90.00000   90.00000   90.00000
LATT -1
SFAC C  
C      1  0.4485410000000  0.4378080000000  0.5662500000000 1.0
C      1  0.5554720000000  0.5512640000000  0.4997020000000 1.0
C      1  0.4982730000000  0.4424620000000  0.5730060000000 1.0
C      1  0.5331650000000  0.5076300000000  0.5260810000000 1.0
C      1  0.5598810000000  0.4700340000000  0.5573790000000 1.0
C      1  0.5778330000000  0.5183370000000  0.4710570000000 1.0
C      1  0.5469410000000  0.4916370000000  0.5729240000000 1.0
C      1  0.5465840000000  0.5228200000000  0.4357670000000 1.0
C      1  0.4540710000000  0.4507980000000  0.4777810000000 1.0
C      1  0.4359000000000  0.4495160000000  0.5458610000000 1.0
C      1  0.4477030000000  0.5039150000000  0.4469780000000 1.0
C      1  0.4877310000000  0.4445670000000  0.4414600000000 1.0
C      1  0.5785920000000  0.4321380000000  0.5323130000000 1.0
C      1  0.5369420000000  0.4585960000000  0.5416150000000 1.0
C      1  0.4389290000000  0.4623910000000  0.5227350000000 1.0
C      1  0.4657240000000  0.4959330000000  0.4968070000000 1.0
C      1  0.4661740000000  0.5061630000000  0.4695780000000 1.0
C      1  0.4141350000000  0.5222070000000  0.4936460000000 1.0
C      1  0.5364200000000  0.4588850000000  0.4493330000000 1.0
C      1  0.5907480000000  0.4541400000000  0.4929270000000 1.0
C      1  0.4730470000000  0.4343700000000  0.5763230000000 1.0
C      1  0.4564710000000  0.4962020000000  0.4213320000000 1.0
C      1  0.4261390000000  0.5455700000000  0.4819270000000 1.0
C      1  0.5474330000000  0.4811420000000  0.4638410000000 1.0
C      1  0.5108330000000  0.5072560000000  0.4106480000000 1.0
C      1  0.5805540000000  0.4509620000000  0.5524520000000 1.0
C      1  0.5671460000000  0.5251490000000  0.4963400000000 1.0
C      1  0.4870380000000  0.4741240000000  0.5313150000000 1.0
C      1  0.4957630000000  0.5651620000000  0.4568180000000 1.0
C      1  0.4718830000000  0.5636510000000  0.5339490000000 1.0
C      1  0.5471750000000  0.4789540000000  0.4929040000000 1.0
C      1  0.4099310000000  0.5004830000000  0.4748940000000 1.0
C      1  0.4121250000000  0.5215920000000  0.5220460000000 1.0
C      1  0.4087530000000  0.4718970000000  0.4763180000000 1.0
C      1  0.5117750000000  0.4611360000000  0.4351580000000 1.0
C      1  0.5139980000000  0.5890500000000  0.5223190000000 1.0
C      1  0.3906360000000  0.5098880000000  0.5342580000000 1.0
C      1  0.5280850000000  0.5535230000000  0.4909970000000 1.0
C      1  0.4832130000000  0.5021560000000  0.5220040000000 1.0
C      1  0.5406210000000  0.4534930000000  0.5099050000000 1.0
C      1  0.5535660000000  0.5025210000000  0.5080810000000 1.0
C      1  0.4537280000000  0.4696560000000  0.4998630000000 1.0
C      1  0.4264490000000  0.4519280000000  0.4691220000000 1.0
C      1  0.5085630000000  0.5165830000000  0.5165030000000 1.0
C      1  0.6129230000000  0.4648970000000  0.4845140000000 1.0
C      1  0.4993200000000  0.4257190000000  0.4835460000000 1.0
C      1  0.5125040000000  0.4410180000000  0.5035850000000 1.0
C      1  0.5561120000000  0.5157480000000  0.5850130000000 1.0
C      1  0.5358170000000  0.5351840000000  0.5895230000000 1.0
C      1  0.4936730000000  0.4502820000000  0.5222440000000 1.0
C      1  0.5014270000000  0.5390600000000  0.4464440000000 1.0
C      1  0.5478430000000  0.4336040000000  0.4566680000000 1.0
C      1  0.4326230000000  0.5335660000000  0.5374860000000 1.0
C      1  0.4790440000000  0.4391380000000  0.4679000000000 1.0
C      1  0.4198810000000  0.5082500000000  0.4492920000000 1.0
C      1  0.5598110000000  0.5052790000000  0.4532600000000 1.0
C      1  0.4037310000000  0.5186340000000  0.4292410000000 1.0
C      1  0.3887980000000  0.5290450000000  0.4105950000000 1.0
C      1  0.4743880000000  0.5902260000000  0.4920740000000 1.0
C      1  0.5018930000000  0.4811740000000  0.4155460000000 1.0
C      1  0.4695170000000  0.5735000000000  0.4684060000000 1.0
C      1  0.5827210000000  0.5200470000000  0.5916930000000 1.0
C      1  0.4595330000000  0.5394550000000  0.5438440000000 1.0
C      1  0.5094230000000  0.5338630000000  0.5831750000000 1.0
C      1  0.5167620000000  0.4886440000000  0.5709160000000 1.0
C      1  0.6079530000000  0.5234940000000  0.5972270000000 1.0
C      1  0.5675740000000  0.4370640000000  0.5042690000000 1.0
C      1  0.5002580000000  0.5637260000000  0.5291980000000 1.0
C      1  0.5201540000000  0.5277310000000  0.4277220000000 1.0
C      1  0.4732990000000  0.4764860000000  0.4110100000000 1.0
C      1  0.4896330000000  0.5192080000000  0.4623650000000 1.0
C      1  0.5614040000000  0.5726810000000  0.5175730000000 1.0
C      1  0.4767000000000  0.5164260000000  0.5489110000000 1.0
C      1  0.4448560000000  0.5597500000000  0.4687720000000 1.0
C      1  0.5421460000000  0.5897610000000  0.5270950000000 1.0
C      1  0.4980580000000  0.5115890000000  0.5693270000000 1.0
C      1  0.5157670000000  0.5748180000000  0.4759060000000 1.0
C      1  0.5147430000000  0.4614540000000  0.5608700000000 1.0
C      1  0.5035700000000  0.5942130000000  0.4952120000000 1.0
C      1  0.5591950000000  0.4223050000000  0.4788710000000 1.0
C      1  0.5036460000000  0.3988660000000  0.4806700000000 1.0
C      1  0.5095140000000  0.5436250000000  0.5108720000000 1.0
C      1  0.4602190000000  0.5830280000000  0.5161670000000 1.0
C      1  0.4688900000000  0.4497560000000  0.4204770000000 1.0
END
