TITL C-599894-471-320 0.000388910584075021 125000 -1155.81233670925 0 0 186 (C1) n - 1
REM
REM in /home/nfs/bkarasulu/CARBON/AIRSS/Generating-Clusters/TERSOFF/Only-C1/FIRE-HFTN
REM
REM
REM
REM
REM
REM ./C.cell (11c1c37f851c82e70ff6c80c92926a4b)
REM AIRSS Version 0.9.1 bugfix July 2018 build 013d7b7c2542+ Fri, 06 Jul 2018 19:26:36 +0100
REM compiler GCC version 9.2.1 20190827 (Red Hat 9.2.1-1)
REM options -cpp -mtune=generic -march=x86-64 -g -O0 -fpre-include=/usr/include/finclude/math-vector-fortran.h
REM seed -270980308 645112465 2027017754 1126061729 762127992 681794684 -257932981 82438879 1957393816 -1704058940 -1673437714 -292254074 -1627923695 952181172 200212084 -1099377528 -1058063662 1025057990 1025061916 463908479 1184881686 -460367446 -404511958 1827224011 1665803849 -1387787999 146703352 -1002611475 -1947508705 -633897055 -541032391 -979018505 -234093037
REM
CELL 1.54180   50.00000   50.00000   50.00000   90.00000   90.00000   90.00000
LATT -1
SFAC C  
C      1  0.5847610000000  0.5383960000000  0.5511980000000 1.0
C      1  0.5909290000000  0.5583530000000  0.4997020000000 1.0
C      1  0.5581840000000  0.4824950000000  0.4727960000000 1.0
C      1  0.4179660000000  0.4181210000000  0.4693500000000 1.0
C      1  0.4973730000000  0.4158560000000  0.4097190000000 1.0
C      1  0.4792320000000  0.4957790000000  0.4843710000000 1.0
C      1  0.5100540000000  0.6125050000000  0.5567110000000 1.0
C      1  0.4243050000000  0.5429120000000  0.4948850000000 1.0
C      1  0.4951980000000  0.4005940000000  0.5271300000000 1.0
C      1  0.5948420000000  0.5507450000000  0.5270970000000 1.0
C      1  0.4143280000000  0.4703260000000  0.3943890000000 1.0
C      1  0.4465970000000  0.5141630000000  0.6227930000000 1.0
C      1  0.4858200000000  0.4608470000000  0.5562730000000 1.0
C      1  0.5739580000000  0.4782150000000  0.4968900000000 1.0
C      1  0.5539360000000  0.4975390000000  0.3931600000000 1.0
C      1  0.5479360000000  0.4804690000000  0.5382470000000 1.0
C      1  0.4446060000000  0.4826260000000  0.5333220000000 1.0
C      1  0.5112460000000  0.5630450000000  0.4522230000000 1.0
C      1  0.5013180000000  0.5049990000000  0.5601600000000 1.0
C      1  0.4828830000000  0.4858590000000  0.5697570000000 1.0
C      1  0.4407650000000  0.5160060000000  0.5775740000000 1.0
C      1  0.5143350000000  0.6350420000000  0.4397280000000 1.0
C      1  0.5375460000000  0.4661770000000  0.5609770000000 1.0
C      1  0.6028340000000  0.4400560000000  0.5549150000000 1.0
C      1  0.5710390000000  0.4073610000000  0.5325210000000 1.0
C      1  0.4288960000000  0.5562240000000  0.5588720000000 1.0
C      1  0.6099430000000  0.4309840000000  0.5037540000000 1.0
C      1  0.5126060000000  0.6164260000000  0.4190430000000 1.0
C      1  0.5863160000000  0.4139080000000  0.5072940000000 1.0
C      1  0.4817830000000  0.4048260000000  0.4309130000000 1.0
C      1  0.4203580000000  0.4418540000000  0.5749520000000 1.0
C      1  0.5041520000000  0.5201160000000  0.4382890000000 1.0
C      1  0.5233830000000  0.4088910000000  0.4823180000000 1.0
C      1  0.5459650000000  0.5306870000000  0.5290640000000 1.0
C      1  0.5233740000000  0.4277910000000  0.4642230000000 1.0
C      1  0.5669360000000  0.4161220000000  0.4335350000000 1.0
C      1  0.4162330000000  0.4522090000000  0.5116900000000 1.0
C      1  0.4937230000000  0.3864740000000  0.4496460000000 1.0
C      1  0.4704530000000  0.5561220000000  0.4837820000000 1.0
C      1  0.5105330000000  0.4383790000000  0.4026490000000 1.0
C      1  0.6148600000000  0.4914010000000  0.5213140000000 1.0
C      1  0.4417710000000  0.5537520000000  0.4038090000000 1.0
C      1  0.4453010000000  0.5631050000000  0.4942510000000 1.0
C      1  0.4406520000000  0.4232300000000  0.5656210000000 1.0
C      1  0.4634160000000  0.4443840000000  0.4839790000000 1.0
C      1  0.5028450000000  0.6130890000000  0.4833570000000 1.0
C      1  0.4174970000000  0.4728480000000  0.5313350000000 1.0
C      1  0.4864350000000  0.5833200000000  0.3968250000000 1.0
C      1  0.4826930000000  0.5565220000000  0.4583810000000 1.0
C      1  0.4658970000000  0.4917580000000  0.4598500000000 1.0
C      1  0.5612370000000  0.4648460000000  0.5184350000000 1.0
C      1  0.4987170000000  0.4915340000000  0.5069820000000 1.0
C      1  0.5181630000000  0.4990620000000  0.4508390000000 1.0
C      1  0.5072400000000  0.4022020000000  0.5017690000000 1.0
C      1  0.3956870000000  0.4908470000000  0.5379390000000 1.0
C      1  0.4578250000000  0.4929710000000  0.5787450000000 1.0
C      1  0.5180370000000  0.4025770000000  0.5447070000000 1.0
C      1  0.4801450000000  0.3784130000000  0.4760590000000 1.0
C      1  0.5897800000000  0.5156370000000  0.4683080000000 1.0
C      1  0.4198310000000  0.5282600000000  0.5608330000000 1.0
C      1  0.3817010000000  0.5108820000000  0.4666240000000 1.0
C      1  0.4855070000000  0.5424750000000  0.5032220000000 1.0
C      1  0.4615550000000  0.4214740000000  0.4405660000000 1.0
C      1  0.5919840000000  0.4983560000000  0.4233380000000 1.0
C      1  0.5740760000000  0.4229170000000  0.4078890000000 1.0
C      1  0.5391600000000  0.6053810000000  0.5103770000000 1.0
C      1  0.5465080000000  0.3955960000000  0.4376170000000 1.0
C      1  0.4149600000000  0.4641500000000  0.4848670000000 1.0
C      1  0.5587510000000  0.4581580000000  0.5793960000000 1.0
C      1  0.5316270000000  0.5718980000000  0.4702120000000 1.0
C      1  0.4710130000000  0.5569790000000  0.5965720000000 1.0
C      1  0.4093800000000  0.4449580000000  0.4640220000000 1.0
C      1  0.5442820000000  0.3922650000000  0.5335500000000 1.0
C      1  0.6025820000000  0.4784050000000  0.4999750000000 1.0
C      1  0.4311250000000  0.5149140000000  0.4993000000000 1.0
C      1  0.5389400000000  0.4159470000000  0.5843960000000 1.0
C      1  0.4639990000000  0.5665110000000  0.3955910000000 1.0
C      1  0.5323480000000  0.5965770000000  0.4094440000000 1.0
C      1  0.5764760000000  0.5662540000000  0.4208810000000 1.0
C      1  0.4285280000000  0.5197990000000  0.4408220000000 1.0
C      1  0.6108660000000  0.4543800000000  0.4866250000000 1.0
C      1  0.5774340000000  0.5396120000000  0.4807320000000 1.0
C      1  0.5660600000000  0.5409050000000  0.4117560000000 1.0
C      1  0.5379650000000  0.5427410000000  0.4124440000000 1.0
C      1  0.5138390000000  0.4497560000000  0.4538510000000 1.0
C      1  0.5147740000000  0.6152440000000  0.5280280000000 1.0
C      1  0.4904930000000  0.5723610000000  0.5477660000000 1.0
C      1  0.4738140000000  0.4262030000000  0.6071900000000 1.0
C      1  0.4824890000000  0.4453620000000  0.6240450000000 1.0
C      1  0.4816300000000  0.4735330000000  0.4163340000000 1.0
C      1  0.4607700000000  0.6077650000000  0.5097380000000 1.0
C      1  0.5398160000000  0.3679240000000  0.5184850000000 1.0
C      1  0.5226030000000  0.3833580000000  0.4439100000000 1.0
C      1  0.4824550000000  0.4734990000000  0.6289220000000 1.0
C      1  0.4855110000000  0.6081990000000  0.4118550000000 1.0
C      1  0.4560080000000  0.5149120000000  0.4474620000000 1.0
C      1  0.4272900000000  0.4250230000000  0.5159100000000 1.0
C      1  0.4328030000000  0.4085740000000  0.4915410000000 1.0
C      1  0.5949700000000  0.5701960000000  0.4432590000000 1.0
C      1  0.5817870000000  0.4743460000000  0.5822100000000 1.0
C      1  0.4462730000000  0.4747060000000  0.5984950000000 1.0
C      1  0.4089680000000  0.5073110000000  0.4581590000000 1.0
C      1  0.4778060000000  0.5319480000000  0.4434400000000 1.0
C      1  0.5205260000000  0.4451290000000  0.5088830000000 1.0
C      1  0.5108430000000  0.5530330000000  0.5089980000000 1.0
C      1  0.4966020000000  0.5902250000000  0.5693420000000 1.0
C      1  0.5841200000000  0.5026660000000  0.5856740000000 1.0
C      1  0.5124410000000  0.4492430000000  0.5606770000000 1.0
C      1  0.5954390000000  0.4911380000000  0.4507650000000 1.0
C      1  0.4572480000000  0.4860600000000  0.6236470000000 1.0
C      1  0.4418450000000  0.6303190000000  0.4654600000000 1.0
C      1  0.5667930000000  0.6051620000000  0.4460800000000 1.0
C      1  0.4725610000000  0.5507330000000  0.5488890000000 1.0
C      1  0.3991490000000  0.5535990000000  0.5030610000000 1.0
C      1  0.5969780000000  0.5153800000000  0.5627750000000 1.0
C      1  0.5538920000000  0.4702980000000  0.4466010000000 1.0
C      1  0.3994990000000  0.5059970000000  0.5622430000000 1.0
C      1  0.4724010000000  0.5283580000000  0.5273880000000 1.0
C      1  0.4973440000000  0.5717900000000  0.5922920000000 1.0
C      1  0.4624610000000  0.6197560000000  0.4224430000000 1.0
C      1  0.4700160000000  0.4694270000000  0.4429860000000 1.0
C      1  0.5195740000000  0.5434950000000  0.4325940000000 1.0
C      1  0.5058670000000  0.4883640000000  0.6235120000000 1.0
C      1  0.5263310000000  0.5962290000000  0.4848500000000 1.0
C      1  0.4204670000000  0.6428240000000  0.4243830000000 1.0
C      1  0.3775500000000  0.4984510000000  0.5172160000000 1.0
C      1  0.4414950000000  0.6310330000000  0.4373670000000 1.0
C      1  0.5232810000000  0.5588910000000  0.5923060000000 1.0
C      1  0.5039650000000  0.6335230000000  0.4644020000000 1.0
C      1  0.4553890000000  0.5560340000000  0.5713220000000 1.0
C      1  0.4261280000000  0.5381990000000  0.4194240000000 1.0
C      1  0.5554590000000  0.5395810000000  0.5545300000000 1.0
C      1  0.5200890000000  0.3558140000000  0.5041070000000 1.0
C      1  0.5256830000000  0.5003020000000  0.5011470000000 1.0
C      1  0.4898570000000  0.6138640000000  0.5097850000000 1.0
C      1  0.6028970000000  0.4674190000000  0.5625260000000 1.0
C      1  0.5370460000000  0.5447840000000  0.5065920000000 1.0
C      1  0.4584980000000  0.3928420000000  0.4945040000000 1.0
C      1  0.4209010000000  0.4933240000000  0.4814940000000 1.0
C      1  0.5355750000000  0.5385070000000  0.5761800000000 1.0
C      1  0.4388780000000  0.4775170000000  0.3869130000000 1.0
C      1  0.4628830000000  0.5382000000000  0.6176020000000 1.0
C      1  0.5206350000000  0.5139620000000  0.5790470000000 1.0
C      1  0.4042710000000  0.4920840000000  0.5898050000000 1.0
C      1  0.4601930000000  0.4175910000000  0.5856170000000 1.0
C      1  0.5803310000000  0.4290900000000  0.4560310000000 1.0
C      1  0.3718820000000  0.5057420000000  0.4916930000000 1.0
C      1  0.5674430000000  0.6013710000000  0.5087840000000 1.0
C      1  0.3996260000000  0.4606470000000  0.4143680000000 1.0
C      1  0.4641930000000  0.4791090000000  0.3950860000000 1.0
C      1  0.4243690000000  0.5119590000000  0.6029280000000 1.0
C      1  0.4468180000000  0.6241820000000  0.4909240000000 1.0
C      1  0.4992900000000  0.4620030000000  0.5079300000000 1.0
C      1  0.3990720000000  0.5710980000000  0.5240360000000 1.0
C      1  0.5180050000000  0.4210860000000  0.5658820000000 1.0
C      1  0.5494980000000  0.5504930000000  0.4814800000000 1.0
C      1  0.5859560000000  0.5905190000000  0.4626930000000 1.0
C      1  0.4648750000000  0.4614870000000  0.5348730000000 1.0
C      1  0.4444650000000  0.4151480000000  0.5379190000000 1.0
C      1  0.5761870000000  0.4134430000000  0.4804880000000 1.0
C      1  0.5805070000000  0.4218410000000  0.5565900000000 1.0
C      1  0.5973980000000  0.4552620000000  0.4599720000000 1.0
C      1  0.5121580000000  0.4678090000000  0.4105710000000 1.0
C      1  0.4664990000000  0.3994970000000  0.5242330000000 1.0
C      1  0.4245500000000  0.5750250000000  0.5368680000000 1.0
C      1  0.4452260000000  0.5831350000000  0.5163080000000 1.0
C      1  0.5151120000000  0.5795110000000  0.3925070000000 1.0
C      1  0.5465930000000  0.4424910000000  0.5117090000000 1.0
C      1  0.4484310000000  0.5093690000000  0.5215760000000 1.0
C      1  0.5851440000000  0.5861100000000  0.4915110000000 1.0
C      1  0.4936560000000  0.5078260000000  0.5326830000000 1.0
C      1  0.4197180000000  0.4660910000000  0.5901240000000 1.0
C      1  0.5737950000000  0.5131550000000  0.4071560000000 1.0
C      1  0.4967320000000  0.3586630000000  0.4903660000000 1.0
C      1  0.5195500000000  0.5018650000000  0.6047920000000 1.0
C      1  0.5577500000000  0.5907220000000  0.4217160000000 1.0
C      1  0.4634580000000  0.4448600000000  0.4556220000000 1.0
C      1  0.5405900000000  0.5039600000000  0.5251800000000 1.0
C      1  0.5304250000000  0.4840740000000  0.3929890000000 1.0
C      1  0.5346310000000  0.4991390000000  0.4751180000000 1.0
C      1  0.4732630000000  0.4516700000000  0.5091480000000 1.0
C      1  0.5628060000000  0.4294930000000  0.5783820000000 1.0
C      1  0.6096720000000  0.4924900000000  0.5488190000000 1.0
C      1  0.5245240000000  0.4720370000000  0.4381380000000 1.0
C      1  0.5088520000000  0.5724660000000  0.5278700000000 1.0
C      1  0.3982700000000  0.4519050000000  0.4394380000000 1.0
END
