TITL C-599893-4344-1388 -1.44657749660706e-06 125000 -390.095751377791 0 0 64 (C1) n - 1
REM
REM in /home/nfs/bkarasulu/CARBON/AIRSS/Generating-Clusters/TERSOFF/Only-C1/FIRE-HFTN
REM
REM
REM
REM
REM
REM ./C.cell (11c1c37f851c82e70ff6c80c92926a4b)
REM AIRSS Version 0.9.1 bugfix July 2018 build 013d7b7c2542+ Fri, 06 Jul 2018 19:26:36 +0100
REM compiler GCC version 9.2.1 20190827 (Red Hat 9.2.1-1)
REM options -cpp -mtune=generic -march=x86-64 -g -O0 -fpre-include=/usr/include/finclude/math-vector-fortran.h
REM seed 1311062830 -51172489 -1966352619 -819101156 -2019320621 -357533482 1466440074 -665094679 -226836668 1712144074 1650603130 143446504 132291223 2070684263 -1268987909 42870297 1356927890 992852602 -1392426965 -1546847942 1721258763 761605010 704989046 545463174 1088851297 -422506849 2113879407 -1867203597 2029594154 -182606022 204939584 1567155826 -2098310130
REM
CELL 1.54180   50.00000   50.00000   50.00000   90.00000   90.00000   90.00000
LATT -1
SFAC C  
C      1  0.5702920000000  0.4344080000000  0.4683570000000 1.0
C      1  0.5606120000000  0.4811590000000  0.4780490000000 1.0
C      1  0.5315170000000  0.4231940000000  0.5382600000000 1.0
C      1  0.5895940000000  0.5421710000000  0.4770690000000 1.0
C      1  0.4793540000000  0.4588990000000  0.5678110000000 1.0
C      1  0.5597040000000  0.4264270000000  0.4445970000000 1.0
C      1  0.5225770000000  0.4981580000000  0.4448640000000 1.0
C      1  0.5124960000000  0.5245820000000  0.5034490000000 1.0
C      1  0.5094240000000  0.4318500000000  0.4441260000000 1.0
C      1  0.5084980000000  0.4293420000000  0.4726240000000 1.0
C      1  0.5188510000000  0.4737280000000  0.5519600000000 1.0
C      1  0.4412440000000  0.6036850000000  0.4892290000000 1.0
C      1  0.5047800000000  0.4244770000000  0.5435310000000 1.0
C      1  0.5673890000000  0.5007620000000  0.5470320000000 1.0
C      1  0.5451910000000  0.4902100000000  0.4565670000000 1.0
C      1  0.4777140000000  0.5219680000000  0.4561180000000 1.0
C      1  0.4840250000000  0.5543820000000  0.5268620000000 1.0
C      1  0.4262210000000  0.4875850000000  0.4440560000000 1.0
C      1  0.4631840000000  0.5961190000000  0.5044380000000 1.0
C      1  0.5146600000000  0.4820790000000  0.5260830000000 1.0
C      1  0.4602400000000  0.5192400000000  0.5018720000000 1.0
C      1  0.5422620000000  0.5523480000000  0.4694470000000 1.0
C      1  0.5568450000000  0.4523850000000  0.4885280000000 1.0
C      1  0.4614720000000  0.4688410000000  0.5045470000000 1.0
C      1  0.4874760000000  0.4157390000000  0.4850290000000 1.0
C      1  0.4738980000000  0.4944770000000  0.5057660000000 1.0
C      1  0.4202800000000  0.5389480000000  0.5595160000000 1.0
C      1  0.4222160000000  0.5598720000000  0.4680090000000 1.0
C      1  0.5518220000000  0.4432500000000  0.5396990000000 1.0
C      1  0.5916680000000  0.5185300000000  0.4893980000000 1.0
C      1  0.4862700000000  0.4424530000000  0.4322090000000 1.0
C      1  0.5098430000000  0.5420650000000  0.5262140000000 1.0
C      1  0.4315950000000  0.6310740000000  0.4865950000000 1.0
C      1  0.5741270000000  0.4848530000000  0.5230950000000 1.0
C      1  0.5657650000000  0.4561110000000  0.5180780000000 1.0
C      1  0.5155820000000  0.4896310000000  0.5950160000000 1.0
C      1  0.5583790000000  0.4853020000000  0.5701830000000 1.0
C      1  0.4438890000000  0.4674660000000  0.4529090000000 1.0
C      1  0.4608790000000  0.5372280000000  0.5240890000000 1.0
C      1  0.4984560000000  0.5095800000000  0.4448110000000 1.0
C      1  0.5330350000000  0.5414600000000  0.5424000000000 1.0
C      1  0.5445610000000  0.4629080000000  0.5585220000000 1.0
C      1  0.4315920000000  0.5339380000000  0.4641240000000 1.0
C      1  0.4087050000000  0.6317390000000  0.4709560000000 1.0
C      1  0.5686860000000  0.5562120000000  0.4678700000000 1.0
C      1  0.4464620000000  0.4644300000000  0.4808510000000 1.0
C      1  0.4400590000000  0.5380910000000  0.5425720000000 1.0
C      1  0.5427680000000  0.4948980000000  0.5925380000000 1.0
C      1  0.4626390000000  0.4544780000000  0.4363300000000 1.0
C      1  0.4690080000000  0.4217440000000  0.5035010000000 1.0
C      1  0.4793740000000  0.5809860000000  0.5192640000000 1.0
C      1  0.5282090000000  0.4430870000000  0.4872480000000 1.0
C      1  0.4677330000000  0.4450180000000  0.5198560000000 1.0
C      1  0.5764650000000  0.4964390000000  0.4967090000000 1.0
C      1  0.4570650000000  0.5270940000000  0.4746750000000 1.0
C      1  0.4221760000000  0.5870930000000  0.4733410000000 1.0
C      1  0.5010130000000  0.4762820000000  0.5742520000000 1.0
C      1  0.5019090000000  0.4984970000000  0.5080880000000 1.0
C      1  0.5555900000000  0.5266920000000  0.5451160000000 1.0
C      1  0.4025630000000  0.6059440000000  0.4628380000000 1.0
C      1  0.4812970000000  0.4414740000000  0.5449670000000 1.0
C      1  0.4195900000000  0.5131400000000  0.4493410000000 1.0
C      1  0.5241210000000  0.5367990000000  0.4812550000000 1.0
C      1  0.5350900000000  0.4269830000000  0.4332920000000 1.0
END
