TITL C-599895-9959-842 9.98819163264217 125000 -394.736820251845 0 0 65 (C1) n - 1
REM
REM in /home/nfs/bkarasulu/CARBON/AIRSS/Generating-Clusters/TERSOFF/Only-C1/FIRE-HFTN
REM
REM
REM
REM
REM
REM ./C.cell (11c1c37f851c82e70ff6c80c92926a4b)
REM AIRSS Version 0.9.1 bugfix July 2018 build 013d7b7c2542+ Fri, 06 Jul 2018 19:26:36 +0100
REM compiler GCC version 9.2.1 20190827 (Red Hat 9.2.1-1)
REM options -cpp -mtune=generic -march=x86-64 -g -O0 -fpre-include=/usr/include/finclude/math-vector-fortran.h
REM seed 1387779848 -2121785576 1640638434 -1463856078 478164948 566216808 -170563363 -953416987 -2097239771 1332163619 1900245165 -2038048253 1264384449 1521076389 547676516 -1546316414 -1693014740 47844122 1525090486 1411127852 318446640 -141267875 222936287 -1368144961 -879643443 -1219019407 -1385169736 -61843578 -703915794 1064824712 -1423798098 -2100410637 -1944110202
REM
CELL 1.54180   50.00000   50.00000   50.00000   90.00000   90.00000   90.00000
LATT -1
SFAC C  
C      1  0.5683630000000  0.5192660000000  0.4437540000000 1.0
C      1  0.3616260000000  0.4009390000000  0.5577070000000 1.0
C      1  0.4724820000000  0.4089360000000  0.5461590000000 1.0
C      1  0.6511050000000  0.6312450000000  0.4988180000000 1.0
C      1  0.4533010000000  0.4431720000000  0.4744730000000 1.0
C      1  0.4205890000000  0.4715380000000  0.4982610000000 1.0
C      1  0.5152050000000  0.4576500000000  0.5295130000000 1.0
C      1  0.5073460000000  0.5564710000000  0.4486970000000 1.0
C      1  0.4650890000000  0.5036190000000  0.5387050000000 1.0
C      1  0.4063780000000  0.5333570000000  0.4546070000000 1.0
C      1  0.4952040000000  0.4879970000000  0.4489180000000 1.0
C      1  0.3923810000000  0.4725360000000  0.4937420000000 1.0
C      1  0.5197770000000  0.4725320000000  0.4536650000000 1.0
C      1  0.5035520000000  0.5590780000000  0.5364250000000 1.0
C      1  0.4280970000000  0.4692170000000  0.5252980000000 1.0
C      1  0.4507180000000  0.4775910000000  0.5923760000000 1.0
C      1  0.6862560000000  0.6642930000000  0.5197110000000 1.0
C      1  0.5616880000000  0.4943660000000  0.4368600000000 1.0
C      1  0.4925350000000  0.4149790000000  0.5295650000000 1.0
C      1  0.4775040000000  0.4974560000000  0.4682620000000 1.0
C      1  0.4155940000000  0.4464700000000  0.5395010000000 1.0
C      1  0.4807860000000  0.5574410000000  0.4476760000000 1.0
C      1  0.5245920000000  0.4528510000000  0.4733930000000 1.0
C      1  0.5509580000000  0.5449290000000  0.5200420000000 1.0
C      1  0.4390090000000  0.4672360000000  0.4775760000000 1.0
C      1  0.4855890000000  0.5061940000000  0.4936630000000 1.0
C      1  0.3783420000000  0.4544310000000  0.5103090000000 1.0
C      1  0.4810030000000  0.5491210000000  0.5464180000000 1.0
C      1  0.4290180000000  0.5464640000000  0.4497140000000 1.0
C      1  0.4957530000000  0.4945180000000  0.4207840000000 1.0
C      1  0.4869620000000  0.4994150000000  0.5208200000000 1.0
C      1  0.6333880000000  0.6145880000000  0.4882870000000 1.0
C      1  0.5081010000000  0.4834020000000  0.5300220000000 1.0
C      1  0.6179050000000  0.4707110000000  0.5092520000000 1.0
C      1  0.5914640000000  0.4781270000000  0.5042520000000 1.0
C      1  0.4547760000000  0.5033860000000  0.5987790000000 1.0
C      1  0.5979260000000  0.5812290000000  0.4673490000000 1.0
C      1  0.3891030000000  0.4395480000000  0.5321560000000 1.0
C      1  0.4468530000000  0.4823250000000  0.5429580000000 1.0
C      1  0.4784320000000  0.4340130000000  0.4757550000000 1.0
C      1  0.3745950000000  0.4197220000000  0.5451310000000 1.0
C      1  0.4344850000000  0.4401960000000  0.5606610000000 1.0
C      1  0.6426130000000  0.4638230000000  0.5138660000000 1.0
C      1  0.4666200000000  0.5268980000000  0.5554880000000 1.0
C      1  0.3828840000000  0.4928360000000  0.4771510000000 1.0
C      1  0.5827230000000  0.5040560000000  0.5101280000000 1.0
C      1  0.5734750000000  0.4597320000000  0.4932790000000 1.0
C      1  0.5692490000000  0.5263990000000  0.5148950000000 1.0
C      1  0.4596170000000  0.5242710000000  0.5826000000000 1.0
C      1  0.4465940000000  0.4657460000000  0.5674500000000 1.0
C      1  0.4506480000000  0.4174050000000  0.5591350000000 1.0
C      1  0.5038280000000  0.4384260000000  0.4869860000000 1.0
C      1  0.5383850000000  0.4799120000000  0.4316660000000 1.0
C      1  0.5336150000000  0.5525370000000  0.4497000000000 1.0
C      1  0.3894550000000  0.5148660000000  0.4636080000000 1.0
C      1  0.4543750000000  0.5542690000000  0.4477310000000 1.0
C      1  0.6688270000000  0.6479060000000  0.5093510000000 1.0
C      1  0.5283530000000  0.5569150000000  0.5271340000000 1.0
C      1  0.4506630000000  0.4897420000000  0.4656070000000 1.0
C      1  0.5206520000000  0.4886070000000  0.4103290000000 1.0
C      1  0.5510030000000  0.4504450000000  0.4826540000000 1.0
C      1  0.5607720000000  0.5454530000000  0.4503240000000 1.0
C      1  0.5061190000000  0.4350320000000  0.5154200000000 1.0
C      1  0.5800290000000  0.5642410000000  0.4577230000000 1.0
C      1  0.6156700000000  0.5979300000000  0.4777590000000 1.0
END
