TITL C-599893-4344-606 -0.0383781750445384 125000 -643.782671231224 0 0 108 (C1) n - 1
REM
REM in /home/nfs/bkarasulu/CARBON/AIRSS/Generating-Clusters/TERSOFF/Only-C1/FIRE-HFTN
REM
REM
REM
REM
REM
REM ./C.cell (11c1c37f851c82e70ff6c80c92926a4b)
REM AIRSS Version 0.9.1 bugfix July 2018 build 013d7b7c2542+ Fri, 06 Jul 2018 19:26:36 +0100
REM compiler GCC version 9.2.1 20190827 (Red Hat 9.2.1-1)
REM options -cpp -mtune=generic -march=x86-64 -g -O0 -fpre-include=/usr/include/finclude/math-vector-fortran.h
REM seed 708012332 798779549 1868507621 414881657 -830802707 376351958 1448005163 -1784344039 -736924004 188338541 -278037082 -1160618918 110338796 488077904 1031059237 814030428 473354021 -2114250620 -1178850566 -845743922 889699730 1915520274 -198889901 -2031963491 -432600532 -243140875 1741856803 -1558250837 -1949987432 479669545 453764628 1478893980 85258598
REM
CELL 1.54180   50.00000   50.00000   50.00000   90.00000   90.00000   90.00000
LATT -1
SFAC C  
C      1  0.5587450000000  0.4588310000000  0.5534790000000 1.0
C      1  0.5577860000000  0.5858390000000  0.5105410000000 1.0
C      1  0.4836070000000  0.4435150000000  0.4390100000000 1.0
C      1  0.4619570000000  0.5093050000000  0.5337010000000 1.0
C      1  0.5607860000000  0.5157020000000  0.5803030000000 1.0
C      1  0.4867990000000  0.4198180000000  0.5550140000000 1.0
C      1  0.4285690000000  0.4252680000000  0.4446710000000 1.0
C      1  0.5099490000000  0.5834160000000  0.4528270000000 1.0
C      1  0.5328360000000  0.5970800000000  0.5012430000000 1.0
C      1  0.5052920000000  0.5370650000000  0.4896440000000 1.0
C      1  0.5364820000000  0.4199750000000  0.5051830000000 1.0
C      1  0.4860690000000  0.4976490000000  0.5197050000000 1.0
C      1  0.5750930000000  0.4443530000000  0.4888470000000 1.0
C      1  0.4880100000000  0.5444800000000  0.6333230000000 1.0
C      1  0.5163490000000  0.6035720000000  0.5237850000000 1.0
C      1  0.4706550000000  0.4860390000000  0.3931440000000 1.0
C      1  0.6143670000000  0.5003630000000  0.5276620000000 1.0
C      1  0.4670810000000  0.5548850000000  0.5138820000000 1.0
C      1  0.5569260000000  0.5655660000000  0.5304510000000 1.0
C      1  0.5922060000000  0.5348530000000  0.5462860000000 1.0
C      1  0.4442600000000  0.3863320000000  0.5181870000000 1.0
C      1  0.5684570000000  0.4563920000000  0.4641270000000 1.0
C      1  0.4677340000000  0.5652420000000  0.4664920000000 1.0
C      1  0.5173300000000  0.5164150000000  0.5576440000000 1.0
C      1  0.4974110000000  0.5259240000000  0.4115790000000 1.0
C      1  0.4743850000000  0.4229810000000  0.5277420000000 1.0
C      1  0.5546670000000  0.5026450000000  0.6072130000000 1.0
C      1  0.5150010000000  0.5979190000000  0.5502640000000 1.0
C      1  0.4929260000000  0.4108830000000  0.4702320000000 1.0
C      1  0.4534510000000  0.5303210000000  0.5164680000000 1.0
C      1  0.4208910000000  0.4453610000000  0.4259790000000 1.0
C      1  0.5473820000000  0.4580830000000  0.4447410000000 1.0
C      1  0.4483400000000  0.4668480000000  0.4671780000000 1.0
C      1  0.4350090000000  0.4759550000000  0.4913050000000 1.0
C      1  0.4362070000000  0.4493520000000  0.4025150000000 1.0
C      1  0.4531990000000  0.4659300000000  0.3901260000000 1.0
C      1  0.5248540000000  0.5224300000000  0.4074400000000 1.0
C      1  0.4511620000000  0.4752260000000  0.5672170000000 1.0
C      1  0.5855950000000  0.4562510000000  0.5122210000000 1.0
C      1  0.4872140000000  0.5679970000000  0.4440950000000 1.0
C      1  0.4371090000000  0.5625350000000  0.4673110000000 1.0
C      1  0.3883730000000  0.5672420000000  0.4268920000000 1.0
C      1  0.4465320000000  0.4858180000000  0.5412840000000 1.0
C      1  0.3915990000000  0.5181940000000  0.4311840000000 1.0
C      1  0.4464940000000  0.5195570000000  0.4909670000000 1.0
C      1  0.5773770000000  0.5463140000000  0.4798530000000 1.0
C      1  0.5232150000000  0.5936280000000  0.4744410000000 1.0
C      1  0.3967350000000  0.5445520000000  0.4406090000000 1.0
C      1  0.5867720000000  0.5105560000000  0.5633650000000 1.0
C      1  0.5854720000000  0.5265500000000  0.4985490000000 1.0
C      1  0.5539760000000  0.5414540000000  0.4637960000000 1.0
C      1  0.5394840000000  0.5012730000000  0.5638800000000 1.0
C      1  0.5448800000000  0.5103870000000  0.4232740000000 1.0
C      1  0.5669920000000  0.5047690000000  0.4978860000000 1.0
C      1  0.4781970000000  0.4371820000000  0.5756860000000 1.0
C      1  0.4797690000000  0.4695740000000  0.5133510000000 1.0
C      1  0.5041550000000  0.4285320000000  0.4507950000000 1.0
C      1  0.5432990000000  0.4130040000000  0.4270580000000 1.0
C      1  0.4761930000000  0.5074180000000  0.5975790000000 1.0
C      1  0.4744930000000  0.4835570000000  0.5834560000000 1.0
C      1  0.4493010000000  0.4697990000000  0.5160400000000 1.0
C      1  0.5310200000000  0.5300930000000  0.4779250000000 1.0
C      1  0.5575270000000  0.5473600000000  0.5756640000000 1.0
C      1  0.5370990000000  0.5657970000000  0.5823810000000 1.0
C      1  0.5185000000000  0.4322560000000  0.5222080000000 1.0
C      1  0.4826790000000  0.5080670000000  0.4606670000000 1.0
C      1  0.5450470000000  0.4824850000000  0.4298590000000 1.0
C      1  0.4447760000000  0.5270830000000  0.4411170000000 1.0
C      1  0.4662050000000  0.4086660000000  0.4808620000000 1.0
C      1  0.5381220000000  0.4728500000000  0.5662640000000 1.0
C      1  0.4509480000000  0.4468660000000  0.5722770000000 1.0
C      1  0.4824310000000  0.5490200000000  0.4218910000000 1.0
C      1  0.4837450000000  0.5003120000000  0.4134110000000 1.0
C      1  0.5605340000000  0.4208260000000  0.4939040000000 1.0
C      1  0.5029440000000  0.5194880000000  0.5129620000000 1.0
C      1  0.5261190000000  0.4810690000000  0.4864090000000 1.0
C      1  0.4939610000000  0.4609670000000  0.5858220000000 1.0
C      1  0.4229310000000  0.5029690000000  0.4904830000000 1.0
C      1  0.4582520000000  0.5205010000000  0.4655520000000 1.0
C      1  0.4819460000000  0.4897790000000  0.4398080000000 1.0
C      1  0.4613340000000  0.4057860000000  0.5092100000000 1.0
C      1  0.4954270000000  0.5600800000000  0.6528480000000 1.0
C      1  0.4038570000000  0.5229300000000  0.4827130000000 1.0
C      1  0.4692720000000  0.4657630000000  0.4473700000000 1.0
C      1  0.5551200000000  0.3934590000000  0.4145160000000 1.0
C      1  0.5317970000000  0.5529400000000  0.5304950000000 1.0
C      1  0.5407620000000  0.5039440000000  0.4876250000000 1.0
C      1  0.5193600000000  0.5873690000000  0.5764440000000 1.0
C      1  0.4922350000000  0.4441500000000  0.5160090000000 1.0
C      1  0.5310710000000  0.4338740000000  0.4415130000000 1.0
C      1  0.5357450000000  0.4822120000000  0.6108170000000 1.0
C      1  0.3815280000000  0.5888340000000  0.4140040000000 1.0
C      1  0.4111050000000  0.5462010000000  0.4657280000000 1.0
C      1  0.4544130000000  0.5424550000000  0.4208540000000 1.0
C      1  0.3936350000000  0.4914500000000  0.4306230000000 1.0
C      1  0.5056790000000  0.5988920000000  0.5972970000000 1.0
C      1  0.4442270000000  0.4130830000000  0.4630030000000 1.0
C      1  0.4810930000000  0.5273640000000  0.6143050000000 1.0
C      1  0.4024140000000  0.4661210000000  0.4316300000000 1.0
C      1  0.6031220000000  0.5262950000000  0.5206590000000 1.0
C      1  0.5148490000000  0.4200480000000  0.5482510000000 1.0
C      1  0.5730610000000  0.5550160000000  0.5514620000000 1.0
C      1  0.5152650000000  0.5315370000000  0.5349790000000 1.0
C      1  0.4829760000000  0.5566910000000  0.4900680000000 1.0
C      1  0.5219280000000  0.4667900000000  0.5897480000000 1.0
C      1  0.5976100000000  0.4875760000000  0.5479480000000 1.0
C      1  0.5821090000000  0.4653690000000  0.5389310000000 1.0
C      1  0.5587700000000  0.5293580000000  0.4387570000000 1.0
END
