TITL C-599894-471-627 1.86455489187673 125000 -225.529997362712 0 0 38 (C1) n - 1
REM
REM in /home/nfs/bkarasulu/CARBON/AIRSS/Generating-Clusters/TERSOFF/Only-C1/FIRE-HFTN
REM
REM
REM
REM
REM
REM ./C.cell (11c1c37f851c82e70ff6c80c92926a4b)
REM AIRSS Version 0.9.1 bugfix July 2018 build 013d7b7c2542+ Fri, 06 Jul 2018 19:26:36 +0100
REM compiler GCC version 9.2.1 20190827 (Red Hat 9.2.1-1)
REM options -cpp -mtune=generic -march=x86-64 -g -O0 -fpre-include=/usr/include/finclude/math-vector-fortran.h
REM seed -727726528 1725629969 -310484090 655215561 1352699055 -1822407409 -630293799 149103077 868455672 -1303630157 2134672908 2112416952 -1544377647 874905957 350065047 -1513385111 -928553045 2135753821 1627951128 1167195034 -1770627192 -506349485 -1390707574 -1423561089 2033155601 1722772107 1075456752 813616547 1867113726 -1252923407 1663011655 -1855846666 288470963
REM
CELL 1.54180   50.00000   50.00000   50.00000   90.00000   90.00000   90.00000
LATT -1
SFAC C  
C      1  0.4728030000000  0.5048560000000  0.4087650000000 1.0
C      1  0.5188190000000  0.5148420000000  0.5336230000000 1.0
C      1  0.4810160000000  0.5149610000000  0.5640950000000 1.0
C      1  0.4368440000000  0.5433050000000  0.5145560000000 1.0
C      1  0.4487180000000  0.4549300000000  0.4361770000000 1.0
C      1  0.5464420000000  0.5134170000000  0.5266420000000 1.0
C      1  0.4744640000000  0.5241860000000  0.4510930000000 1.0
C      1  0.5652740000000  0.5002520000000  0.5424090000000 1.0
C      1  0.5411400000000  0.4517660000000  0.6073240000000 1.0
C      1  0.4410540000000  0.5371320000000  0.5402080000000 1.0
C      1  0.5068420000000  0.5056590000000  0.5578200000000 1.0
C      1  0.4968460000000  0.5409730000000  0.3838490000000 1.0
C      1  0.5153900000000  0.5507300000000  0.4435200000000 1.0
C      1  0.5847970000000  0.4888480000000  0.5553780000000 1.0
C      1  0.5768190000000  0.3993260000000  0.6545470000000 1.0
C      1  0.4475230000000  0.5408600000000  0.4901250000000 1.0
C      1  0.4676210000000  0.4995590000000  0.4372320000000 1.0
C      1  0.4646090000000  0.4740750000000  0.4495580000000 1.0
C      1  0.4880150000000  0.5293250000000  0.4067230000000 1.0
C      1  0.5194000000000  0.4872900000000  0.5746020000000 1.0
C      1  0.4695210000000  0.5282270000000  0.4782820000000 1.0
C      1  0.5530600000000  0.4341850000000  0.6231680000000 1.0
C      1  0.4870820000000  0.5139490000000  0.4957970000000 1.0
C      1  0.4860360000000  0.4403500000000  0.4772800000000 1.0
C      1  0.5295970000000  0.4694240000000  0.5912900000000 1.0
C      1  0.5650380000000  0.4166110000000  0.6389880000000 1.0
C      1  0.4488660000000  0.4651810000000  0.3889110000000 1.0
C      1  0.5365470000000  0.5490390000000  0.4596220000000 1.0
C      1  0.4423250000000  0.4503000000000  0.4104390000000 1.0
C      1  0.4576480000000  0.5262500000000  0.5580410000000 1.0
C      1  0.4882620000000  0.4864320000000  0.4907510000000 1.0
C      1  0.4796640000000  0.4665890000000  0.4727440000000 1.0
C      1  0.5506450000000  0.5391690000000  0.4799390000000 1.0
C      1  0.4919800000000  0.5393350000000  0.4336490000000 1.0
C      1  0.5544790000000  0.5260890000000  0.5028110000000 1.0
C      1  0.4624700000000  0.4884160000000  0.3886890000000 1.0
C      1  0.5005000000000  0.5557830000000  0.5162480000000 1.0
C      1  0.5018420000000  0.5283790000000  0.5151050000000 1.0
END
