TITL C-599894-471-6 6.07913008828556e-06 125000 -464.595547526742 0 0 77 (C1) n - 1
REM
REM in /home/nfs/bkarasulu/CARBON/AIRSS/Generating-Clusters/TERSOFF/Only-C1/FIRE-HFTN
REM
REM
REM
REM
REM
REM ./C.cell (11c1c37f851c82e70ff6c80c92926a4b)
REM AIRSS Version 0.9.1 bugfix July 2018 build 013d7b7c2542+ Fri, 06 Jul 2018 19:26:36 +0100
REM compiler GCC version 9.2.1 20190827 (Red Hat 9.2.1-1)
REM options -cpp -mtune=generic -march=x86-64 -g -O0 -fpre-include=/usr/include/finclude/math-vector-fortran.h
REM seed -1788838871 550074880 -124516132 303103032 1276258702 -1404611387 1531440204 424258645 -1141999554 -258288457 711166622 -44785904 1128580574 -292636870 683397169 917817957 560654112 -935156932 -1314245259 -1635209068 343152952 -63723472 -1737683881 1815605212 -1548085047 -97332712 424791090 -962001542 -54679659 1017519126 -314271049 -1473139366 -632679178
REM
CELL 1.54180   50.00000   50.00000   50.00000   90.00000   90.00000   90.00000
LATT -1
SFAC C  
C      1  0.5488620000000  0.4663120000000  0.5617300000000 1.0
C      1  0.5513480000000  0.5694510000000  0.4983920000000 1.0
C      1  0.4514780000000  0.4434670000000  0.5158610000000 1.0
C      1  0.5330850000000  0.4330550000000  0.5203550000000 1.0
C      1  0.4159680000000  0.4865640000000  0.5335990000000 1.0
C      1  0.5176300000000  0.4757560000000  0.5144970000000 1.0
C      1  0.5457620000000  0.4740290000000  0.5049850000000 1.0
C      1  0.4552750000000  0.4795210000000  0.4812180000000 1.0
C      1  0.4916250000000  0.5192280000000  0.5589440000000 1.0
C      1  0.5118140000000  0.5097460000000  0.4151960000000 1.0
C      1  0.5084380000000  0.4307490000000  0.4674840000000 1.0
C      1  0.4973190000000  0.5955110000000  0.4858970000000 1.0
C      1  0.4822880000000  0.4567490000000  0.5506310000000 1.0
C      1  0.5569650000000  0.4403800000000  0.4607910000000 1.0
C      1  0.5296130000000  0.5281690000000  0.4294900000000 1.0
C      1  0.4969430000000  0.4686670000000  0.4318090000000 1.0
C      1  0.5030490000000  0.4760060000000  0.5401330000000 1.0
C      1  0.5467370000000  0.5868410000000  0.4535850000000 1.0
C      1  0.4790710000000  0.5470420000000  0.5605150000000 1.0
C      1  0.5118740000000  0.4981430000000  0.5571720000000 1.0
C      1  0.4386860000000  0.5600980000000  0.4533750000000 1.0
C      1  0.4549050000000  0.4531500000000  0.5424740000000 1.0
C      1  0.5504790000000  0.5130290000000  0.4424920000000 1.0
C      1  0.4314510000000  0.5686660000000  0.4786590000000 1.0
C      1  0.4381870000000  0.5342790000000  0.5326750000000 1.0
C      1  0.4798690000000  0.5403380000000  0.5083950000000 1.0
C      1  0.4835830000000  0.5432620000000  0.4353050000000 1.0
C      1  0.4728830000000  0.4876400000000  0.4278660000000 1.0
C      1  0.4998980000000  0.4719290000000  0.4934060000000 1.0
C      1  0.4674090000000  0.5633290000000  0.4488160000000 1.0
C      1  0.4166310000000  0.4801770000000  0.5053130000000 1.0
C      1  0.5558580000000  0.4466430000000  0.5081700000000 1.0
C      1  0.5347530000000  0.4420820000000  0.5489030000000 1.0
C      1  0.5537500000000  0.5192510000000  0.5620970000000 1.0
C      1  0.4755250000000  0.5823560000000  0.4724370000000 1.0
C      1  0.4981860000000  0.5366260000000  0.4867690000000 1.0
C      1  0.5546240000000  0.4682030000000  0.4566710000000 1.0
C      1  0.4601300000000  0.4458870000000  0.4448550000000 1.0
C      1  0.5201160000000  0.4822510000000  0.4220920000000 1.0
C      1  0.4814480000000  0.4876380000000  0.4809550000000 1.0
C      1  0.5732290000000  0.5521060000000  0.4993130000000 1.0
C      1  0.5120560000000  0.5463420000000  0.4424610000000 1.0
C      1  0.4695910000000  0.5054950000000  0.5462280000000 1.0
C      1  0.4292000000000  0.4649080000000  0.5495860000000 1.0
C      1  0.5494720000000  0.5453620000000  0.5568790000000 1.0
C      1  0.4543960000000  0.5778790000000  0.4934590000000 1.0
C      1  0.4624160000000  0.5188790000000  0.5211120000000 1.0
C      1  0.4240420000000  0.5120980000000  0.5457380000000 1.0
C      1  0.5127720000000  0.4269490000000  0.4979740000000 1.0
C      1  0.5455260000000  0.4841710000000  0.4350580000000 1.0
C      1  0.4551330000000  0.5573340000000  0.5426320000000 1.0
C      1  0.4922410000000  0.4363170000000  0.5678850000000 1.0
C      1  0.4355170000000  0.4853490000000  0.4602510000000 1.0
C      1  0.4893680000000  0.4452270000000  0.4488860000000 1.0
C      1  0.5398510000000  0.4946740000000  0.5619330000000 1.0
C      1  0.5390700000000  0.5667030000000  0.5441750000000 1.0
C      1  0.5608780000000  0.5118750000000  0.4697870000000 1.0
C      1  0.5127530000000  0.5942290000000  0.5085600000000 1.0
C      1  0.4827230000000  0.5152320000000  0.4224970000000 1.0
C      1  0.4551540000000  0.4177620000000  0.5080140000000 1.0
C      1  0.5189960000000  0.4282680000000  0.5689990000000 1.0
C      1  0.5338100000000  0.4254190000000  0.4542940000000 1.0
C      1  0.4463010000000  0.5028710000000  0.5635670000000 1.0
C      1  0.4491270000000  0.4733580000000  0.4379450000000 1.0
C      1  0.4659250000000  0.5656090000000  0.5163140000000 1.0
C      1  0.5638400000000  0.4576220000000  0.5848340000000 1.0
C      1  0.4909360000000  0.5124730000000  0.4741470000000 1.0
C      1  0.4117330000000  0.4897170000000  0.4774550000000 1.0
C      1  0.5554320000000  0.4857050000000  0.4807290000000 1.0
C      1  0.5347960000000  0.5792510000000  0.5193080000000 1.0
C      1  0.5556860000000  0.4360740000000  0.5995120000000 1.0
C      1  0.5687560000000  0.4346350000000  0.4861100000000 1.0
C      1  0.5337680000000  0.4215320000000  0.5922470000000 1.0
C      1  0.5760810000000  0.5300440000000  0.4843550000000 1.0
C      1  0.5382220000000  0.5699920000000  0.4734010000000 1.0
C      1  0.5164130000000  0.5521380000000  0.4699670000000 1.0
C      1  0.4412720000000  0.4641820000000  0.5003780000000 1.0
END
