TITL C-599894-471-111 10125.9968170855 125000 -1117.60976746605 0 0 181 (C1) n - 1
REM
REM in /home/nfs/bkarasulu/CARBON/AIRSS/Generating-Clusters/TERSOFF/Only-C1/FIRE-HFTN
REM
REM
REM
REM
REM
REM ./C.cell (11c1c37f851c82e70ff6c80c92926a4b)
REM AIRSS Version 0.9.1 bugfix July 2018 build 013d7b7c2542+ Fri, 06 Jul 2018 19:26:36 +0100
REM compiler GCC version 9.2.1 20190827 (Red Hat 9.2.1-1)
REM options -cpp -mtune=generic -march=x86-64 -g -O0 -fpre-include=/usr/include/finclude/math-vector-fortran.h
REM seed 2023755300 54454968 1555720887 872145032 1973380823 884215119 1664811149 2076229091 233597779 -594958419 1858509276 1814645850 1631962543 -1432197219 -492001581 433195586 -130912791 -496444093 -329540286 -1436206191 -1051796064 121953453 -1554283290 -1605503454 -298510430 197773851 524242655 -1371676927 -645772563 330092293 -682967851 1365239276 1025827982
REM
CELL 1.54180   50.00000   50.00000   50.00000   90.00000   90.00000   90.00000
LATT -1
SFAC C  
C      1  0.4096690000000  0.5042400000000  0.4939990000000 1.0
C      1  0.4522230000000  0.4074020000000  0.4945360000000 1.0
C      1  0.5290240000000  0.4010420000000  0.4041180000000 1.0
C      1  0.4487530000000  0.5257850000000  0.5226100000000 1.0
C      1  0.4322040000000  0.6624540000000  0.4759310000000 1.0
C      1  0.5051760000000  0.4688800000000  0.5690580000000 1.0
C      1  0.4371110000000  0.5049160000000  0.5062820000000 1.0
C      1  0.5401720000000  0.4383330000000  0.5064230000000 1.0
C      1  0.5281220000000  0.5013030000000  0.5170810000000 1.0
C      1  0.5431620000000  0.5681640000000  0.4940460000000 1.0
C      1  0.5791440000000  0.5235140000000  0.4140040000000 1.0
C      1  0.5389150000000  0.4681750000000  0.6243080000000 1.0
C      1  0.4707830000000  0.4736500000000  0.5170650000000 1.0
C      1  0.6247590000000  0.4783740000000  0.5624840000000 1.0
C      1  0.5424520000000  0.4965590000000  0.4410630000000 1.0
C      1  0.5387640000000  0.5734290000000  0.4666750000000 1.0
C      1  0.5667320000000  0.6116590000000  0.5278370000000 1.0
C      1  0.4926640000000  0.4569180000000  0.4686710000000 1.0
C      1  0.5150960000000  0.3863090000000  0.4859340000000 1.0
C      1  0.4918680000000  0.4308070000000  0.4810460000000 1.0
C      1  0.4610320000000  0.5928220000000  0.5449690000000 1.0
C      1  0.5528250000000  0.4049470000000  0.3929980000000 1.0
C      1  0.4491450000000  0.4032770000000  0.4656880000000 1.0
C      1  0.5332780000000  0.3913030000000  0.5069860000000 1.0
C      1  0.4644580000000  0.4391380000000  0.4049910000000 1.0
C      1  0.4578120000000  0.5162730000000  0.5975060000000 1.0
C      1  0.5653440000000  0.6178190000000  0.4739390000000 1.0
C      1  0.3956410000000  0.4581780000000  0.4216910000000 1.0
C      1  0.4073090000000  0.5354530000000  0.5535270000000 1.0
C      1  0.4275170000000  0.4128050000000  0.5081650000000 1.0
C      1  0.4421260000000  0.5971240000000  0.5650760000000 1.0
C      1  0.4731470000000  0.5281790000000  0.3841030000000 1.0
C      1  0.5666100000000  0.4364240000000  0.5900970000000 1.0
C      1  0.5103830000000  0.5625220000000  0.5331990000000 1.0
C      1  0.5692200000000  0.5589350000000  0.5018890000000 1.0
C      1  0.4216370000000  0.4803610000000  0.5514500000000 1.0
C      1  0.4761390000000  0.5461730000000  0.4894270000000 1.0
C      1  0.4469030000000  0.4655540000000  0.4769030000000 1.0
C      1  0.4251380000000  0.5910700000000  0.4709340000000 1.0
C      1  0.5617820000000  0.4692580000000  0.5290860000000 1.0
C      1  0.5075920000000  0.5330570000000  0.5997970000000 1.0
C      1  0.4827770000000  0.5114730000000  0.4370780000000 1.0
C      1  0.5770510000000  0.5766620000000  0.5645150000000 1.0
C      1  0.4690210000000  0.4461310000000  0.5234630000000 1.0
C      1  0.4085960000000  0.4571890000000  0.5372130000000 1.0
C      1  0.4325650000000  0.5436890000000  0.4680640000000 1.0
C      1  0.5642900000000  0.4479260000000  0.5471930000000 1.0
C      1  0.4924000000000  0.4198250000000  0.3702560000000 1.0
C      1  0.4148430000000  0.4346320000000  0.4944880000000 1.0
C      1  0.5957610000000  0.4888120000000  0.4501840000000 1.0
C      1  0.6335470000000  0.5035570000000  0.5622530000000 1.0
C      1  0.4893130000000  0.6320710000000  0.5459380000000 1.0
C      1  0.5452250000000  0.5839430000000  0.4410630000000 1.0
C      1  0.4923950000000  0.5511040000000  0.3935960000000 1.0
C      1  0.3940280000000  0.5102090000000  0.5194180000000 1.0
C      1  0.4398850000000  0.6117940000000  0.4588000000000 1.0
C      1  0.4199340000000  0.5656220000000  0.4820440000000 1.0
C      1  0.4241840000000  0.5496450000000  0.6165670000000 1.0
C      1  0.5042260000000  0.5421350000000  0.4892480000000 1.0
C      1  0.5973070000000  0.4725570000000  0.4721260000000 1.0
C      1  0.5298770000000  0.4800840000000  0.5786580000000 1.0
C      1  0.5711300000000  0.5502830000000  0.4189860000000 1.0
C      1  0.5628840000000  0.4555990000000  0.5030490000000 1.0
C      1  0.5718420000000  0.5584110000000  0.5868340000000 1.0
C      1  0.4730580000000  0.4262350000000  0.5023420000000 1.0
C      1  0.4588040000000  0.6068440000000  0.4384960000000 1.0
C      1  0.5020810000000  0.5009050000000  0.4204030000000 1.0
C      1  0.4029840000000  0.4566020000000  0.5083970000000 1.0
C      1  0.4413950000000  0.4357250000000  0.4234560000000 1.0
C      1  0.4215850000000  0.4216560000000  0.5999730000000 1.0
C      1  0.6200120000000  0.5529110000000  0.5526060000000 1.0
C      1  0.4526170000000  0.5245330000000  0.5503000000000 1.0
C      1  0.6076070000000  0.4583870000000  0.5523080000000 1.0
C      1  0.4793570000000  0.5385890000000  0.4443190000000 1.0
C      1  0.5211270000000  0.4584680000000  0.3640100000000 1.0
C      1  0.5043230000000  0.4076540000000  0.4699550000000 1.0
C      1  0.5183830000000  0.4122000000000  0.5809750000000 1.0
C      1  0.5205950000000  0.4882890000000  0.6244160000000 1.0
C      1  0.4627530000000  0.4941670000000  0.4462580000000 1.0
C      1  0.5452520000000  0.5641550000000  0.4187220000000 1.0
C      1  0.4368580000000  0.4783520000000  0.4008240000000 1.0
C      1  0.4108490000000  0.4311210000000  0.5503190000000 1.0
C      1  0.4701350000000  0.4176410000000  0.5636100000000 1.0
C      1  0.5818480000000  0.4424550000000  0.3724470000000 1.0
C      1  0.4987140000000  0.4073140000000  0.6016430000000 1.0
C      1  0.5087020000000  0.4785480000000  0.3789440000000 1.0
C      1  0.4281570000000  0.5909650000000  0.5868500000000 1.0
C      1  0.5448940000000  0.4128350000000  0.5202550000000 1.0
C      1  0.5328770000000  0.5967590000000  0.5585740000000 1.0
C      1  0.5562630000000  0.4979150000000  0.5277630000000 1.0
C      1  0.5231500000000  0.5553700000000  0.6090950000000 1.0
C      1  0.5534380000000  0.4964480000000  0.5783370000000 1.0
C      1  0.5513140000000  0.5518440000000  0.6084370000000 1.0
C      1  0.4353590000000  0.5043400000000  0.4413200000000 1.0
C      1  0.5704340000000  0.5099750000000  0.5974400000000 1.0
C      1  0.4466790000000  0.4152130000000  0.6071780000000 1.0
C      1  0.4263930000000  0.4105880000000  0.5365220000000 1.0
C      1  0.4072660000000  0.4278790000000  0.5781140000000 1.0
C      1  0.4772030000000  0.4955410000000  0.6012280000000 1.0
C      1  0.5564160000000  0.4508870000000  0.6127630000000 1.0
C      1  0.5887240000000  0.5690060000000  0.5190340000000 1.0
C      1  0.5011110000000  0.4043340000000  0.4423730000000 1.0
C      1  0.4686600000000  0.4698880000000  0.4594060000000 1.0
C      1  0.5193320000000  0.5593920000000  0.5064820000000 1.0
C      1  0.4614800000000  0.5443130000000  0.4654310000000 1.0
C      1  0.5040160000000  0.4081330000000  0.4150370000000 1.0
C      1  0.5839190000000  0.4488820000000  0.5681780000000 1.0
C      1  0.4067870000000  0.5073560000000  0.5460010000000 1.0
C      1  0.4712000000000  0.4123530000000  0.5938110000000 1.0
C      1  0.4778920000000  0.4766980000000  0.5792810000000 1.0
C      1  0.5602290000000  0.5973410000000  0.5523940000000 1.0
C      1  0.5525730000000  0.4209130000000  0.5468300000000 1.0
C      1  0.5114690000000  0.5782050000000  0.6184030000000 1.0
C      1  0.4985170000000  0.5575090000000  0.4402660000000 1.0
C      1  0.5192780000000  0.5212740000000  0.4758270000000 1.0
C      1  0.4605670000000  0.5492680000000  0.5121480000000 1.0
C      1  0.3802380000000  0.4732070000000  0.4670710000000 1.0
C      1  0.4493780000000  0.3994580000000  0.5505790000000 1.0
C      1  0.5971940000000  0.5676260000000  0.5458200000000 1.0
C      1  0.5632570000000  0.5128560000000  0.3926680000000 1.0
C      1  0.6071280000000  0.4559570000000  0.5220690000000 1.0
C      1  0.4387430000000  0.4254690000000  0.4501930000000 1.0
C      1  0.6253540000000  0.5122750000000  0.4207430000000 1.0
C      1  0.5463870000000  0.4172970000000  0.5760050000000 1.0
C      1  0.4351520000000  0.5054080000000  0.4115720000000 1.0
C      1  0.4715870000000  0.5708890000000  0.4038900000000 1.0
C      1  0.4571760000000  0.5738090000000  0.5249410000000 1.0
C      1  0.5009670000000  0.4216810000000  0.5588790000000 1.0
C      1  0.5412260000000  0.5186740000000  0.4572360000000 1.0
C      1  0.5092400000000  0.5877630000000  0.5464980000000 1.0
C      1  0.4941840000000  0.5369400000000  0.5741500000000 1.0
C      1  0.5584370000000  0.5251510000000  0.6187850000000 1.0
C      1  0.5240320000000  0.5480770000000  0.4005820000000 1.0
C      1  0.5748400000000  0.5329400000000  0.4921710000000 1.0
C      1  0.4224350000000  0.4566860000000  0.4143870000000 1.0
C      1  0.3795180000000  0.4652760000000  0.4416650000000 1.0
C      1  0.4357680000000  0.6381030000000  0.4673550000000 1.0
C      1  0.5183410000000  0.4497000000000  0.5225040000000 1.0
C      1  0.5737370000000  0.4934950000000  0.3755860000000 1.0
C      1  0.5204790000000  0.4968820000000  0.4905210000000 1.0
C      1  0.6323710000000  0.5297960000000  0.5576260000000 1.0
C      1  0.5024870000000  0.5062680000000  0.6115220000000 1.0
C      1  0.5110720000000  0.4343630000000  0.3573030000000 1.0
C      1  0.5071800000000  0.3605210000000  0.4809700000000 1.0
C      1  0.5659080000000  0.5282910000000  0.4663250000000 1.0
C      1  0.4740530000000  0.5065090000000  0.3663360000000 1.0
C      1  0.5545390000000  0.5109520000000  0.5540910000000 1.0
C      1  0.4378600000000  0.5268940000000  0.6135660000000 1.0
C      1  0.5132720000000  0.4737200000000  0.4771510000000 1.0
C      1  0.5352970000000  0.5205040000000  0.3929660000000 1.0
C      1  0.4210320000000  0.5739750000000  0.6060860000000 1.0
C      1  0.5108060000000  0.5369040000000  0.5492390000000 1.0
C      1  0.5861550000000  0.5318960000000  0.5850810000000 1.0
C      1  0.4457740000000  0.5568560000000  0.4051910000000 1.0
C      1  0.4607560000000  0.4437580000000  0.5509950000000 1.0
C      1  0.4209840000000  0.5182490000000  0.4625760000000 1.0
C      1  0.4296210000000  0.4438710000000  0.4712050000000 1.0
C      1  0.5758260000000  0.5120660000000  0.5106420000000 1.0
C      1  0.5817810000000  0.4688830000000  0.3696550000000 1.0
C      1  0.5175270000000  0.4984360000000  0.3971220000000 1.0
C      1  0.4866230000000  0.6048580000000  0.5461000000000 1.0
C      1  0.5590160000000  0.6084750000000  0.4487250000000 1.0
C      1  0.5402270000000  0.5349650000000  0.5549970000000 1.0
C      1  0.4802630000000  0.4804240000000  0.3752940000000 1.0
C      1  0.4618180000000  0.4656310000000  0.3912660000000 1.0
C      1  0.4846630000000  0.4936720000000  0.5308290000000 1.0
C      1  0.5669780000000  0.6179100000000  0.5012220000000 1.0
C      1  0.4849260000000  0.4206300000000  0.3977120000000 1.0
C      1  0.5991600000000  0.5080080000000  0.4286340000000 1.0
C      1  0.4473170000000  0.5288780000000  0.3991290000000 1.0
C      1  0.4506650000000  0.4814820000000  0.4998690000000 1.0
C      1  0.3968400000000  0.4775900000000  0.4891310000000 1.0
C      1  0.5065750000000  0.5107190000000  0.5333270000000 1.0
C      1  0.5081390000000  0.4478980000000  0.5490540000000 1.0
C      1  0.5717300000000  0.4195530000000  0.3813610000000 1.0
C      1  0.4058080000000  0.5555140000000  0.5344820000000 1.0
C      1  0.4663480000000  0.5301730000000  0.5737340000000 1.0
C      1  0.4718680000000  0.5949280000000  0.4183530000000 1.0
C      1  0.5911410000000  0.4587480000000  0.4967110000000 1.0
C      1  0.4527810000000  0.4684960000000  0.5640710000000 1.0
C      1  0.4084730000000  0.5630010000000  0.5083550000000 1.0
END
