TITL C-599896-8500-315 0.117062971314466 125000 -989.75572257455 0 0 162 (C1) n - 1
REM
REM in /home/nfs/bkarasulu/CARBON/AIRSS/Generating-Clusters/TERSOFF/Only-C1/FIRE-HFTN
REM
REM
REM
REM
REM
REM ./C.cell (11c1c37f851c82e70ff6c80c92926a4b)
REM AIRSS Version 0.9.1 bugfix July 2018 build 013d7b7c2542+ Fri, 06 Jul 2018 19:26:36 +0100
REM compiler GCC version 9.2.1 20190827 (Red Hat 9.2.1-1)
REM options -cpp -mtune=generic -march=x86-64 -g -O0 -fpre-include=/usr/include/finclude/math-vector-fortran.h
REM seed 740529069 -1563322742 -1013650924 -1880904817 -1509294145 -114207270 1834509143 1293910599 -797567342 -1147897478 -2056088564 1874945831 -1430793859 333260164 -1420563070 2110834821 1239087274 -308895317 967957417 1971441015 1530362073 -687133819 2056117442 -995633813 -2101107548 -569353785 -964018240 -2069673667 747642641 -110831304 1933621197 1141169261 439451894
REM
CELL 1.54180   50.00000   50.00000   50.00000   90.00000   90.00000   90.00000
LATT -1
SFAC C  
C      1  0.5147000000000  0.6010890000000  0.5626560000000 1.0
C      1  0.5148110000000  0.4388750000000  0.5468200000000 1.0
C      1  0.4435080000000  0.5565580000000  0.4632950000000 1.0
C      1  0.5135900000000  0.5235740000000  0.4777840000000 1.0
C      1  0.5062780000000  0.5253350000000  0.5615080000000 1.0
C      1  0.5324720000000  0.5370090000000  0.5176420000000 1.0
C      1  0.4233220000000  0.4576830000000  0.5051620000000 1.0
C      1  0.5914110000000  0.4663770000000  0.4275550000000 1.0
C      1  0.4595550000000  0.4004760000000  0.5222440000000 1.0
C      1  0.4618070000000  0.4775020000000  0.5723690000000 1.0
C      1  0.4123750000000  0.4572290000000  0.5327420000000 1.0
C      1  0.4689340000000  0.4106020000000  0.4702970000000 1.0
C      1  0.4882130000000  0.4936350000000  0.4407320000000 1.0
C      1  0.5023200000000  0.5701340000000  0.4885330000000 1.0
C      1  0.5059500000000  0.4944570000000  0.3795560000000 1.0
C      1  0.5753600000000  0.4356680000000  0.4612620000000 1.0
C      1  0.4609090000000  0.4689790000000  0.4773350000000 1.0
C      1  0.4259220000000  0.5146580000000  0.4590470000000 1.0
C      1  0.5040540000000  0.4238420000000  0.4089360000000 1.0
C      1  0.4766840000000  0.5862670000000  0.5314650000000 1.0
C      1  0.4096270000000  0.5045480000000  0.5962070000000 1.0
C      1  0.6011190000000  0.5439790000000  0.4875830000000 1.0
C      1  0.4507870000000  0.4511380000000  0.5810240000000 1.0
C      1  0.5003040000000  0.6028100000000  0.5380620000000 1.0
C      1  0.5500160000000  0.4869630000000  0.4060580000000 1.0
C      1  0.5961730000000  0.4447150000000  0.4459560000000 1.0
C      1  0.4495570000000  0.5504900000000  0.5504040000000 1.0
C      1  0.4256530000000  0.5117100000000  0.4303020000000 1.0
C      1  0.5726890000000  0.4333530000000  0.5648010000000 1.0
C      1  0.4695080000000  0.5461380000000  0.4556720000000 1.0
C      1  0.4417260000000  0.5292710000000  0.5072890000000 1.0
C      1  0.4989840000000  0.4458220000000  0.5231300000000 1.0
C      1  0.4733050000000  0.4610340000000  0.4104270000000 1.0
C      1  0.5477450000000  0.4749980000000  0.4945360000000 1.0
C      1  0.3977830000000  0.5317520000000  0.5200690000000 1.0
C      1  0.5659390000000  0.5704890000000  0.4597490000000 1.0
C      1  0.4362840000000  0.5101780000000  0.6040710000000 1.0
C      1  0.5771820000000  0.5273030000000  0.4946560000000 1.0
C      1  0.4495040000000  0.5779580000000  0.5398950000000 1.0
C      1  0.4285890000000  0.4301280000000  0.4994840000000 1.0
C      1  0.5320110000000  0.4637360000000  0.4649410000000 1.0
C      1  0.5392210000000  0.5007950000000  0.4286290000000 1.0
C      1  0.5088040000000  0.5227420000000  0.5318180000000 1.0
C      1  0.5055770000000  0.3344390000000  0.5042890000000 1.0
C      1  0.3821790000000  0.4929840000000  0.4126300000000 1.0
C      1  0.4769690000000  0.5325330000000  0.3882090000000 1.0
C      1  0.5833650000000  0.5018980000000  0.4819590000000 1.0
C      1  0.4128010000000  0.4710250000000  0.4635450000000 1.0
C      1  0.4011990000000  0.5117490000000  0.4160700000000 1.0
C      1  0.4948400000000  0.5501600000000  0.5693930000000 1.0
C      1  0.4670260000000  0.3934980000000  0.4940610000000 1.0
C      1  0.5692660000000  0.4801310000000  0.5505290000000 1.0
C      1  0.4810340000000  0.4824920000000  0.3897510000000 1.0
C      1  0.4841090000000  0.5102990000000  0.6032220000000 1.0
C      1  0.5604560000000  0.5336220000000  0.5178190000000 1.0
C      1  0.5215650000000  0.5464350000000  0.4927750000000 1.0
C      1  0.5544680000000  0.4151680000000  0.5192290000000 1.0
C      1  0.5451950000000  0.6078660000000  0.5144780000000 1.0
C      1  0.4477530000000  0.5014010000000  0.4171900000000 1.0
C      1  0.4035690000000  0.4945940000000  0.5703250000000 1.0
C      1  0.3795020000000  0.4694440000000  0.4254910000000 1.0
C      1  0.3891680000000  0.5085780000000  0.6139950000000 1.0
C      1  0.4845220000000  0.3433600000000  0.4903420000000 1.0
C      1  0.4911550000000  0.5577310000000  0.6157650000000 1.0
C      1  0.5402380000000  0.4774330000000  0.5435880000000 1.0
C      1  0.4633220000000  0.5073380000000  0.3941970000000 1.0
C      1  0.5025680000000  0.5661360000000  0.5915860000000 1.0
C      1  0.4908030000000  0.4751540000000  0.5592060000000 1.0
C      1  0.5387410000000  0.5282450000000  0.4377260000000 1.0
C      1  0.4173410000000  0.5543450000000  0.4768540000000 1.0
C      1  0.4870340000000  0.4747610000000  0.5282670000000 1.0
C      1  0.4387780000000  0.5082110000000  0.4870430000000 1.0
C      1  0.4326740000000  0.4340980000000  0.5708530000000 1.0
C      1  0.4593410000000  0.5820460000000  0.4051340000000 1.0
C      1  0.6142520000000  0.5311770000000  0.4658590000000 1.0
C      1  0.5868820000000  0.4805080000000  0.5253960000000 1.0
C      1  0.5070620000000  0.4533060000000  0.4774700000000 1.0
C      1  0.5190430000000  0.4841780000000  0.4435280000000 1.0
C      1  0.5623240000000  0.5694630000000  0.5504690000000 1.0
C      1  0.6018610000000  0.4909750000000  0.4363010000000 1.0
C      1  0.5494750000000  0.4429700000000  0.4519390000000 1.0
C      1  0.5131730000000  0.5294350000000  0.4503590000000 1.0
C      1  0.4999300000000  0.5795030000000  0.4378130000000 1.0
C      1  0.5304260000000  0.4279580000000  0.4091730000000 1.0
C      1  0.4846310000000  0.5389110000000  0.5225350000000 1.0
C      1  0.5197730000000  0.3459340000000  0.5238880000000 1.0
C      1  0.5309330000000  0.4565990000000  0.6055130000000 1.0
C      1  0.3936090000000  0.4600240000000  0.4463760000000 1.0
C      1  0.5057560000000  0.5094080000000  0.5850490000000 1.0
C      1  0.3836870000000  0.5133250000000  0.4750810000000 1.0
C      1  0.4270430000000  0.5762270000000  0.5212380000000 1.0
C      1  0.5638830000000  0.5899550000000  0.5292850000000 1.0
C      1  0.4446870000000  0.4867710000000  0.5480810000000 1.0
C      1  0.5334040000000  0.4194410000000  0.5028750000000 1.0
C      1  0.6020060000000  0.5057520000000  0.4598690000000 1.0
C      1  0.5583620000000  0.5098890000000  0.5879490000000 1.0
C      1  0.5046110000000  0.3917030000000  0.5446630000000 1.0
C      1  0.4228600000000  0.4323900000000  0.5447130000000 1.0
C      1  0.4355110000000  0.4158420000000  0.5238150000000 1.0
C      1  0.4996820000000  0.4171200000000  0.5849470000000 1.0
C      1  0.4868240000000  0.6057140000000  0.4403740000000 1.0
C      1  0.5189220000000  0.4649320000000  0.5593570000000 1.0
C      1  0.4191100000000  0.5503650000000  0.5070070000000 1.0
C      1  0.4612640000000  0.4790820000000  0.4322110000000 1.0
C      1  0.5748100000000  0.5458610000000  0.5396100000000 1.0
C      1  0.4470450000000  0.5318420000000  0.6203620000000 1.0
C      1  0.5183360000000  0.3687030000000  0.5376920000000 1.0
C      1  0.5062320000000  0.4958640000000  0.5171620000000 1.0
C      1  0.6032110000000  0.5457380000000  0.5339410000000 1.0
C      1  0.4585210000000  0.5321950000000  0.5299770000000 1.0
C      1  0.5512550000000  0.5381680000000  0.5896220000000 1.0
C      1  0.5678340000000  0.4192690000000  0.5422550000000 1.0
C      1  0.6131770000000  0.4923730000000  0.5294490000000 1.0
C      1  0.5104160000000  0.4358910000000  0.4992300000000 1.0
C      1  0.5751480000000  0.4804600000000  0.4981650000000 1.0
C      1  0.5721000000000  0.5888300000000  0.4809730000000 1.0
C      1  0.5539370000000  0.6346990000000  0.4724350000000 1.0
C      1  0.3958330000000  0.4913440000000  0.4897710000000 1.0
C      1  0.4881590000000  0.4746140000000  0.4790640000000 1.0
C      1  0.6355320000000  0.4766420000000  0.5275570000000 1.0
C      1  0.5566530000000  0.5495190000000  0.4448250000000 1.0
C      1  0.4003200000000  0.5017350000000  0.5185920000000 1.0
C      1  0.5322940000000  0.4855050000000  0.3839770000000 1.0
C      1  0.5026110000000  0.5676450000000  0.4121330000000 1.0
C      1  0.5562230000000  0.6121850000000  0.4874730000000 1.0
C      1  0.5327710000000  0.4824720000000  0.5168490000000 1.0
C      1  0.4650150000000  0.6039190000000  0.4213830000000 1.0
C      1  0.5525530000000  0.4727430000000  0.5953750000000 1.0
C      1  0.5660080000000  0.4644180000000  0.4132960000000 1.0
C      1  0.4999560000000  0.5001470000000  0.4882550000000 1.0
C      1  0.5740140000000  0.5050820000000  0.5658730000000 1.0
C      1  0.4027150000000  0.5323150000000  0.4658730000000 1.0
C      1  0.6156380000000  0.5202550000000  0.5353520000000 1.0
C      1  0.4440470000000  0.4798490000000  0.4989530000000 1.0
C      1  0.4853300000000  0.5231210000000  0.4440150000000 1.0
C      1  0.5694350000000  0.4599460000000  0.5741570000000 1.0
C      1  0.5492120000000  0.4429380000000  0.4231250000000 1.0
C      1  0.5122210000000  0.4364140000000  0.6025210000000 1.0
C      1  0.4428820000000  0.4691750000000  0.4547580000000 1.0
C      1  0.4752300000000  0.3954830000000  0.5466040000000 1.0
C      1  0.4936220000000  0.6152470000000  0.4667230000000 1.0
C      1  0.5248040000000  0.5620670000000  0.3956700000000 1.0
C      1  0.4767250000000  0.5593430000000  0.4000430000000 1.0
C      1  0.5243310000000  0.5813120000000  0.5809300000000 1.0
C      1  0.4704220000000  0.3659250000000  0.4887070000000 1.0
C      1  0.6041130000000  0.5620810000000  0.5093040000000 1.0
C      1  0.5050620000000  0.6009450000000  0.4892570000000 1.0
C      1  0.5166380000000  0.6087820000000  0.5147350000000 1.0
C      1  0.4906990000000  0.5653130000000  0.4610520000000 1.0
C      1  0.5028250000000  0.5232880000000  0.3766980000000 1.0
C      1  0.4717370000000  0.4221110000000  0.4454520000000 1.0
C      1  0.5239940000000  0.5419800000000  0.3774460000000 1.0
C      1  0.4737290000000  0.4051700000000  0.5756280000000 1.0
C      1  0.4808120000000  0.4347510000000  0.4206020000000 1.0
C      1  0.4858190000000  0.5656650000000  0.5130080000000 1.0
C      1  0.4135910000000  0.4858560000000  0.5435570000000 1.0
C      1  0.5843330000000  0.5828080000000  0.5075120000000 1.0
C      1  0.4602210000000  0.4967700000000  0.5945240000000 1.0
C      1  0.4590680000000  0.4819380000000  0.5241020000000 1.0
C      1  0.5479890000000  0.5648300000000  0.5754850000000 1.0
C      1  0.5145510000000  0.4143300000000  0.5598270000000 1.0
C      1  0.4760120000000  0.5340960000000  0.6187260000000 1.0
END
