TITL C-599895-9959-1175 6338.81740866581 125000 -1117.95027147482 0 0 183 (C1) n - 1
REM
REM in /home/nfs/bkarasulu/CARBON/AIRSS/Generating-Clusters/TERSOFF/Only-C1/FIRE-HFTN
REM
REM
REM
REM
REM
REM ./C.cell (11c1c37f851c82e70ff6c80c92926a4b)
REM AIRSS Version 0.9.1 bugfix July 2018 build 013d7b7c2542+ Fri, 06 Jul 2018 19:26:36 +0100
REM compiler GCC version 9.2.1 20190827 (Red Hat 9.2.1-1)
REM options -cpp -mtune=generic -march=x86-64 -g -O0 -fpre-include=/usr/include/finclude/math-vector-fortran.h
REM seed 1176684229 346281458 -593145441 1217552833 -1218829365 -1049464838 1545066383 -1385233960 1159121631 877216876 -951914401 930174459 1644664867 -1766824468 1174316187 -1714152331 1572499721 -164567221 584379427 -1242299592 -1771213511 1133151150 1963541517 -1363381428 -1153555629 -1675814830 691732988 1241140856 2008104969 641881732 -1511982487 279234407 1286188606
REM
CELL 1.54180   50.00000   50.00000   50.00000   90.00000   90.00000   90.00000
LATT -1
SFAC C  
C      1  0.5628530000000  0.4965870000000  0.6065010000000 1.0
C      1  0.5318280000000  0.5754610000000  0.4149400000000 1.0
C      1  0.4054500000000  0.4322200000000  0.4722160000000 1.0
C      1  0.4820970000000  0.5586000000000  0.4910140000000 1.0
C      1  0.5746920000000  0.5092250000000  0.4787760000000 1.0
C      1  0.4053430000000  0.5619750000000  0.5614260000000 1.0
C      1  0.5603670000000  0.4114770000000  0.5630900000000 1.0
C      1  0.5264270000000  0.4320130000000  0.5949170000000 1.0
C      1  0.4176450000000  0.5616310000000  0.4363240000000 1.0
C      1  0.5891220000000  0.4686700000000  0.5353980000000 1.0
C      1  0.5555160000000  0.6254460000000  0.4853940000000 1.0
C      1  0.5320040000000  0.4125250000000  0.5733880000000 1.0
C      1  0.4263040000000  0.5680170000000  0.5160050000000 1.0
C      1  0.3830280000000  0.5043080000000  0.4762570000000 1.0
C      1  0.4983340000000  0.4517430000000  0.5555110000000 1.0
C      1  0.4840960000000  0.5620800000000  0.4626550000000 1.0
C      1  0.4531910000000  0.5298420000000  0.4174770000000 1.0
C      1  0.5770410000000  0.4446380000000  0.4866740000000 1.0
C      1  0.4507900000000  0.5342080000000  0.4638570000000 1.0
C      1  0.5966500000000  0.5223180000000  0.5442880000000 1.0
C      1  0.5450510000000  0.5408670000000  0.6079010000000 1.0
C      1  0.4824920000000  0.4474520000000  0.6186850000000 1.0
C      1  0.5216700000000  0.5043220000000  0.3902910000000 1.0
C      1  0.4233510000000  0.4581660000000  0.4180730000000 1.0
C      1  0.5179900000000  0.5173090000000  0.5163840000000 1.0
C      1  0.5778290000000  0.4277820000000  0.5794790000000 1.0
C      1  0.4097400000000  0.5315780000000  0.3966980000000 1.0
C      1  0.4576520000000  0.4541180000000  0.5008700000000 1.0
C      1  0.5848510000000  0.5877090000000  0.4734250000000 1.0
C      1  0.6197420000000  0.5304240000000  0.5299260000000 1.0
C      1  0.4554480000000  0.5732430000000  0.5500830000000 1.0
C      1  0.5036440000000  0.5339960000000  0.4322800000000 1.0
C      1  0.5590110000000  0.5985110000000  0.4827250000000 1.0
C      1  0.4641290000000  0.4924460000000  0.4478300000000 1.0
C      1  0.5889330000000  0.5342490000000  0.5909540000000 1.0
C      1  0.5462300000000  0.5184420000000  0.4066520000000 1.0
C      1  0.4857150000000  0.5490900000000  0.6074040000000 1.0
C      1  0.4591130000000  0.5592840000000  0.4514670000000 1.0
C      1  0.6020000000000  0.4363140000000  0.5023620000000 1.0
C      1  0.5143530000000  0.5989640000000  0.5522100000000 1.0
C      1  0.3896370000000  0.5155450000000  0.4508610000000 1.0
C      1  0.5507550000000  0.4103520000000  0.5143610000000 1.0
C      1  0.4046270000000  0.4697560000000  0.4362870000000 1.0
C      1  0.4573270000000  0.4681690000000  0.5526590000000 1.0
C      1  0.5821860000000  0.4753700000000  0.6035600000000 1.0
C      1  0.4825980000000  0.5358290000000  0.4081680000000 1.0
C      1  0.5577000000000  0.5793820000000  0.5382930000000 1.0
C      1  0.5424680000000  0.4678880000000  0.5420530000000 1.0
C      1  0.4801720000000  0.5639650000000  0.3972620000000 1.0
C      1  0.5706760000000  0.4582990000000  0.4061130000000 1.0
C      1  0.4728770000000  0.4659170000000  0.4037370000000 1.0
C      1  0.5031160000000  0.4321660000000  0.6108460000000 1.0
C      1  0.5657210000000  0.5350370000000  0.4793350000000 1.0
C      1  0.5113120000000  0.4390710000000  0.4177080000000 1.0
C      1  0.5885910000000  0.5011270000000  0.5014850000000 1.0
C      1  0.4756490000000  0.5517750000000  0.5514590000000 1.0
C      1  0.5968330000000  0.5678870000000  0.4546820000000 1.0
C      1  0.5127620000000  0.4910010000000  0.6176570000000 1.0
C      1  0.5640220000000  0.4546230000000  0.5311060000000 1.0
C      1  0.5070290000000  0.4049130000000  0.5612910000000 1.0
C      1  0.5065500000000  0.5065990000000  0.4712690000000 1.0
C      1  0.5489890000000  0.4644580000000  0.3863190000000 1.0
C      1  0.4834750000000  0.4756400000000  0.5610320000000 1.0
C      1  0.3952540000000  0.4966540000000  0.4297950000000 1.0
C      1  0.4573730000000  0.5408360000000  0.4918940000000 1.0
C      1  0.3255060000000  0.5532700000000  0.4798510000000 1.0
C      1  0.3662570000000  0.5358330000000  0.5106570000000 1.0
C      1  0.5725870000000  0.5067890000000  0.3966970000000 1.0
C      1  0.5181480000000  0.4565730000000  0.5366250000000 1.0
C      1  0.3982910000000  0.4581820000000  0.4625050000000 1.0
C      1  0.5017220000000  0.5864080000000  0.5292490000000 1.0
C      1  0.5359250000000  0.4290630000000  0.4658460000000 1.0
C      1  0.4900180000000  0.4246460000000  0.4331390000000 1.0
C      1  0.4289410000000  0.5458980000000  0.4123290000000 1.0
C      1  0.4836870000000  0.4171080000000  0.4597280000000 1.0
C      1  0.5021580000000  0.4026400000000  0.5096020000000 1.0
C      1  0.5649660000000  0.5573950000000  0.5561710000000 1.0
C      1  0.5248270000000  0.5433290000000  0.5313430000000 1.0
C      1  0.4880330000000  0.5886160000000  0.4046190000000 1.0
C      1  0.4323050000000  0.3942040000000  0.4906110000000 1.0
C      1  0.5164940000000  0.5093580000000  0.4434330000000 1.0
C      1  0.5045440000000  0.5893480000000  0.5780500000000 1.0
C      1  0.4972660000000  0.4303060000000  0.5032380000000 1.0
C      1  0.4243760000000  0.4930930000000  0.5054680000000 1.0
C      1  0.5657970000000  0.4097450000000  0.4373540000000 1.0
C      1  0.4989460000000  0.5583820000000  0.5368290000000 1.0
C      1  0.5861460000000  0.4845340000000  0.4106410000000 1.0
C      1  0.4783210000000  0.5241840000000  0.6159130000000 1.0
C      1  0.5577900000000  0.4380640000000  0.5079610000000 1.0
C      1  0.5709660000000  0.4511390000000  0.5937150000000 1.0
C      1  0.4426430000000  0.5912130000000  0.5058910000000 1.0
C      1  0.5229590000000  0.4997250000000  0.4933980000000 1.0
C      1  0.4500290000000  0.4823600000000  0.5017260000000 1.0
C      1  0.5737550000000  0.5593500000000  0.4401980000000 1.0
C      1  0.4153150000000  0.5204400000000  0.5059640000000 1.0
C      1  0.6120380000000  0.4842420000000  0.4991710000000 1.0
C      1  0.4999470000000  0.6056720000000  0.4488120000000 1.0
C      1  0.5284510000000  0.5488980000000  0.5865670000000 1.0
C      1  0.5010140000000  0.5866990000000  0.4985840000000 1.0
C      1  0.5863720000000  0.5404820000000  0.5635330000000 1.0
C      1  0.5092330000000  0.5933780000000  0.4232800000000 1.0
C      1  0.5544860000000  0.5490540000000  0.4577840000000 1.0
C      1  0.5962800000000  0.4136100000000  0.5219070000000 1.0
C      1  0.5624810000000  0.4304890000000  0.4165490000000 1.0
C      1  0.5469950000000  0.4943340000000  0.5499840000000 1.0
C      1  0.6305840000000  0.5441840000000  0.4811770000000 1.0
C      1  0.5426190000000  0.6013480000000  0.5484630000000 1.0
C      1  0.4327040000000  0.5424620000000  0.5057600000000 1.0
C      1  0.4962320000000  0.3905450000000  0.4677830000000 1.0
C      1  0.5384420000000  0.5450770000000  0.5600030000000 1.0
C      1  0.5463790000000  0.5068880000000  0.4372010000000 1.0
C      1  0.4421690000000  0.4550410000000  0.5752290000000 1.0
C      1  0.4026720000000  0.4743140000000  0.5091820000000 1.0
C      1  0.5000080000000  0.4575380000000  0.3950140000000 1.0
C      1  0.5347660000000  0.4861770000000  0.5980670000000 1.0
C      1  0.4582520000000  0.4237830000000  0.5459480000000 1.0
C      1  0.4583000000000  0.4482780000000  0.5294530000000 1.0
C      1  0.4452910000000  0.5165770000000  0.5649590000000 1.0
C      1  0.5665520000000  0.5479450000000  0.5036940000000 1.0
C      1  0.4273480000000  0.5672880000000  0.5455750000000 1.0
C      1  0.4693980000000  0.4985050000000  0.5135220000000 1.0
C      1  0.4909340000000  0.5106580000000  0.5219430000000 1.0
C      1  0.4852980000000  0.6047220000000  0.4750620000000 1.0
C      1  0.5126170000000  0.4527560000000  0.5095850000000 1.0
C      1  0.4731840000000  0.5245480000000  0.5623300000000 1.0
C      1  0.4586640000000  0.5960010000000  0.5303890000000 1.0
C      1  0.5419480000000  0.4556060000000  0.5953360000000 1.0
C      1  0.4786690000000  0.4816910000000  0.4267710000000 1.0
C      1  0.4054120000000  0.4864950000000  0.5559210000000 1.0
C      1  0.4435940000000  0.4696090000000  0.6000940000000 1.0
C      1  0.3976060000000  0.5084340000000  0.4040850000000 1.0
C      1  0.5344980000000  0.4577800000000  0.4643570000000 1.0
C      1  0.5441740000000  0.5635090000000  0.5151040000000 1.0
C      1  0.4021980000000  0.4651980000000  0.5367810000000 1.0
C      1  0.4220590000000  0.5022010000000  0.5732410000000 1.0
C      1  0.5646200000000  0.4645010000000  0.4660310000000 1.0
C      1  0.5677630000000  0.5242390000000  0.6067610000000 1.0
C      1  0.5298300000000  0.3950280000000  0.5026030000000 1.0
C      1  0.5702730000000  0.4051560000000  0.5357300000000 1.0
C      1  0.5350400000000  0.4246440000000  0.4076840000000 1.0
C      1  0.5647000000000  0.4928580000000  0.4577510000000 1.0
C      1  0.4129320000000  0.4145370000000  0.4934290000000 1.0
C      1  0.4968290000000  0.5181000000000  0.3882010000000 1.0
C      1  0.5061530000000  0.4843060000000  0.4322200000000 1.0
C      1  0.5049090000000  0.5640310000000  0.5920910000000 1.0
C      1  0.4753510000000  0.4355100000000  0.4839710000000 1.0
C      1  0.4805150000000  0.4950510000000  0.4708460000000 1.0
C      1  0.5269340000000  0.3871500000000  0.4728130000000 1.0
C      1  0.3668290000000  0.5409630000000  0.5381560000000 1.0
C      1  0.5306700000000  0.5620140000000  0.4641890000000 1.0
C      1  0.5224320000000  0.4754650000000  0.3860380000000 1.0
C      1  0.4099940000000  0.4372220000000  0.5423180000000 1.0
C      1  0.4512310000000  0.5976580000000  0.4783310000000 1.0
C      1  0.6312060000000  0.5390950000000  0.5073950000000 1.0
C      1  0.5449010000000  0.4038820000000  0.4569370000000 1.0
C      1  0.4460070000000  0.4572530000000  0.4032300000000 1.0
C      1  0.4380760000000  0.5777800000000  0.4519810000000 1.0
C      1  0.5261700000000  0.4994710000000  0.5706380000000 1.0
C      1  0.5805390000000  0.4988810000000  0.5333270000000 1.0
C      1  0.6135780000000  0.5214270000000  0.4405990000000 1.0
C      1  0.5201520000000  0.4609970000000  0.4381920000000 1.0
C      1  0.3810980000000  0.5513090000000  0.5581370000000 1.0
C      1  0.4951160000000  0.5022550000000  0.5658270000000 1.0
C      1  0.3889420000000  0.4763770000000  0.4830860000000 1.0
C      1  0.4683890000000  0.4718860000000  0.6145790000000 1.0
C      1  0.4325770000000  0.4307070000000  0.5611870000000 1.0
C      1  0.5073020000000  0.5551460000000  0.4505300000000 1.0
C      1  0.6098780000000  0.4609820000000  0.5156680000000 1.0
C      1  0.4252360000000  0.4911540000000  0.5994130000000 1.0
C      1  0.6158780000000  0.5457600000000  0.4571370000000 1.0
C      1  0.4846170000000  0.4962100000000  0.6178390000000 1.0
C      1  0.4050990000000  0.4199590000000  0.5202150000000 1.0
C      1  0.5415820000000  0.5505540000000  0.4066470000000 1.0
C      1  0.4504140000000  0.5157920000000  0.4427030000000 1.0
C      1  0.4561920000000  0.3832590000000  0.4959100000000 1.0
C      1  0.5321230000000  0.5794440000000  0.4903740000000 1.0
C      1  0.6055820000000  0.4979820000000  0.4282600000000 1.0
C      1  0.5242330000000  0.4704630000000  0.4904540000000 1.0
C      1  0.3446220000000  0.5447790000000  0.4953950000000 1.0
C      1  0.4839750000000  0.3858610000000  0.4944100000000 1.0
C      1  0.4864190000000  0.4242950000000  0.5563620000000 1.0
C      1  0.3974270000000  0.5436450000000  0.4481470000000 1.0
C      1  0.3876580000000  0.5222510000000  0.4982700000000 1.0
END
