TITL C-599894-471-335 51.3228321226601 125000 -987.309723569775 0 0 160 (C1) n - 1
REM
REM in /home/nfs/bkarasulu/CARBON/AIRSS/Generating-Clusters/TERSOFF/Only-C1/FIRE-HFTN
REM
REM
REM
REM
REM
REM ./C.cell (11c1c37f851c82e70ff6c80c92926a4b)
REM AIRSS Version 0.9.1 bugfix July 2018 build 013d7b7c2542+ Fri, 06 Jul 2018 19:26:36 +0100
REM compiler GCC version 9.2.1 20190827 (Red Hat 9.2.1-1)
REM options -cpp -mtune=generic -march=x86-64 -g -O0 -fpre-include=/usr/include/finclude/math-vector-fortran.h
REM seed 926474762 -218791331 1004538210 1496236702 -1167497447 1671840825 494445018 -1804896939 -367817882 -1790953185 1492987290 491797205 -1315722714 -1917895782 -122738955 -1750745684 -1607245117 980579172 54009102 -646967912 -16267755 -1020558585 1543764917 387163400 1413024075 -1537609141 -1913004935 880316093 -1125263484 2110988246 1340516237 166492939 -1289391611
REM
CELL 1.54180   50.00000   50.00000   50.00000   90.00000   90.00000   90.00000
LATT -1
SFAC C  
C      1  0.4361930000000  0.5395170000000  0.5840890000000 1.0
C      1  0.3990850000000  0.5098170000000  0.5499840000000 1.0
C      1  0.5394740000000  0.4673270000000  0.5328610000000 1.0
C      1  0.4751070000000  0.4040590000000  0.5508770000000 1.0
C      1  0.6103250000000  0.4689110000000  0.4913810000000 1.0
C      1  0.5193920000000  0.4880110000000  0.5909850000000 1.0
C      1  0.4078320000000  0.4694180000000  0.5801070000000 1.0
C      1  0.4636620000000  0.5482830000000  0.4134700000000 1.0
C      1  0.5640060000000  0.4614410000000  0.4944180000000 1.0
C      1  0.4409490000000  0.6082340000000  0.4875240000000 1.0
C      1  0.4639390000000  0.5318810000000  0.5204110000000 1.0
C      1  0.5124190000000  0.3963310000000  0.4588260000000 1.0
C      1  0.4768090000000  0.4202940000000  0.6293970000000 1.0
C      1  0.5607420000000  0.4531710000000  0.5205830000000 1.0
C      1  0.4829870000000  0.4704690000000  0.4708750000000 1.0
C      1  0.4547380000000  0.4959780000000  0.5894160000000 1.0
C      1  0.4317240000000  0.5116130000000  0.5863800000000 1.0
C      1  0.3653160000000  0.4603510000000  0.5278630000000 1.0
C      1  0.4223530000000  0.5526360000000  0.5628930000000 1.0
C      1  0.5705350000000  0.4888630000000  0.5979830000000 1.0
C      1  0.4711230000000  0.4376280000000  0.4303840000000 1.0
C      1  0.4619390000000  0.4717290000000  0.5776320000000 1.0
C      1  0.4437500000000  0.4453610000000  0.4863910000000 1.0
C      1  0.6021440000000  0.4680040000000  0.4624620000000 1.0
C      1  0.5031220000000  0.4971480000000  0.5717670000000 1.0
C      1  0.5562520000000  0.5339520000000  0.5039650000000 1.0
C      1  0.4857090000000  0.5670730000000  0.4133130000000 1.0
C      1  0.4436370000000  0.5196250000000  0.4649590000000 1.0
C      1  0.4935540000000  0.5164480000000  0.4344950000000 1.0
C      1  0.5541850000000  0.5113160000000  0.4861740000000 1.0
C      1  0.5708440000000  0.6182150000000  0.4785370000000 1.0
C      1  0.4653780000000  0.4859380000000  0.5284360000000 1.0
C      1  0.4329960000000  0.6304020000000  0.4753950000000 1.0
C      1  0.5319020000000  0.5158970000000  0.5397120000000 1.0
C      1  0.4576790000000  0.4602720000000  0.4676060000000 1.0
C      1  0.4132490000000  0.4409700000000  0.5822430000000 1.0
C      1  0.5065370000000  0.5627280000000  0.4687830000000 1.0
C      1  0.5128630000000  0.4641180000000  0.5215050000000 1.0
C      1  0.4930880000000  0.4816770000000  0.3859740000000 1.0
C      1  0.5479580000000  0.6198610000000  0.4646940000000 1.0
C      1  0.4424460000000  0.6244380000000  0.4046630000000 1.0
C      1  0.5727800000000  0.4417410000000  0.4288460000000 1.0
C      1  0.5279110000000  0.5477140000000  0.6105840000000 1.0
C      1  0.4621660000000  0.6099210000000  0.4135850000000 1.0
C      1  0.5010790000000  0.4080370000000  0.5639790000000 1.0
C      1  0.6067150000000  0.5270070000000  0.5213790000000 1.0
C      1  0.5827970000000  0.3999020000000  0.4744980000000 1.0
C      1  0.3684340000000  0.4255070000000  0.5641750000000 1.0
C      1  0.5244760000000  0.5566480000000  0.5856880000000 1.0
C      1  0.6188610000000  0.5880890000000  0.4512200000000 1.0
C      1  0.4674830000000  0.5225890000000  0.4261310000000 1.0
C      1  0.6019860000000  0.5439490000000  0.4539900000000 1.0
C      1  0.5932520000000  0.4430560000000  0.4494740000000 1.0
C      1  0.5086360000000  0.4423770000000  0.5031450000000 1.0
C      1  0.5978090000000  0.5495070000000  0.4817930000000 1.0
C      1  0.5261310000000  0.6164020000000  0.4495310000000 1.0
C      1  0.4082150000000  0.5513880000000  0.5173450000000 1.0
C      1  0.6160040000000  0.5918170000000  0.4797580000000 1.0
C      1  0.4394860000000  0.5543190000000  0.4009410000000 1.0
C      1  0.4100230000000  0.5307880000000  0.4974670000000 1.0
C      1  0.5240180000000  0.4875160000000  0.4596150000000 1.0
C      1  0.4407970000000  0.5654810000000  0.5447840000000 1.0
C      1  0.5540390000000  0.4227280000000  0.5649350000000 1.0
C      1  0.4925460000000  0.4900160000000  0.6428740000000 1.0
C      1  0.4646150000000  0.5500580000000  0.5423010000000 1.0
C      1  0.5523820000000  0.5540010000000  0.4483770000000 1.0
C      1  0.5053230000000  0.6072230000000  0.4353610000000 1.0
C      1  0.5139180000000  0.5278140000000  0.4173470000000 1.0
C      1  0.6058770000000  0.4997210000000  0.5616530000000 1.0
C      1  0.3963000000000  0.5115340000000  0.4511980000000 1.0
C      1  0.4251010000000  0.6528910000000  0.4648330000000 1.0
C      1  0.4524050000000  0.4200790000000  0.5581160000000 1.0
C      1  0.4848950000000  0.4015180000000  0.4674950000000 1.0
C      1  0.4632300000000  0.5495340000000  0.5894420000000 1.0
C      1  0.5057130000000  0.5057670000000  0.5450500000000 1.0
C      1  0.5082080000000  0.5573740000000  0.5628870000000 1.0
C      1  0.5013370000000  0.5813380000000  0.5214020000000 1.0
C      1  0.4817920000000  0.5332150000000  0.4983040000000 1.0
C      1  0.4191580000000  0.4418360000000  0.4960650000000 1.0
C      1  0.6048130000000  0.4725630000000  0.5209590000000 1.0
C      1  0.4698970000000  0.5592270000000  0.6140890000000 1.0
C      1  0.5979500000000  0.4185550000000  0.4627220000000 1.0
C      1  0.4474170000000  0.5086890000000  0.4399670000000 1.0
C      1  0.5406030000000  0.5190360000000  0.4146960000000 1.0
C      1  0.4494430000000  0.5867180000000  0.5032180000000 1.0
C      1  0.5845130000000  0.5372500000000  0.5045750000000 1.0
C      1  0.3909450000000  0.4242420000000  0.5786500000000 1.0
C      1  0.3867190000000  0.4724080000000  0.5143900000000 1.0
C      1  0.5362760000000  0.4692320000000  0.4084790000000 1.0
C      1  0.5304330000000  0.4002260000000  0.4805330000000 1.0
C      1  0.4948040000000  0.4897140000000  0.5207660000000 1.0
C      1  0.4299270000000  0.5719750000000  0.5190240000000 1.0
C      1  0.4450950000000  0.3965730000000  0.4395250000000 1.0
C      1  0.6185210000000  0.5670380000000  0.4946840000000 1.0
C      1  0.4676370000000  0.4121140000000  0.4462450000000 1.0
C      1  0.6037120000000  0.5679470000000  0.4374490000000 1.0
C      1  0.5662260000000  0.4935220000000  0.4407520000000 1.0
C      1  0.4028920000000  0.5391560000000  0.5453460000000 1.0
C      1  0.4805650000000  0.4678210000000  0.6344090000000 1.0
C      1  0.4486460000000  0.5075680000000  0.5202020000000 1.0
C      1  0.4843450000000  0.5946110000000  0.4210470000000 1.0
C      1  0.5479210000000  0.4928960000000  0.5423850000000 1.0
C      1  0.4512050000000  0.4590730000000  0.4392720000000 1.0
C      1  0.3946420000000  0.4662920000000  0.4642450000000 1.0
C      1  0.5611330000000  0.5772210000000  0.4042920000000 1.0
C      1  0.4014960000000  0.4939540000000  0.5257160000000 1.0
C      1  0.5288050000000  0.4116140000000  0.5557440000000 1.0
C      1  0.4802490000000  0.5512390000000  0.5659180000000 1.0
C      1  0.5936200000000  0.4921070000000  0.4484230000000 1.0
C      1  0.4743370000000  0.3948290000000  0.5232530000000 1.0
C      1  0.5034620000000  0.4515920000000  0.4770250000000 1.0
C      1  0.5205470000000  0.5324010000000  0.6311310000000 1.0
C      1  0.4864210000000  0.4008950000000  0.4980740000000 1.0
C      1  0.6262740000000  0.5495230000000  0.5172680000000 1.0
C      1  0.5069620000000  0.5124000000000  0.6423360000000 1.0
C      1  0.5780030000000  0.4351240000000  0.5578940000000 1.0
C      1  0.5468470000000  0.5030500000000  0.4603440000000 1.0
C      1  0.3582800000000  0.4411260000000  0.5449870000000 1.0
C      1  0.6075240000000  0.5000650000000  0.5332460000000 1.0
C      1  0.5577250000000  0.5376070000000  0.4277520000000 1.0
C      1  0.5924680000000  0.4950810000000  0.5842020000000 1.0
C      1  0.4592330000000  0.4487820000000  0.5947320000000 1.0
C      1  0.4500700000000  0.4425480000000  0.5405430000000 1.0
C      1  0.5074540000000  0.4668170000000  0.4037260000000 1.0
C      1  0.5510250000000  0.4498850000000  0.4729790000000 1.0
C      1  0.5154180000000  0.4127070000000  0.5038040000000 1.0
C      1  0.5575640000000  0.3938700000000  0.4806370000000 1.0
C      1  0.5322420000000  0.5634160000000  0.4627060000000 1.0
C      1  0.6068730000000  0.5170100000000  0.4471480000000 1.0
C      1  0.4967900000000  0.4975460000000  0.4649550000000 1.0
C      1  0.5506000000000  0.4924320000000  0.4158820000000 1.0
C      1  0.5465010000000  0.4432930000000  0.4176940000000 1.0
C      1  0.3976330000000  0.5284000000000  0.4723190000000 1.0
C      1  0.5221870000000  0.4267400000000  0.4206330000000 1.0
C      1  0.4970760000000  0.4427650000000  0.4170100000000 1.0
C      1  0.4405530000000  0.4304570000000  0.5828520000000 1.0
C      1  0.3972710000000  0.4588340000000  0.4914210000000 1.0
C      1  0.4780310000000  0.5797940000000  0.5035890000000 1.0
C      1  0.4949560000000  0.5087680000000  0.4935610000000 1.0
C      1  0.5348820000000  0.5704340000000  0.4010370000000 1.0
C      1  0.5364630000000  0.5401440000000  0.5250850000000 1.0
C      1  0.5293790000000  0.4050020000000  0.5282820000000 1.0
C      1  0.5181630000000  0.5619810000000  0.5354230000000 1.0
C      1  0.4721520000000  0.4454530000000  0.6196220000000 1.0
C      1  0.5858510000000  0.4520680000000  0.5352320000000 1.0
C      1  0.4231890000000  0.3834730000000  0.4342770000000 1.0
C      1  0.4217780000000  0.5071390000000  0.5099850000000 1.0
C      1  0.4062510000000  0.4850200000000  0.4464260000000 1.0
C      1  0.5442500000000  0.4851220000000  0.6002370000000 1.0
C      1  0.4159680000000  0.5584450000000  0.3905010000000 1.0
C      1  0.4096470000000  0.4975320000000  0.5741100000000 1.0
C      1  0.4856100000000  0.5580990000000  0.4862020000000 1.0
C      1  0.5268650000000  0.4595160000000  0.4636370000000 1.0
C      1  0.4592050000000  0.4678440000000  0.5488860000000 1.0
C      1  0.5854510000000  0.5749830000000  0.4164770000000 1.0
C      1  0.5112650000000  0.5555580000000  0.4083860000000 1.0
C      1  0.5207500000000  0.4017100000000  0.4328090000000 1.0
C      1  0.4338870000000  0.4831890000000  0.4357910000000 1.0
C      1  0.5690860000000  0.4890440000000  0.4949290000000 1.0
C      1  0.5952900000000  0.6101020000000  0.4862590000000 1.0
END
