TITL C-599896-8500-466 0.664432933661629 125000 -208.929810961714 0 0 36 (C1) n - 1
REM
REM in /home/nfs/bkarasulu/CARBON/AIRSS/Generating-Clusters/TERSOFF/Only-C1/FIRE-HFTN
REM
REM
REM
REM
REM
REM ./C.cell (11c1c37f851c82e70ff6c80c92926a4b)
REM AIRSS Version 0.9.1 bugfix July 2018 build 013d7b7c2542+ Fri, 06 Jul 2018 19:26:36 +0100
REM compiler GCC version 9.2.1 20190827 (Red Hat 9.2.1-1)
REM options -cpp -mtune=generic -march=x86-64 -g -O0 -fpre-include=/usr/include/finclude/math-vector-fortran.h
REM seed 572954641 363722569 1378492955 437471864 1631550845 -895734521 1101639646 -292054078 -2004342097 1070035644 852679176 2104495922 -2077329453 -1397553391 478828098 -125131550 -1626505081 282511419 -1907811951 -82874572 1990687528 -2060683002 985333099 -1196226818 -276680327 -652378860 -242767775 562101898 1458857135 -181114557 2146209637 1834077433 505794559
REM
CELL 1.54180   50.00000   50.00000   50.00000   90.00000   90.00000   90.00000
LATT -1
SFAC C  
C      1  0.4631030000000  0.4531400000000  0.4333220000000 1.0
C      1  0.5000590000000  0.5089240000000  0.4602160000000 1.0
C      1  0.4485780000000  0.5988580000000  0.5271220000000 1.0
C      1  0.5387980000000  0.4885540000000  0.3998700000000 1.0
C      1  0.5602100000000  0.4879210000000  0.5341590000000 1.0
C      1  0.5137490000000  0.4292710000000  0.4888340000000 1.0
C      1  0.4482560000000  0.4664510000000  0.4165310000000 1.0
C      1  0.5186400000000  0.4957430000000  0.4166710000000 1.0
C      1  0.4959670000000  0.4330280000000  0.4695420000000 1.0
C      1  0.3854060000000  0.4820040000000  0.5490300000000 1.0
C      1  0.5863340000000  0.4523430000000  0.5543830000000 1.0
C      1  0.4060110000000  0.4949470000000  0.5396940000000 1.0
C      1  0.4615230000000  0.5021710000000  0.4894080000000 1.0
C      1  0.5395010000000  0.5202600000000  0.5715790000000 1.0
C      1  0.5536580000000  0.5043860000000  0.5557410000000 1.0
C      1  0.5640110000000  0.4858990000000  0.4098060000000 1.0
C      1  0.5319890000000  0.4317220000000  0.5079140000000 1.0
C      1  0.4363800000000  0.5329610000000  0.5412710000000 1.0
C      1  0.4426570000000  0.4990600000000  0.5079020000000 1.0
C      1  0.5592930000000  0.4978680000000  0.5080330000000 1.0
C      1  0.4280490000000  0.5087990000000  0.5297540000000 1.0
C      1  0.5190410000000  0.5350390000000  0.5797730000000 1.0
C      1  0.5496590000000  0.4416590000000  0.5249950000000 1.0
C      1  0.4724430000000  0.5534280000000  0.5663610000000 1.0
C      1  0.5542260000000  0.5008660000000  0.4821970000000 1.0
C      1  0.4790290000000  0.4413980000000  0.4509590000000 1.0
C      1  0.4952580000000  0.5467120000000  0.5781400000000 1.0
C      1  0.4579430000000  0.5733590000000  0.5243290000000 1.0
C      1  0.5483040000000  0.4977250000000  0.4551880000000 1.0
C      1  0.4799070000000  0.5459420000000  0.4846980000000 1.0
C      1  0.4806220000000  0.5188610000000  0.4774550000000 1.0
C      1  0.4544820000000  0.5539970000000  0.5449540000000 1.0
C      1  0.5657520000000  0.4603170000000  0.5382680000000 1.0
C      1  0.5215950000000  0.5009780000000  0.4445340000000 1.0
C      1  0.4712100000000  0.5649910000000  0.5010840000000 1.0
C      1  0.5683560000000  0.4904180000000  0.4362830000000 1.0
END
