TITL C-599894-471-1014 -0.000214389812659494 125000 -381.254573036794 0 0 65 (C1) n - 1
REM
REM in /home/nfs/bkarasulu/CARBON/AIRSS/Generating-Clusters/TERSOFF/Only-C1/FIRE-HFTN
REM
REM
REM
REM
REM
REM ./C.cell (11c1c37f851c82e70ff6c80c92926a4b)
REM AIRSS Version 0.9.1 bugfix July 2018 build 013d7b7c2542+ Fri, 06 Jul 2018 19:26:36 +0100
REM compiler GCC version 9.2.1 20190827 (Red Hat 9.2.1-1)
REM options -cpp -mtune=generic -march=x86-64 -g -O0 -fpre-include=/usr/include/finclude/math-vector-fortran.h
REM seed 1756503987 1483283096 -1899914091 -1985493686 -242678481 1303478319 -105072685 1386497790 -191800634 -1627711409 -2119970218 174565432 845179857 -585567974 781628009 -1728571977 -1194946331 -1712081686 -135496022 -1258732248 1472638568 -1319359452 -99388659 -1319348522 1783588810 1142948679 1410432222 1042255352 -2090442003 1524931788 1490723900 1833941268 1322316743
REM
CELL 1.54180   50.00000   50.00000   50.00000   90.00000   90.00000   90.00000
LATT -1
SFAC C  
C      1  0.5299450000000  0.4224200000000  0.4612710000000 1.0
C      1  0.5567100000000  0.5236400000000  0.5059680000000 1.0
C      1  0.4805660000000  0.4694410000000  0.4948470000000 1.0
C      1  0.5443260000000  0.5509970000000  0.5087550000000 1.0
C      1  0.5472340000000  0.5021810000000  0.4887260000000 1.0
C      1  0.4603740000000  0.5304620000000  0.5684120000000 1.0
C      1  0.5085590000000  0.4657900000000  0.5543660000000 1.0
C      1  0.4556800000000  0.4450560000000  0.4487100000000 1.0
C      1  0.4872380000000  0.5356560000000  0.5778520000000 1.0
C      1  0.4582560000000  0.5840960000000  0.5374340000000 1.0
C      1  0.4363860000000  0.4954800000000  0.5121840000000 1.0
C      1  0.5085150000000  0.4390960000000  0.4536740000000 1.0
C      1  0.5338890000000  0.5446420000000  0.4473960000000 1.0
C      1  0.5544080000000  0.5230210000000  0.5537340000000 1.0
C      1  0.5569610000000  0.4551490000000  0.4809300000000 1.0
C      1  0.6073060000000  0.4857690000000  0.5382070000000 1.0
C      1  0.4917870000000  0.4592040000000  0.4692460000000 1.0
C      1  0.4481540000000  0.5563730000000  0.5754230000000 1.0
C      1  0.5032870000000  0.4219060000000  0.5022630000000 1.0
C      1  0.5491180000000  0.4503980000000  0.5085980000000 1.0
C      1  0.4711620000000  0.5354510000000  0.5172570000000 1.0
C      1  0.4798700000000  0.5931670000000  0.5206170000000 1.0
C      1  0.4766200000000  0.5452260000000  0.4724890000000 1.0
C      1  0.4189050000000  0.5454890000000  0.5318780000000 1.0
C      1  0.4736310000000  0.4681350000000  0.4479960000000 1.0
C      1  0.4577230000000  0.5244700000000  0.5405680000000 1.0
C      1  0.5075390000000  0.4408030000000  0.4248810000000 1.0
C      1  0.5651840000000  0.4646350000000  0.5271890000000 1.0
C      1  0.5548500000000  0.4317190000000  0.4656090000000 1.0
C      1  0.5679110000000  0.5131630000000  0.5308660000000 1.0
C      1  0.4643470000000  0.5176860000000  0.3947530000000 1.0
C      1  0.5172430000000  0.4420130000000  0.5444970000000 1.0
C      1  0.5032530000000  0.4877760000000  0.5379210000000 1.0
C      1  0.4588950000000  0.5481040000000  0.4936910000000 1.0
C      1  0.4806580000000  0.4174240000000  0.4867490000000 1.0
C      1  0.4621990000000  0.4243890000000  0.4669500000000 1.0
C      1  0.5255640000000  0.5687100000000  0.5241120000000 1.0
C      1  0.4398340000000  0.4476520000000  0.5112250000000 1.0
C      1  0.5057320000000  0.5869390000000  0.5147000000000 1.0
C      1  0.5217540000000  0.4923470000000  0.4962250000000 1.0
C      1  0.5807010000000  0.4877370000000  0.5322790000000 1.0
C      1  0.5102840000000  0.5153570000000  0.5355610000000 1.0
C      1  0.4338260000000  0.5710200000000  0.5255060000000 1.0
C      1  0.4391580000000  0.5673450000000  0.4974450000000 1.0
C      1  0.5009510000000  0.5322340000000  0.4810130000000 1.0
C      1  0.5192470000000  0.5586300000000  0.5509370000000 1.0
C      1  0.5138130000000  0.5001270000000  0.4454090000000 1.0
C      1  0.4951780000000  0.5623240000000  0.5665520000000 1.0
C      1  0.4132340000000  0.4063190000000  0.5298440000000 1.0
C      1  0.5392540000000  0.4853490000000  0.4438490000000 1.0
C      1  0.4674060000000  0.5752230000000  0.5631700000000 1.0
C      1  0.5245730000000  0.4356240000000  0.5174100000000 1.0
C      1  0.5264890000000  0.4529030000000  0.4097020000000 1.0
C      1  0.4313460000000  0.5184930000000  0.5296050000000 1.0
C      1  0.5506070000000  0.5620440000000  0.4375640000000 1.0
C      1  0.5276030000000  0.5310340000000  0.5517410000000 1.0
C      1  0.5435160000000  0.4714690000000  0.4196410000000 1.0
C      1  0.4750820000000  0.5043370000000  0.4143890000000 1.0
C      1  0.4983860000000  0.5278830000000  0.5113130000000 1.0
C      1  0.4525160000000  0.4720790000000  0.5046250000000 1.0
C      1  0.5007970000000  0.4808940000000  0.5103640000000 1.0
C      1  0.4261170000000  0.4271050000000  0.5208150000000 1.0
C      1  0.5167480000000  0.5255280000000  0.4585330000000 1.0
C      1  0.5544430000000  0.4819900000000  0.4688270000000 1.0
C      1  0.4871520000000  0.4908710000000  0.4357360000000 1.0
END
