TITL C-599890-3321-176 -9.90879458724856e-05 125000 -838.060561063553 0 0 138 (C1) n - 1
REM
REM in /home/nfs/bkarasulu/CARBON/AIRSS/Generating-Clusters/TERSOFF/Only-C1/FIRE-HFTN
REM
REM
REM
REM
REM
REM ./C.cell (11c1c37f851c82e70ff6c80c92926a4b)
REM AIRSS Version 0.9.1 bugfix July 2018 build 013d7b7c2542+ Fri, 06 Jul 2018 19:26:36 +0100
REM compiler GCC version 9.2.1 20190827 (Red Hat 9.2.1-1)
REM options -cpp -mtune=generic -march=x86-64 -g -O0 -fpre-include=/usr/include/finclude/math-vector-fortran.h
REM seed -224206139 112776249 -1821840296 -2127307819 -326538875 2146302502 1189282614 -654459837 -1133644537 -2144634007 968343253 -627335415 142033338 1410632515 518921970 -2061184548 -488882935 1323940233 -353584829 1766048951 266461531 1761036326 -654242102 1814921020 -329712870 869005616 803553137 211226811 1013913032 638262250 240255060 920221123 100997352
REM
CELL 1.54180   50.00000   50.00000   50.00000   90.00000   90.00000   90.00000
LATT -1
SFAC C  
C      1  0.5446990000000  0.6163780000000  0.4710870000000 1.0
C      1  0.4425300000000  0.4129520000000  0.4295940000000 1.0
C      1  0.4111690000000  0.4579240000000  0.4612230000000 1.0
C      1  0.4588170000000  0.5242550000000  0.4426860000000 1.0
C      1  0.4297060000000  0.5814660000000  0.4725320000000 1.0
C      1  0.6031880000000  0.4528100000000  0.3875230000000 1.0
C      1  0.5421020000000  0.5940110000000  0.5206370000000 1.0
C      1  0.5061810000000  0.4919510000000  0.5698050000000 1.0
C      1  0.4607580000000  0.4875080000000  0.4850810000000 1.0
C      1  0.4745970000000  0.4884270000000  0.6132150000000 1.0
C      1  0.5306260000000  0.4932880000000  0.5528250000000 1.0
C      1  0.5417740000000  0.5248580000000  0.3730150000000 1.0
C      1  0.3932920000000  0.4973830000000  0.5715120000000 1.0
C      1  0.5459590000000  0.6178090000000  0.4445580000000 1.0
C      1  0.4314020000000  0.4283380000000  0.5781010000000 1.0
C      1  0.4538310000000  0.5046420000000  0.6055540000000 1.0
C      1  0.5477440000000  0.4687660000000  0.4735830000000 1.0
C      1  0.5265920000000  0.5368350000000  0.6211750000000 1.0
C      1  0.4323690000000  0.4178750000000  0.5159620000000 1.0
C      1  0.5255300000000  0.6195990000000  0.5581040000000 1.0
C      1  0.3758630000000  0.4831840000000  0.5567910000000 1.0
C      1  0.4915580000000  0.5436530000000  0.5354720000000 1.0
C      1  0.4878930000000  0.5132220000000  0.5711510000000 1.0
C      1  0.5793600000000  0.5317130000000  0.5489190000000 1.0
C      1  0.5409990000000  0.4491330000000  0.4182310000000 1.0
C      1  0.4369800000000  0.4472670000000  0.4634790000000 1.0
C      1  0.4907390000000  0.4873900000000  0.4133530000000 1.0
C      1  0.5882540000000  0.4799080000000  0.4993110000000 1.0
C      1  0.5711030000000  0.4127880000000  0.4942100000000 1.0
C      1  0.3931680000000  0.4771840000000  0.4657330000000 1.0
C      1  0.5207580000000  0.5378320000000  0.5351680000000 1.0
C      1  0.5425340000000  0.4472250000000  0.5578470000000 1.0
C      1  0.4854470000000  0.3987260000000  0.4704850000000 1.0
C      1  0.5884900000000  0.5063600000000  0.5383790000000 1.0
C      1  0.3977020000000  0.5141750000000  0.4072070000000 1.0
C      1  0.5030790000000  0.5437640000000  0.6105260000000 1.0
C      1  0.5519060000000  0.5116630000000  0.4326540000000 1.0
C      1  0.4681570000000  0.5442610000000  0.4612910000000 1.0
C      1  0.5241130000000  0.4379500000000  0.5801810000000 1.0
C      1  0.4768690000000  0.4409100000000  0.5869880000000 1.0
C      1  0.5815200000000  0.5336540000000  0.4996500000000 1.0
C      1  0.5061380000000  0.5182820000000  0.4426390000000 1.0
C      1  0.4565220000000  0.4122500000000  0.5035350000000 1.0
C      1  0.4871390000000  0.5363700000000  0.5890090000000 1.0
C      1  0.5079130000000  0.5036440000000  0.4675530000000 1.0
C      1  0.5438520000000  0.6081610000000  0.4963470000000 1.0
C      1  0.4233100000000  0.4819230000000  0.5190380000000 1.0
C      1  0.5005580000000  0.4747680000000  0.6114020000000 1.0
C      1  0.5269530000000  0.5516150000000  0.4901880000000 1.0
C      1  0.5616790000000  0.5584400000000  0.4581780000000 1.0
C      1  0.5704300000000  0.5354860000000  0.4731370000000 1.0
C      1  0.5581000000000  0.5117780000000  0.4611840000000 1.0
C      1  0.6180950000000  0.4514440000000  0.3661910000000 1.0
C      1  0.4427740000000  0.5466610000000  0.5749330000000 1.0
C      1  0.4036430000000  0.4613340000000  0.5214730000000 1.0
C      1  0.4834520000000  0.5066900000000  0.4843010000000 1.0
C      1  0.4351580000000  0.4941030000000  0.4956720000000 1.0
C      1  0.5947170000000  0.4441420000000  0.4356080000000 1.0
C      1  0.5337080000000  0.5044100000000  0.5050260000000 1.0
C      1  0.5644680000000  0.4841050000000  0.5877780000000 1.0
C      1  0.4854270000000  0.5676950000000  0.5542860000000 1.0
C      1  0.5205250000000  0.6010160000000  0.5384830000000 1.0
C      1  0.4526900000000  0.5951510000000  0.4697300000000 1.0
C      1  0.5533830000000  0.4944440000000  0.4097950000000 1.0
C      1  0.3693150000000  0.5172930000000  0.4810010000000 1.0
C      1  0.4841750000000  0.4514790000000  0.4667980000000 1.0
C      1  0.5942370000000  0.4638170000000  0.4554660000000 1.0
C      1  0.4285550000000  0.5523330000000  0.5502210000000 1.0
C      1  0.5614090000000  0.4668180000000  0.4102560000000 1.0
C      1  0.4600400000000  0.4627520000000  0.4711770000000 1.0
C      1  0.5437700000000  0.4259530000000  0.5353180000000 1.0
C      1  0.5592680000000  0.5115190000000  0.5942970000000 1.0
C      1  0.5908970000000  0.5074810000000  0.5084030000000 1.0
C      1  0.5474160000000  0.6112800000000  0.4188090000000 1.0
C      1  0.5295930000000  0.5312150000000  0.4327420000000 1.0
C      1  0.5199510000000  0.4509170000000  0.4371620000000 1.0
C      1  0.5871730000000  0.4544870000000  0.4101150000000 1.0
C      1  0.4510080000000  0.5151250000000  0.5352780000000 1.0
C      1  0.5592920000000  0.5286440000000  0.5700240000000 1.0
C      1  0.5395600000000  0.5128000000000  0.6151770000000 1.0
C      1  0.5081660000000  0.4942850000000  0.3916790000000 1.0
C      1  0.5295450000000  0.5322220000000  0.5090320000000 1.0
C      1  0.5362520000000  0.4962710000000  0.4768100000000 1.0
C      1  0.5351680000000  0.5025750000000  0.3886410000000 1.0
C      1  0.4503210000000  0.4673560000000  0.5569390000000 1.0
C      1  0.5262060000000  0.4272260000000  0.4861600000000 1.0
C      1  0.5022140000000  0.4125210000000  0.4895410000000 1.0
C      1  0.4130030000000  0.5651370000000  0.4884060000000 1.0
C      1  0.5038480000000  0.4671050000000  0.5215590000000 1.0
C      1  0.5759120000000  0.5494880000000  0.5247910000000 1.0
C      1  0.5460120000000  0.5510850000000  0.3711150000000 1.0
C      1  0.4488060000000  0.5924730000000  0.5239580000000 1.0
C      1  0.4373150000000  0.5193510000000  0.5865630000000 1.0
C      1  0.4832020000000  0.4210050000000  0.5105500000000 1.0
C      1  0.5402740000000  0.5566030000000  0.4407590000000 1.0
C      1  0.4419000000000  0.4194870000000  0.4569170000000 1.0
C      1  0.5473870000000  0.4231110000000  0.5062470000000 1.0
C      1  0.5299700000000  0.4477230000000  0.4652960000000 1.0
C      1  0.4203560000000  0.5155190000000  0.4797440000000 1.0
C      1  0.4703730000000  0.5565450000000  0.5767730000000 1.0
C      1  0.3798240000000  0.4680120000000  0.5349230000000 1.0
C      1  0.5237330000000  0.4891540000000  0.6197610000000 1.0
C      1  0.4813860000000  0.5104410000000  0.4293120000000 1.0
C      1  0.3877090000000  0.5737110000000  0.4945800000000 1.0
C      1  0.4896590000000  0.4447140000000  0.5236930000000 1.0
C      1  0.4764970000000  0.5847980000000  0.5118940000000 1.0
C      1  0.5842380000000  0.4091330000000  0.4709390000000 1.0
C      1  0.5480700000000  0.5761540000000  0.3797990000000 1.0
C      1  0.4944130000000  0.5897450000000  0.5368590000000 1.0
C      1  0.5231300000000  0.4092350000000  0.5748160000000 1.0
C      1  0.4769790000000  0.5356370000000  0.4870390000000 1.0
C      1  0.5334390000000  0.4026270000000  0.5499670000000 1.0
C      1  0.4526070000000  0.4450040000000  0.5737530000000 1.0
C      1  0.5023600000000  0.4507510000000  0.5944930000000 1.0
C      1  0.5921420000000  0.4181940000000  0.4466850000000 1.0
C      1  0.4594300000000  0.4225100000000  0.4110900000000 1.0
C      1  0.4120530000000  0.4348430000000  0.5186290000000 1.0
C      1  0.5483420000000  0.5969180000000  0.3964320000000 1.0
C      1  0.5236790000000  0.4865370000000  0.5245740000000 1.0
C      1  0.3922580000000  0.5037740000000  0.4755380000000 1.0
C      1  0.5618330000000  0.5741290000000  0.5258740000000 1.0
C      1  0.4792930000000  0.4402740000000  0.4113430000000 1.0
C      1  0.4315100000000  0.5177190000000  0.4491170000000 1.0
C      1  0.4330810000000  0.5368430000000  0.5260900000000 1.0
C      1  0.4572340000000  0.4042570000000  0.4753070000000 1.0
C      1  0.4132780000000  0.5155260000000  0.4280580000000 1.0
C      1  0.4805970000000  0.5537410000000  0.5087870000000 1.0
C      1  0.4766930000000  0.5200920000000  0.5455120000000 1.0
C      1  0.4223250000000  0.5399850000000  0.4988320000000 1.0
C      1  0.5354470000000  0.5234480000000  0.5547880000000 1.0
C      1  0.5547190000000  0.4747270000000  0.5609570000000 1.0
C      1  0.4361140000000  0.4906640000000  0.5451160000000 1.0
C      1  0.4207330000000  0.5026540000000  0.5693610000000 1.0
C      1  0.4952380000000  0.4602080000000  0.4234590000000 1.0
C      1  0.4749900000000  0.5975320000000  0.4851280000000 1.0
C      1  0.5796020000000  0.4793290000000  0.5448170000000 1.0
C      1  0.5765820000000  0.4696970000000  0.4760610000000 1.0
C      1  0.5869020000000  0.4633370000000  0.5226130000000 1.0
END
