TITL C-599897-7526-666 0.00573302107600271 125000 -931.485698375023 0 0 149 (C1) n - 1
REM
REM in /home/nfs/bkarasulu/CARBON/AIRSS/Generating-Clusters/TERSOFF/Only-C1/FIRE-HFTN
REM
REM
REM
REM
REM
REM ./C.cell (11c1c37f851c82e70ff6c80c92926a4b)
REM AIRSS Version 0.9.1 bugfix July 2018 build 013d7b7c2542+ Fri, 06 Jul 2018 19:26:36 +0100
REM compiler GCC version 9.2.1 20190827 (Red Hat 9.2.1-1)
REM options -cpp -mtune=generic -march=x86-64 -g -O0 -fpre-include=/usr/include/finclude/math-vector-fortran.h
REM seed -92136834 735434240 -2146070655 -647114644 -1628457178 -71220032 995790476 348366403 -2045579998 -2026892648 -1891039262 -1298416013 -908149466 -588736743 -1457678078 280788517 1815261749 634242733 -2146556613 796955800 1278354819 -462463493 118635135 -187658159 1630838980 -1921832888 655264313 -1704263769 -741320103 -1043749951 2035406381 14380757 -139746286
REM
CELL 1.54180   50.00000   50.00000   50.00000   90.00000   90.00000   90.00000
LATT -1
SFAC C  
C      1  0.4427750000000  0.4123360000000  0.5268310000000 1.0
C      1  0.5569680000000  0.5300090000000  0.4651900000000 1.0
C      1  0.4463950000000  0.5607760000000  0.5333210000000 1.0
C      1  0.5851550000000  0.5295620000000  0.4705850000000 1.0
C      1  0.4763760000000  0.4940890000000  0.5983320000000 1.0
C      1  0.5967200000000  0.5443480000000  0.5175370000000 1.0
C      1  0.5696330000000  0.5710010000000  0.4077540000000 1.0
C      1  0.4503580000000  0.4876590000000  0.5420010000000 1.0
C      1  0.4140650000000  0.5354570000000  0.4603630000000 1.0
C      1  0.4822060000000  0.4565590000000  0.6285850000000 1.0
C      1  0.5250870000000  0.5411060000000  0.5526130000000 1.0
C      1  0.6111410000000  0.4068460000000  0.5522620000000 1.0
C      1  0.5127500000000  0.5387570000000  0.5019980000000 1.0
C      1  0.4926560000000  0.5179220000000  0.3946270000000 1.0
C      1  0.4883660000000  0.5978110000000  0.5564610000000 1.0
C      1  0.3908250000000  0.4955080000000  0.5423600000000 1.0
C      1  0.4072770000000  0.4638000000000  0.4730740000000 1.0
C      1  0.4689970000000  0.5137580000000  0.4685410000000 1.0
C      1  0.6241290000000  0.4312140000000  0.5546040000000 1.0
C      1  0.4063890000000  0.4415330000000  0.5192760000000 1.0
C      1  0.4819760000000  0.5667610000000  0.4747430000000 1.0
C      1  0.5283070000000  0.5778270000000  0.4756690000000 1.0
C      1  0.4669530000000  0.5246920000000  0.5131450000000 1.0
C      1  0.5277120000000  0.4932820000000  0.4629030000000 1.0
C      1  0.5632780000000  0.6270920000000  0.5694320000000 1.0
C      1  0.5398700000000  0.5022690000000  0.3858910000000 1.0
C      1  0.5539650000000  0.5868360000000  0.4816550000000 1.0
C      1  0.5130680000000  0.4962280000000  0.3952980000000 1.0
C      1  0.4592080000000  0.5453240000000  0.4350820000000 1.0
C      1  0.4582120000000  0.5784150000000  0.4906590000000 1.0
C      1  0.4850280000000  0.4423880000000  0.5825400000000 1.0
C      1  0.4577760000000  0.5820570000000  0.5187330000000 1.0
C      1  0.4559610000000  0.4784970000000  0.4963610000000 1.0
C      1  0.4512150000000  0.5754360000000  0.4412390000000 1.0
C      1  0.6009750000000  0.4864900000000  0.4910170000000 1.0
C      1  0.5966770000000  0.5475830000000  0.4894610000000 1.0
C      1  0.4924090000000  0.5326050000000  0.5199480000000 1.0
C      1  0.5081200000000  0.5055910000000  0.4474950000000 1.0
C      1  0.5085370000000  0.4706810000000  0.4100330000000 1.0
C      1  0.3792200000000  0.5373610000000  0.5021530000000 1.0
C      1  0.5141840000000  0.3961890000000  0.4951060000000 1.0
C      1  0.3871180000000  0.5114510000000  0.4948300000000 1.0
C      1  0.4709720000000  0.5404160000000  0.4624870000000 1.0
C      1  0.5486970000000  0.5294380000000  0.3790900000000 1.0
C      1  0.5322450000000  0.4568610000000  0.5324530000000 1.0
C      1  0.4144160000000  0.4378730000000  0.4639540000000 1.0
C      1  0.3902750000000  0.4900070000000  0.5135500000000 1.0
C      1  0.4754450000000  0.4682070000000  0.4552090000000 1.0
C      1  0.4822820000000  0.4957420000000  0.4518970000000 1.0
C      1  0.5572260000000  0.4131370000000  0.4701400000000 1.0
C      1  0.5892140000000  0.5179760000000  0.5246240000000 1.0
C      1  0.4116620000000  0.4828050000000  0.3913620000000 1.0
C      1  0.4812430000000  0.4645920000000  0.6019170000000 1.0
C      1  0.4904530000000  0.5354670000000  0.4175160000000 1.0
C      1  0.4504100000000  0.5077230000000  0.5945330000000 1.0
C      1  0.5609760000000  0.4869690000000  0.3985760000000 1.0
C      1  0.4580040000000  0.4751790000000  0.4011320000000 1.0
C      1  0.5639720000000  0.5445060000000  0.3987350000000 1.0
C      1  0.4420010000000  0.4726770000000  0.5194130000000 1.0
C      1  0.5458430000000  0.5874730000000  0.5366480000000 1.0
C      1  0.4014820000000  0.5114480000000  0.4704710000000 1.0
C      1  0.3945240000000  0.4525390000000  0.5654940000000 1.0
C      1  0.4099130000000  0.5133130000000  0.5537520000000 1.0
C      1  0.4365080000000  0.5767780000000  0.4697660000000 1.0
C      1  0.4808280000000  0.4613310000000  0.4105440000000 1.0
C      1  0.4363630000000  0.5113630000000  0.5442760000000 1.0
C      1  0.4849520000000  0.4360140000000  0.5182970000000 1.0
C      1  0.5828490000000  0.5528910000000  0.5638200000000 1.0
C      1  0.6092710000000  0.4513950000000  0.5402480000000 1.0
C      1  0.5566460000000  0.4109880000000  0.4993850000000 1.0
C      1  0.5846950000000  0.4857010000000  0.4449240000000 1.0
C      1  0.4392440000000  0.4276150000000  0.5524330000000 1.0
C      1  0.5030190000000  0.5244000000000  0.5445240000000 1.0
C      1  0.4211100000000  0.4171410000000  0.4800740000000 1.0
C      1  0.3815120000000  0.4755490000000  0.5600950000000 1.0
C      1  0.4015040000000  0.5681330000000  0.5299420000000 1.0
C      1  0.5654140000000  0.5152190000000  0.5397220000000 1.0
C      1  0.4473670000000  0.5331820000000  0.5308330000000 1.0
C      1  0.5638830000000  0.5267160000000  0.4213020000000 1.0
C      1  0.4776600000000  0.5221890000000  0.3720730000000 1.0
C      1  0.5474670000000  0.4387440000000  0.4286480000000 1.0
C      1  0.4742080000000  0.5640590000000  0.6015990000000 1.0
C      1  0.5699840000000  0.5896940000000  0.4580820000000 1.0
C      1  0.4328300000000  0.5279460000000  0.4377140000000 1.0
C      1  0.4326300000000  0.4854190000000  0.4089170000000 1.0
C      1  0.4276350000000  0.4983560000000  0.4340290000000 1.0
C      1  0.4488530000000  0.5555210000000  0.5997360000000 1.0
C      1  0.4116140000000  0.4877310000000  0.4574070000000 1.0
C      1  0.5670710000000  0.5268450000000  0.5692610000000 1.0
C      1  0.5653150000000  0.4345370000000  0.4510520000000 1.0
C      1  0.5569800000000  0.5879080000000  0.5100500000000 1.0
C      1  0.4896400000000  0.4001240000000  0.4532660000000 1.0
C      1  0.5429030000000  0.5047350000000  0.5269050000000 1.0
C      1  0.5361300000000  0.3960140000000  0.4625050000000 1.0
C      1  0.5424970000000  0.5103930000000  0.4791400000000 1.0
C      1  0.5002800000000  0.5615150000000  0.5907310000000 1.0
C      1  0.6032450000000  0.4906790000000  0.5676250000000 1.0
C      1  0.4695370000000  0.4121450000000  0.5180480000000 1.0
C      1  0.5955190000000  0.5607710000000  0.5407300000000 1.0
C      1  0.5864510000000  0.4377230000000  0.5268250000000 1.0
C      1  0.4753000000000  0.4483470000000  0.4352330000000 1.0
C      1  0.5723800000000  0.5844970000000  0.4314000000000 1.0
C      1  0.5379350000000  0.5322890000000  0.5772720000000 1.0
C      1  0.6036220000000  0.4947550000000  0.5183150000000 1.0
C      1  0.5150100000000  0.5355710000000  0.5955510000000 1.0
C      1  0.4729470000000  0.5997670000000  0.5344620000000 1.0
C      1  0.4901200000000  0.3945260000000  0.4815680000000 1.0
C      1  0.5717510000000  0.4504050000000  0.5060560000000 1.0
C      1  0.5146560000000  0.5307660000000  0.4349250000000 1.0
C      1  0.4756360000000  0.4209570000000  0.4409170000000 1.0
C      1  0.5960760000000  0.5029990000000  0.4670360000000 1.0
C      1  0.3991140000000  0.4644830000000  0.5021620000000 1.0
C      1  0.5266970000000  0.5695610000000  0.5491490000000 1.0
C      1  0.5807240000000  0.4583790000000  0.4575810000000 1.0
C      1  0.4219500000000  0.4192000000000  0.5080830000000 1.0
C      1  0.4613990000000  0.5059870000000  0.4934180000000 1.0
C      1  0.4944300000000  0.4481990000000  0.4946790000000 1.0
C      1  0.5064370000000  0.5793850000000  0.5679230000000 1.0
C      1  0.5249750000000  0.4306750000000  0.5429510000000 1.0
C      1  0.4642620000000  0.4390230000000  0.5619920000000 1.0
C      1  0.5431500000000  0.4543040000000  0.5060290000000 1.0
C      1  0.4129940000000  0.4403540000000  0.5483720000000 1.0
C      1  0.4146300000000  0.5594790000000  0.4770760000000 1.0
C      1  0.4119430000000  0.5363160000000  0.5711960000000 1.0
C      1  0.4782230000000  0.4808660000000  0.5454540000000 1.0
C      1  0.5886100000000  0.4101540000000  0.5363580000000 1.0
C      1  0.4785950000000  0.5852490000000  0.4495070000000 1.0
C      1  0.3983260000000  0.5588510000000  0.5025830000000 1.0
C      1  0.5314340000000  0.4084580000000  0.5149130000000 1.0
C      1  0.5085270000000  0.5613940000000  0.4854560000000 1.0
C      1  0.4783130000000  0.4526610000000  0.5402300000000 1.0
C      1  0.5333180000000  0.5187110000000  0.5037150000000 1.0
C      1  0.5020440000000  0.4956130000000  0.5476830000000 1.0
C      1  0.5261610000000  0.4576290000000  0.4315210000000 1.0
C      1  0.4038300000000  0.5600330000000  0.5563200000000 1.0
C      1  0.5854670000000  0.5062590000000  0.5812190000000 1.0
C      1  0.4988930000000  0.5123100000000  0.6016210000000 1.0
C      1  0.4348170000000  0.5327040000000  0.5903570000000 1.0
C      1  0.5730810000000  0.4986950000000  0.4218390000000 1.0
C      1  0.5872820000000  0.4617040000000  0.4855790000000 1.0
C      1  0.5103220000000  0.4315320000000  0.5688930000000 1.0
C      1  0.5548910000000  0.6084310000000  0.5532910000000 1.0
C      1  0.5439270000000  0.5350950000000  0.4400330000000 1.0
C      1  0.5219740000000  0.4527690000000  0.4856470000000 1.0
C      1  0.5267240000000  0.4840250000000  0.5390570000000 1.0
C      1  0.5159520000000  0.3934370000000  0.4440610000000 1.0
C      1  0.6092080000000  0.4792200000000  0.5420440000000 1.0
C      1  0.4729790000000  0.4614950000000  0.4818620000000 1.0
C      1  0.5260570000000  0.4655620000000  0.4602230000000 1.0
END
