TITL C-599893-4344-761 15.0105713017787 125000 -398.218271853537 0 0 67 (C1) n - 1
REM
REM in /home/nfs/bkarasulu/CARBON/AIRSS/Generating-Clusters/TERSOFF/Only-C1/FIRE-HFTN
REM
REM
REM
REM
REM
REM ./C.cell (11c1c37f851c82e70ff6c80c92926a4b)
REM AIRSS Version 0.9.1 bugfix July 2018 build 013d7b7c2542+ Fri, 06 Jul 2018 19:26:36 +0100
REM compiler GCC version 9.2.1 20190827 (Red Hat 9.2.1-1)
REM options -cpp -mtune=generic -march=x86-64 -g -O0 -fpre-include=/usr/include/finclude/math-vector-fortran.h
REM seed 2045068945 886829714 -998591706 1518521095 -1086804772 1815553885 1481924474 385866151 -471102039 2021146452 644290346 109744506 1687365114 1636973946 347587007 1287466023 -803858279 -868713794 1297776620 1422258466 1354058011 734453467 133811221 -1866057588 -285254188 866902140 -519802990 -450151636 896220701 -967776041 1023355345 861853961 -782088269
REM
CELL 1.54180   50.00000   50.00000   50.00000   90.00000   90.00000   90.00000
LATT -1
SFAC C  
C      1  0.4576010000000  0.4866550000000  0.5420830000000 1.0
C      1  0.5086680000000  0.4579490000000  0.4579830000000 1.0
C      1  0.4780200000000  0.5241510000000  0.5124480000000 1.0
C      1  0.4163760000000  0.4649960000000  0.4132860000000 1.0
C      1  0.5400710000000  0.4523900000000  0.5328670000000 1.0
C      1  0.5936970000000  0.6157870000000  0.5750340000000 1.0
C      1  0.4886430000000  0.5642480000000  0.5255380000000 1.0
C      1  0.4978190000000  0.4795250000000  0.4750390000000 1.0
C      1  0.4500320000000  0.5357560000000  0.5476240000000 1.0
C      1  0.5327500000000  0.4253640000000  0.5277730000000 1.0
C      1  0.4568670000000  0.4911440000000  0.4174920000000 1.0
C      1  0.4407600000000  0.5096650000000  0.5362380000000 1.0
C      1  0.4850170000000  0.4263550000000  0.5400540000000 1.0
C      1  0.4754060000000  0.4790410000000  0.5200230000000 1.0
C      1  0.4278570000000  0.4947750000000  0.4845370000000 1.0
C      1  0.5525550000000  0.5310200000000  0.4910270000000 1.0
C      1  0.5053900000000  0.4215260000000  0.5200560000000 1.0
C      1  0.4948390000000  0.5516770000000  0.4409670000000 1.0
C      1  0.4994680000000  0.4248380000000  0.4923270000000 1.0
C      1  0.4384030000000  0.4716580000000  0.4284200000000 1.0
C      1  0.5421020000000  0.5269070000000  0.5443460000000 1.0
C      1  0.4332080000000  0.5117420000000  0.5076300000000 1.0
C      1  0.5047510000000  0.5327250000000  0.4794530000000 1.0
C      1  0.5169790000000  0.5502720000000  0.4607400000000 1.0
C      1  0.5811050000000  0.5935880000000  0.5679020000000 1.0
C      1  0.5343730000000  0.4726150000000  0.5139680000000 1.0
C      1  0.4695380000000  0.5583880000000  0.4544530000000 1.0
C      1  0.4737770000000  0.5122930000000  0.4140430000000 1.0
C      1  0.4680960000000  0.5565420000000  0.5432400000000 1.0
C      1  0.4794670000000  0.4662630000000  0.4952640000000 1.0
C      1  0.4934330000000  0.5013230000000  0.5186540000000 1.0
C      1  0.4923390000000  0.4418000000000  0.5628870000000 1.0
C      1  0.4549200000000  0.5512740000000  0.4769030000000 1.0
C      1  0.4528100000000  0.5320800000000  0.4987650000000 1.0
C      1  0.4663450000000  0.5102570000000  0.4587290000000 1.0
C      1  0.5429270000000  0.5527320000000  0.4732470000000 1.0
C      1  0.5688620000000  0.5121810000000  0.4764030000000 1.0
C      1  0.5503230000000  0.4046310000000  0.5300260000000 1.0
C      1  0.4652010000000  0.4422160000000  0.4577230000000 1.0
C      1  0.4747420000000  0.4393350000000  0.4852940000000 1.0
C      1  0.4879340000000  0.4475550000000  0.4401290000000 1.0
C      1  0.5911590000000  0.5008830000000  0.4873630000000 1.0
C      1  0.5218540000000  0.5188660000000  0.4172780000000 1.0
C      1  0.4906330000000  0.4417240000000  0.4137820000000 1.0
C      1  0.6062930000000  0.6379910000000  0.5821690000000 1.0
C      1  0.4949160000000  0.4694130000000  0.5704950000000 1.0
C      1  0.5397890000000  0.5208510000000  0.5160170000000 1.0
C      1  0.6186810000000  0.6598300000000  0.5891850000000 1.0
C      1  0.4575690000000  0.4239610000000  0.5333260000000 1.0
C      1  0.5558670000000  0.5492950000000  0.5534630000000 1.0
C      1  0.4415250000000  0.4583600000000  0.4543040000000 1.0
C      1  0.5290360000000  0.5085230000000  0.5626790000000 1.0
C      1  0.5442090000000  0.5098340000000  0.4289730000000 1.0
C      1  0.4958140000000  0.5451240000000  0.5047500000000 1.0
C      1  0.4277020000000  0.4663330000000  0.4794990000000 1.0
C      1  0.5191760000000  0.4358040000000  0.4737230000000 1.0
C      1  0.5218680000000  0.4980270000000  0.5137640000000 1.0
C      1  0.5214640000000  0.4813270000000  0.5683070000000 1.0
C      1  0.4957580000000  0.5296750000000  0.4211130000000 1.0
C      1  0.4246780000000  0.4476110000000  0.5005130000000 1.0
C      1  0.4396550000000  0.5078660000000  0.4618840000000 1.0
C      1  0.4704530000000  0.4834660000000  0.5672720000000 1.0
C      1  0.5685110000000  0.5713910000000  0.5607660000000 1.0
C      1  0.4360610000000  0.4325410000000  0.5196600000000 1.0
C      1  0.5409140000000  0.4622110000000  0.5594440000000 1.0
C      1  0.4924550000000  0.5072740000000  0.4696960000000 1.0
C      1  0.5604920000000  0.5065830000000  0.4499600000000 1.0
END
