TITL C-599897-7526-1236 4.95897041322737e-05 125000 -530.714235901355 0 0 87 (C1) n - 1
REM
REM in /home/nfs/bkarasulu/CARBON/AIRSS/Generating-Clusters/TERSOFF/Only-C1/FIRE-HFTN
REM
REM
REM
REM
REM
REM ./C.cell (11c1c37f851c82e70ff6c80c92926a4b)
REM AIRSS Version 0.9.1 bugfix July 2018 build 013d7b7c2542+ Fri, 06 Jul 2018 19:26:36 +0100
REM compiler GCC version 9.2.1 20190827 (Red Hat 9.2.1-1)
REM options -cpp -mtune=generic -march=x86-64 -g -O0 -fpre-include=/usr/include/finclude/math-vector-fortran.h
REM seed 498699326 1996227489 -1450585114 734158854 -598049391 1400202028 1221377172 -695445056 351690757 1656600564 -1388652692 1133707135 887085141 1015540901 1949437617 1907978725 -1884897099 -257307586 972669657 -238073351 150415201 -526300600 167429234 -671838241 620636159 1731046839 -266746083 1983073311 -556645501 1894314399 1304853007 253092661 -1491806776
REM
CELL 1.54180   50.00000   50.00000   50.00000   90.00000   90.00000   90.00000
LATT -1
SFAC C  
C      1  0.5424610000000  0.5737490000000  0.4784910000000 1.0
C      1  0.4651990000000  0.5791420000000  0.5154020000000 1.0
C      1  0.5316500000000  0.4951350000000  0.5622480000000 1.0
C      1  0.4930120000000  0.5320050000000  0.4868500000000 1.0
C      1  0.4317980000000  0.5336810000000  0.4692860000000 1.0
C      1  0.4552430000000  0.4776360000000  0.4507010000000 1.0
C      1  0.4736040000000  0.4348820000000  0.4405750000000 1.0
C      1  0.5666710000000  0.5554130000000  0.5179650000000 1.0
C      1  0.5020580000000  0.4560650000000  0.5080600000000 1.0
C      1  0.5599060000000  0.5571770000000  0.5461760000000 1.0
C      1  0.4464480000000  0.4182380000000  0.4988420000000 1.0
C      1  0.5478780000000  0.5642780000000  0.4516910000000 1.0
C      1  0.5386490000000  0.5035310000000  0.4321180000000 1.0
C      1  0.5496400000000  0.4264100000000  0.4978740000000 1.0
C      1  0.4838600000000  0.4783390000000  0.5718270000000 1.0
C      1  0.5294380000000  0.5397650000000  0.5928600000000 1.0
C      1  0.5317140000000  0.5667220000000  0.5839220000000 1.0
C      1  0.4970620000000  0.4437320000000  0.4249160000000 1.0
C      1  0.4730270000000  0.4994220000000  0.5130850000000 1.0
C      1  0.5600100000000  0.4620290000000  0.5290160000000 1.0
C      1  0.4329740000000  0.4577960000000  0.5265620000000 1.0
C      1  0.4906680000000  0.4872280000000  0.3991290000000 1.0
C      1  0.5590050000000  0.5066660000000  0.4523790000000 1.0
C      1  0.4430730000000  0.5701730000000  0.4997270000000 1.0
C      1  0.4476280000000  0.5574820000000  0.4737610000000 1.0
C      1  0.5687370000000  0.4442310000000  0.4843270000000 1.0
C      1  0.4725950000000  0.4533630000000  0.5638310000000 1.0
C      1  0.5211960000000  0.4330280000000  0.4394150000000 1.0
C      1  0.5225640000000  0.5544840000000  0.4395710000000 1.0
C      1  0.5622110000000  0.5758310000000  0.4988050000000 1.0
C      1  0.5692310000000  0.5105680000000  0.5375590000000 1.0
C      1  0.4665900000000  0.4099840000000  0.4832120000000 1.0
C      1  0.4795880000000  0.5018050000000  0.6191250000000 1.0
C      1  0.5030270000000  0.4932770000000  0.5566630000000 1.0
C      1  0.4754360000000  0.4880770000000  0.5967380000000 1.0
C      1  0.5150520000000  0.4418780000000  0.5269170000000 1.0
C      1  0.4243160000000  0.4440630000000  0.4557200000000 1.0
C      1  0.4943250000000  0.5106110000000  0.5329680000000 1.0
C      1  0.4299530000000  0.4403230000000  0.5040550000000 1.0
C      1  0.5170790000000  0.5335570000000  0.6169650000000 1.0
C      1  0.5778770000000  0.4617200000000  0.5056250000000 1.0
C      1  0.4495100000000  0.5290350000000  0.5394730000000 1.0
C      1  0.4266070000000  0.5459330000000  0.5403240000000 1.0
C      1  0.4835370000000  0.4170720000000  0.4620880000000 1.0
C      1  0.4785940000000  0.5376530000000  0.5394730000000 1.0
C      1  0.5455780000000  0.5752600000000  0.5621830000000 1.0
C      1  0.5126230000000  0.4166690000000  0.4616350000000 1.0
C      1  0.5198340000000  0.5116120000000  0.5163490000000 1.0
C      1  0.4207000000000  0.5095540000000  0.4753100000000 1.0
C      1  0.5784730000000  0.5264320000000  0.4472650000000 1.0
C      1  0.5615000000000  0.5305670000000  0.5578530000000 1.0
C      1  0.5425690000000  0.4527180000000  0.4389010000000 1.0
C      1  0.5247610000000  0.5284770000000  0.4275040000000 1.0
C      1  0.5308660000000  0.4119190000000  0.4824990000000 1.0
C      1  0.4711590000000  0.5645430000000  0.4577300000000 1.0
C      1  0.4471300000000  0.5039410000000  0.5251990000000 1.0
C      1  0.5427890000000  0.4385530000000  0.5238140000000 1.0
C      1  0.5297050000000  0.4949420000000  0.4957470000000 1.0
C      1  0.4280500000000  0.4849380000000  0.5176090000000 1.0
C      1  0.5000850000000  0.5666600000000  0.4554440000000 1.0
C      1  0.5321860000000  0.4765240000000  0.4245870000000 1.0
C      1  0.4993940000000  0.4771400000000  0.4639280000000 1.0
C      1  0.5726470000000  0.5527370000000  0.4451030000000 1.0
C      1  0.4763240000000  0.4957840000000  0.4598260000000 1.0
C      1  0.4970350000000  0.5199290000000  0.6280190000000 1.0
C      1  0.4221270000000  0.5609420000000  0.5165720000000 1.0
C      1  0.5139500000000  0.5725740000000  0.4817640000000 1.0
C      1  0.5638870000000  0.4501830000000  0.4572040000000 1.0
C      1  0.4856970000000  0.5609490000000  0.5230290000000 1.0
C      1  0.5064640000000  0.4683120000000  0.4124620000000 1.0
C      1  0.5775950000000  0.5985350000000  0.4998850000000 1.0
C      1  0.4768330000000  0.5092970000000  0.4863870000000 1.0
C      1  0.5539790000000  0.4859240000000  0.5433940000000 1.0
C      1  0.5509510000000  0.5007070000000  0.4785570000000 1.0
C      1  0.4837970000000  0.4299790000000  0.5726920000000 1.0
C      1  0.4103510000000  0.5476300000000  0.5621190000000 1.0
C      1  0.4061570000000  0.4286270000000  0.4426000000000 1.0
C      1  0.5406350000000  0.5203910000000  0.5751030000000 1.0
C      1  0.5018370000000  0.5550260000000  0.5004300000000 1.0
C      1  0.4196250000000  0.4559530000000  0.4814220000000 1.0
C      1  0.4489360000000  0.4527010000000  0.5487620000000 1.0
C      1  0.4776210000000  0.5145570000000  0.4365250000000 1.0
C      1  0.4501140000000  0.4506750000000  0.4455100000000 1.0
C      1  0.4188740000000  0.4847880000000  0.4894590000000 1.0
C      1  0.5121340000000  0.4736280000000  0.4885210000000 1.0
C      1  0.4791950000000  0.5090210000000  0.4101090000000 1.0
C      1  0.5751290000000  0.5275100000000  0.5146690000000 1.0
END
