TITL C-599897-7526-1290 4.13632005286696 125000 -299.385667386303 0 0 52 (C1) n - 1
REM
REM in /home/nfs/bkarasulu/CARBON/AIRSS/Generating-Clusters/TERSOFF/Only-C1/FIRE-HFTN
REM
REM
REM
REM
REM
REM ./C.cell (11c1c37f851c82e70ff6c80c92926a4b)
REM AIRSS Version 0.9.1 bugfix July 2018 build 013d7b7c2542+ Fri, 06 Jul 2018 19:26:36 +0100
REM compiler GCC version 9.2.1 20190827 (Red Hat 9.2.1-1)
REM options -cpp -mtune=generic -march=x86-64 -g -O0 -fpre-include=/usr/include/finclude/math-vector-fortran.h
REM seed 458344293 -537498181 -2019449145 -2142044438 -1988667115 -946935015 879605806 1898533143 -330788816 -432616163 1995500526 368834686 1386577339 799690673 -395385122 -999610579 1114701462 -667835879 -1243370611 -885383715 -1069037797 1856098328 51646011 1934072803 -518599097 1513126967 394379001 1740440167 543097003 -1776708279 1448838325 162783468 892659937
REM
CELL 1.54180   50.00000   50.00000   50.00000   90.00000   90.00000   90.00000
LATT -1
SFAC C  
C      1  0.5746320000000  0.4768600000000  0.5707200000000 1.0
C      1  0.5133000000000  0.5022380000000  0.5114230000000 1.0
C      1  0.4946530000000  0.4724050000000  0.4515120000000 1.0
C      1  0.4984490000000  0.4806530000000  0.5019310000000 1.0
C      1  0.4764630000000  0.5253580000000  0.4735530000000 1.0
C      1  0.5189540000000  0.5296720000000  0.5145220000000 1.0
C      1  0.4883330000000  0.4371940000000  0.5108580000000 1.0
C      1  0.5011470000000  0.4655940000000  0.4775600000000 1.0
C      1  0.3916840000000  0.4894840000000  0.5031290000000 1.0
C      1  0.4329400000000  0.4412000000000  0.4663740000000 1.0
C      1  0.4238240000000  0.4627770000000  0.4787370000000 1.0
C      1  0.5689280000000  0.5073190000000  0.5339850000000 1.0
C      1  0.4691370000000  0.4782720000000  0.5402490000000 1.0
C      1  0.5580480000000  0.4933290000000  0.5563110000000 1.0
C      1  0.5830400000000  0.5319020000000  0.5355420000000 1.0
C      1  0.4865100000000  0.4745100000000  0.4268380000000 1.0
C      1  0.4664550000000  0.5674230000000  0.5146260000000 1.0
C      1  0.5034230000000  0.4375160000000  0.4860180000000 1.0
C      1  0.6096620000000  0.5661960000000  0.5130300000000 1.0
C      1  0.4828010000000  0.4639380000000  0.5205030000000 1.0
C      1  0.5084980000000  0.5902990000000  0.4961030000000 1.0
C      1  0.3666770000000  0.4928990000000  0.5151980000000 1.0
C      1  0.4836320000000  0.5865500000000  0.5063660000000 1.0
C      1  0.3463040000000  0.4755990000000  0.5092580000000 1.0
C      1  0.5247940000000  0.4235460000000  0.4749680000000 1.0
C      1  0.5643510000000  0.4070240000000  0.4527430000000 1.0
C      1  0.4955120000000  0.5458660000000  0.5532550000000 1.0
C      1  0.4356310000000  0.5072270000000  0.4935430000000 1.0
C      1  0.5270050000000  0.5703180000000  0.4886550000000 1.0
C      1  0.5887700000000  0.5486460000000  0.5132060000000 1.0
C      1  0.5155700000000  0.5446730000000  0.4909120000000 1.0
C      1  0.3628600000000  0.5135050000000  0.5328200000000 1.0
C      1  0.5710910000000  0.5454380000000  0.4904990000000 1.0
C      1  0.4740930000000  0.5289140000000  0.5441220000000 1.0
C      1  0.5485240000000  0.4279730000000  0.4603210000000 1.0
C      1  0.5547510000000  0.5680360000000  0.4840310000000 1.0
C      1  0.5650670000000  0.5000520000000  0.5067960000000 1.0
C      1  0.5041970000000  0.4974830000000  0.5660400000000 1.0
C      1  0.4628140000000  0.5392910000000  0.5191480000000 1.0
C      1  0.5239030000000  0.5180440000000  0.4537730000000 1.0
C      1  0.5309440000000  0.4954860000000  0.5643100000000 1.0
C      1  0.5555400000000  0.4544880000000  0.4536690000000 1.0
C      1  0.4576270000000  0.4015430000000  0.4423320000000 1.0
C      1  0.4789210000000  0.5015970000000  0.5528600000000 1.0
C      1  0.4580020000000  0.5237340000000  0.4953470000000 1.0
C      1  0.5632700000000  0.5178120000000  0.4841620000000 1.0
C      1  0.5038960000000  0.5307780000000  0.4692160000000 1.0
C      1  0.5559510000000  0.4811580000000  0.4526590000000 1.0
C      1  0.4170030000000  0.4865160000000  0.4917780000000 1.0
C      1  0.4445150000000  0.4207440000000  0.4541230000000 1.0
C      1  0.5186530000000  0.5437420000000  0.5391050000000 1.0
C      1  0.5492520000000  0.5071800000000  0.4612590000000 1.0
END
