TITL C-599894-471-123 1.07360617473734 125000 -358.202121635748 0 0 59 (C1) n - 1
REM
REM in /home/nfs/bkarasulu/CARBON/AIRSS/Generating-Clusters/TERSOFF/Only-C1/FIRE-HFTN
REM
REM
REM
REM
REM
REM ./C.cell (11c1c37f851c82e70ff6c80c92926a4b)
REM AIRSS Version 0.9.1 bugfix July 2018 build 013d7b7c2542+ Fri, 06 Jul 2018 19:26:36 +0100
REM compiler GCC version 9.2.1 20190827 (Red Hat 9.2.1-1)
REM options -cpp -mtune=generic -march=x86-64 -g -O0 -fpre-include=/usr/include/finclude/math-vector-fortran.h
REM seed -1563914302 1637152840 918597668 -1379179523 -1375963883 578373562 556836848 7752272 1082585096 1774117255 645971685 366174510 1677322003 235208824 -1119694087 436169842 -1913473392 -466131414 153248992 1232272013 -1665791989 479466891 1478535545 -1607522712 -1191960111 -1776384605 -220256142 -1846455147 -1419673281 1160461011 -272850977 -129529079 -569597878
REM
CELL 1.54180   50.00000   50.00000   50.00000   90.00000   90.00000   90.00000
LATT -1
SFAC C  
C      1  0.4381830000000  0.4567330000000  0.4580890000000 1.0
C      1  0.4736280000000  0.5358900000000  0.5547050000000 1.0
C      1  0.6372780000000  0.4844870000000  0.5130370000000 1.0
C      1  0.6136890000000  0.4606010000000  0.5753030000000 1.0
C      1  0.5084610000000  0.4324560000000  0.4657530000000 1.0
C      1  0.4817520000000  0.4528250000000  0.5313510000000 1.0
C      1  0.4119920000000  0.5717760000000  0.4767440000000 1.0
C      1  0.4857640000000  0.4658310000000  0.4407050000000 1.0
C      1  0.4286290000000  0.4586570000000  0.4845920000000 1.0
C      1  0.5554200000000  0.5293060000000  0.4359970000000 1.0
C      1  0.4813760000000  0.5616680000000  0.5081400000000 1.0
C      1  0.4215400000000  0.4618900000000  0.4363660000000 1.0
C      1  0.4705630000000  0.4219650000000  0.4960340000000 1.0
C      1  0.5639250000000  0.5549630000000  0.3909110000000 1.0
C      1  0.4890400000000  0.4931350000000  0.4469720000000 1.0
C      1  0.4708570000000  0.5875510000000  0.5076870000000 1.0
C      1  0.4285230000000  0.5212900000000  0.5601390000000 1.0
C      1  0.5444230000000  0.5024770000000  0.4819780000000 1.0
C      1  0.4065770000000  0.4676380000000  0.4158190000000 1.0
C      1  0.4263940000000  0.5927760000000  0.4848400000000 1.0
C      1  0.4237450000000  0.5098920000000  0.5362720000000 1.0
C      1  0.5591990000000  0.4962570000000  0.5279430000000 1.0
C      1  0.5637800000000  0.4713400000000  0.5690860000000 1.0
C      1  0.5065810000000  0.4658850000000  0.5284390000000 1.0
C      1  0.4919610000000  0.5560380000000  0.4566870000000 1.0
C      1  0.4954920000000  0.4996390000000  0.4743690000000 1.0
C      1  0.5873930000000  0.4633850000000  0.5783820000000 1.0
C      1  0.5001160000000  0.4819870000000  0.5940330000000 1.0
C      1  0.4494370000000  0.5375230000000  0.5699060000000 1.0
C      1  0.5093660000000  0.4488370000000  0.4418260000000 1.0
C      1  0.4878300000000  0.5480990000000  0.4832360000000 1.0
C      1  0.5044060000000  0.4937560000000  0.5697030000000 1.0
C      1  0.4795460000000  0.4292270000000  0.4704020000000 1.0
C      1  0.5474990000000  0.4827900000000  0.5494820000000 1.0
C      1  0.5192040000000  0.4800900000000  0.5496310000000 1.0
C      1  0.5193260000000  0.4897240000000  0.4867080000000 1.0
C      1  0.4374910000000  0.4527710000000  0.5093540000000 1.0
C      1  0.4905480000000  0.5416500000000  0.4338780000000 1.0
C      1  0.5923640000000  0.4999170000000  0.4932830000000 1.0
C      1  0.5182320000000  0.4657330000000  0.5022550000000 1.0
C      1  0.4881720000000  0.5151340000000  0.4293830000000 1.0
C      1  0.4807150000000  0.5198140000000  0.4871900000000 1.0
C      1  0.6349860000000  0.4641980000000  0.5597070000000 1.0
C      1  0.4627300000000  0.5192250000000  0.5096330000000 1.0
C      1  0.4653440000000  0.4495360000000  0.4544250000000 1.0
C      1  0.4096870000000  0.5452050000000  0.4780050000000 1.0
C      1  0.6438720000000  0.4732110000000  0.5362560000000 1.0
C      1  0.4185330000000  0.5229170000000  0.4897620000000 1.0
C      1  0.6180080000000  0.4942620000000  0.4974880000000 1.0
C      1  0.4723880000000  0.5413380000000  0.5270440000000 1.0
C      1  0.4940690000000  0.5192560000000  0.5642690000000 1.0
C      1  0.5654560000000  0.5002320000000  0.5009850000000 1.0
C      1  0.5230180000000  0.4415540000000  0.4881610000000 1.0
C      1  0.4618700000000  0.4402250000000  0.5160100000000 1.0
C      1  0.4468550000000  0.5535750000000  0.5917670000000 1.0
C      1  0.4348830000000  0.5136820000000  0.5106330000000 1.0
C      1  0.5488260000000  0.5167100000000  0.4583430000000 1.0
C      1  0.4489880000000  0.5992830000000  0.4975930000000 1.0
C      1  0.5600700000000  0.5421860000000  0.4133050000000 1.0
END
