TITL C-599893-4344-583 3.4908465204867 125000 -916.725693579689 0 0 149 (C1) n - 1
REM
REM in /home/nfs/bkarasulu/CARBON/AIRSS/Generating-Clusters/TERSOFF/Only-C1/FIRE-HFTN
REM
REM
REM
REM
REM
REM ./C.cell (11c1c37f851c82e70ff6c80c92926a4b)
REM AIRSS Version 0.9.1 bugfix July 2018 build 013d7b7c2542+ Fri, 06 Jul 2018 19:26:36 +0100
REM compiler GCC version 9.2.1 20190827 (Red Hat 9.2.1-1)
REM options -cpp -mtune=generic -march=x86-64 -g -O0 -fpre-include=/usr/include/finclude/math-vector-fortran.h
REM seed 1139360648 -1773991130 1481757634 380651061 1733441521 -543150521 1797692855 1372284577 -140939700 -308552727 -385430837 -536478598 903121126 -2109853638 -411586977 634858462 -1509523269 2070001916 377873482 -1738126978 831463390 1317870948 -1698266987 -1646382027 -1761785803 -851414492 753433543 615053212 90823238 -1063438794 -844079758 -1383784038 1971120290
REM
CELL 1.54180   50.00000   50.00000   50.00000   90.00000   90.00000   90.00000
LATT -1
SFAC C  
C      1  0.4712720000000  0.5687710000000  0.4397930000000 1.0
C      1  0.5378100000000  0.5113230000000  0.6433230000000 1.0
C      1  0.3871070000000  0.5614190000000  0.5347030000000 1.0
C      1  0.5210810000000  0.5011070000000  0.4142630000000 1.0
C      1  0.6147700000000  0.5371090000000  0.4534020000000 1.0
C      1  0.4249630000000  0.4721840000000  0.4590250000000 1.0
C      1  0.4557680000000  0.4326490000000  0.5156080000000 1.0
C      1  0.5219740000000  0.4312700000000  0.4146310000000 1.0
C      1  0.3624340000000  0.4248270000000  0.4776190000000 1.0
C      1  0.4478980000000  0.4474600000000  0.5767820000000 1.0
C      1  0.5109000000000  0.5519200000000  0.6515110000000 1.0
C      1  0.4965540000000  0.6142300000000  0.5045450000000 1.0
C      1  0.5168580000000  0.4981600000000  0.6303080000000 1.0
C      1  0.5451450000000  0.4622710000000  0.5335280000000 1.0
C      1  0.5390390000000  0.5192630000000  0.5206130000000 1.0
C      1  0.4822840000000  0.5350160000000  0.4755780000000 1.0
C      1  0.5023960000000  0.4771950000000  0.6188220000000 1.0
C      1  0.4116550000000  0.5129120000000  0.5036350000000 1.0
C      1  0.4029580000000  0.4556170000000  0.4629180000000 1.0
C      1  0.4509020000000  0.4647570000000  0.4677120000000 1.0
C      1  0.5173400000000  0.6027450000000  0.5206390000000 1.0
C      1  0.3904470000000  0.5290900000000  0.4938820000000 1.0
C      1  0.4020520000000  0.5050010000000  0.4289620000000 1.0
C      1  0.3427390000000  0.4096890000000  0.4855280000000 1.0
C      1  0.4861930000000  0.4758500000000  0.5194770000000 1.0
C      1  0.4861430000000  0.4810720000000  0.5957710000000 1.0
C      1  0.4290980000000  0.4468490000000  0.5556410000000 1.0
C      1  0.5094790000000  0.5874840000000  0.5447850000000 1.0
C      1  0.5656140000000  0.4349340000000  0.4681830000000 1.0
C      1  0.4727180000000  0.5669030000000  0.6191620000000 1.0
C      1  0.4199620000000  0.4980540000000  0.5492920000000 1.0
C      1  0.5279250000000  0.4049060000000  0.6211760000000 1.0
C      1  0.4802140000000  0.5014800000000  0.5309300000000 1.0
C      1  0.4342320000000  0.6066160000000  0.4865490000000 1.0
C      1  0.5146080000000  0.5028980000000  0.4639490000000 1.0
C      1  0.3825250000000  0.4402090000000  0.4697300000000 1.0
C      1  0.6252280000000  0.4996960000000  0.5182000000000 1.0
C      1  0.4473030000000  0.5103590000000  0.3713310000000 1.0
C      1  0.4314810000000  0.4642010000000  0.3791150000000 1.0
C      1  0.4633640000000  0.4224220000000  0.4900480000000 1.0
C      1  0.5333210000000  0.4674450000000  0.5077730000000 1.0
C      1  0.5682980000000  0.5159700000000  0.5129070000000 1.0
C      1  0.5833170000000  0.6133770000000  0.4895160000000 1.0
C      1  0.4792720000000  0.4244300000000  0.4430890000000 1.0
C      1  0.5085990000000  0.5255040000000  0.4794700000000 1.0
C      1  0.5466760000000  0.4019170000000  0.5276150000000 1.0
C      1  0.4617320000000  0.4381140000000  0.4647500000000 1.0
C      1  0.6128340000000  0.4784130000000  0.5294650000000 1.0
C      1  0.5942670000000  0.4593430000000  0.5343210000000 1.0
C      1  0.4606130000000  0.5522180000000  0.4213010000000 1.0
C      1  0.4145020000000  0.4708270000000  0.5528340000000 1.0
C      1  0.3820490000000  0.5495890000000  0.5112730000000 1.0
C      1  0.4535430000000  0.4497360000000  0.3891730000000 1.0
C      1  0.4807560000000  0.4467760000000  0.3954640000000 1.0
C      1  0.5065680000000  0.4720880000000  0.5000110000000 1.0
C      1  0.5391480000000  0.5891460000000  0.4782600000000 1.0
C      1  0.5132190000000  0.4873550000000  0.3922710000000 1.0
C      1  0.5767650000000  0.5315070000000  0.6783930000000 1.0
C      1  0.4648770000000  0.5622670000000  0.5477960000000 1.0
C      1  0.4619270000000  0.5144640000000  0.4717280000000 1.0
C      1  0.5154350000000  0.4265530000000  0.6301060000000 1.0
C      1  0.5690340000000  0.4461930000000  0.5319520000000 1.0
C      1  0.5331130000000  0.5361800000000  0.6571880000000 1.0
C      1  0.4433210000000  0.5172590000000  0.4503190000000 1.0
C      1  0.4801720000000  0.4804800000000  0.4264620000000 1.0
C      1  0.5301970000000  0.4972290000000  0.4410080000000 1.0
C      1  0.4086920000000  0.5013780000000  0.4017250000000 1.0
C      1  0.5401610000000  0.4829730000000  0.5519410000000 1.0
C      1  0.5554730000000  0.5588690000000  0.4382550000000 1.0
C      1  0.5785660000000  0.5676440000000  0.5155750000000 1.0
C      1  0.5652100000000  0.4212720000000  0.5177710000000 1.0
C      1  0.5529870000000  0.5442370000000  0.6757310000000 1.0
C      1  0.4706000000000  0.5032230000000  0.4159740000000 1.0
C      1  0.4904390000000  0.5623620000000  0.6383240000000 1.0
C      1  0.5789190000000  0.5182140000000  0.4184930000000 1.0
C      1  0.5822280000000  0.5098660000000  0.6630190000000 1.0
C      1  0.5745700000000  0.5427220000000  0.5017800000000 1.0
C      1  0.5092580000000  0.6259910000000  0.4812090000000 1.0
C      1  0.4993930000000  0.5085130000000  0.5512140000000 1.0
C      1  0.4493350000000  0.5583670000000  0.5714240000000 1.0
C      1  0.5289460000000  0.5330340000000  0.4967420000000 1.0
C      1  0.6264540000000  0.5342720000000  0.4779530000000 1.0
C      1  0.4334860000000  0.4298570000000  0.5329520000000 1.0
C      1  0.6300170000000  0.5196680000000  0.5005260000000 1.0
C      1  0.5484500000000  0.5659690000000  0.4647760000000 1.0
C      1  0.5381390000000  0.5888740000000  0.5075530000000 1.0
C      1  0.5715370000000  0.4206240000000  0.4902040000000 1.0
C      1  0.5641000000000  0.4993880000000  0.6438770000000 1.0
C      1  0.5358400000000  0.6175020000000  0.4725200000000 1.0
C      1  0.5769850000000  0.4604620000000  0.6089330000000 1.0
C      1  0.5512760000000  0.3893200000000  0.5521120000000 1.0
C      1  0.4227270000000  0.4978670000000  0.4471790000000 1.0
C      1  0.4973040000000  0.3879740000000  0.5054090000000 1.0
C      1  0.4927970000000  0.4316430000000  0.4173700000000 1.0
C      1  0.5554000000000  0.4609660000000  0.4653010000000 1.0
C      1  0.5589910000000  0.4684260000000  0.4167520000000 1.0
C      1  0.5187100000000  0.5420990000000  0.3806310000000 1.0
C      1  0.5599000000000  0.5406080000000  0.4165080000000 1.0
C      1  0.4794200000000  0.5607010000000  0.4641860000000 1.0
C      1  0.4569460000000  0.5177550000000  0.5251760000000 1.0
C      1  0.5450740000000  0.4447570000000  0.4082830000000 1.0
C      1  0.5627040000000  0.6273470000000  0.4776340000000 1.0
C      1  0.6017550000000  0.4931470000000  0.4530440000000 1.0
C      1  0.5517150000000  0.5454740000000  0.4836360000000 1.0
C      1  0.4729580000000  0.4524790000000  0.5256110000000 1.0
C      1  0.4730550000000  0.6006740000000  0.5159730000000 1.0
C      1  0.5015660000000  0.3793920000000  0.4448910000000 1.0
C      1  0.5271030000000  0.5070630000000  0.5434770000000 1.0
C      1  0.4828410000000  0.4015620000000  0.4852440000000 1.0
C      1  0.3810840000000  0.5182340000000  0.4423620000000 1.0
C      1  0.4285660000000  0.4925460000000  0.3832580000000 1.0
C      1  0.5996460000000  0.5177120000000  0.4388030000000 1.0
C      1  0.5226570000000  0.3969850000000  0.5137130000000 1.0
C      1  0.4024700000000  0.5610710000000  0.5565940000000 1.0
C      1  0.4891130000000  0.4003250000000  0.4570980000000 1.0
C      1  0.4700310000000  0.5243610000000  0.3676300000000 1.0
C      1  0.4945800000000  0.4672500000000  0.4454670000000 1.0
C      1  0.5538710000000  0.5751380000000  0.5281820000000 1.0
C      1  0.4233580000000  0.5464410000000  0.5686150000000 1.0
C      1  0.4681750000000  0.4867010000000  0.4763680000000 1.0
C      1  0.5060270000000  0.4513200000000  0.6288920000000 1.0
C      1  0.4977520000000  0.4796180000000  0.4723210000000 1.0
C      1  0.4465710000000  0.5628030000000  0.5045300000000 1.0
C      1  0.4573680000000  0.5463550000000  0.5250220000000 1.0
C      1  0.3792970000000  0.5259680000000  0.4681710000000 1.0
C      1  0.4942470000000  0.5355300000000  0.3714630000000 1.0
C      1  0.4302470000000  0.5067840000000  0.5240270000000 1.0
C      1  0.4559220000000  0.5249340000000  0.4258040000000 1.0
C      1  0.5530090000000  0.4751190000000  0.4895100000000 1.0
C      1  0.4118370000000  0.4507010000000  0.3644850000000 1.0
C      1  0.5491720000000  0.4758160000000  0.4426300000000 1.0
C      1  0.4199590000000  0.5182420000000  0.5690860000000 1.0
C      1  0.4809460000000  0.5849370000000  0.5407140000000 1.0
C      1  0.4864390000000  0.3656860000000  0.5170680000000 1.0
C      1  0.5486720000000  0.3850100000000  0.5781540000000 1.0
C      1  0.4920850000000  0.5018430000000  0.5776410000000 1.0
C      1  0.4662300000000  0.4620850000000  0.5896170000000 1.0
C      1  0.5730150000000  0.4917980000000  0.4065020000000 1.0
C      1  0.4591040000000  0.5654430000000  0.5965020000000 1.0
C      1  0.4506000000000  0.5907760000000  0.5014630000000 1.0
C      1  0.5714960000000  0.4791020000000  0.6263050000000 1.0
C      1  0.5401300000000  0.3902190000000  0.6027390000000 1.0
C      1  0.5908380000000  0.5904670000000  0.5025720000000 1.0
C      1  0.4984190000000  0.4663450000000  0.3839500000000 1.0
C      1  0.5417890000000  0.5428440000000  0.3945200000000 1.0
C      1  0.5345520000000  0.5733410000000  0.5502650000000 1.0
C      1  0.5737730000000  0.4932530000000  0.4960030000000 1.0
C      1  0.5957440000000  0.4896190000000  0.4789370000000 1.0
C      1  0.3932010000000  0.4384400000000  0.3510110000000 1.0
END
