TITL C-599891-72-91 0.00236251359897892 125000 -342.034678199547 0 0 56 (C1) n - 1
REM
REM in /home/nfs/bkarasulu/CARBON/AIRSS/Generating-Clusters/TERSOFF/Only-C1/FIRE-HFTN
REM
REM
REM
REM
REM
REM ./C.cell (11c1c37f851c82e70ff6c80c92926a4b)
REM AIRSS Version 0.9.1 bugfix July 2018 build 013d7b7c2542+ Fri, 06 Jul 2018 19:26:36 +0100
REM compiler GCC version 9.2.1 20190827 (Red Hat 9.2.1-1)
REM options -cpp -mtune=generic -march=x86-64 -g -O0 -fpre-include=/usr/include/finclude/math-vector-fortran.h
REM seed 1297467183 -482302031 -727358104 1540701686 1764296165 590449317 997879746 -537626360 536719075 213072783 -1502472845 730332378 -654181540 800036557 1178225472 40059781 -1782001459 8668674 386278942 -1333799795 1341560593 232384928 877998385 1871517627 -1418951464 -10324051 1864021192 1073130460 -2128669456 1971474226 774354962 -895175856 817472729
REM
CELL 1.54180   50.00000   50.00000   50.00000   90.00000   90.00000   90.00000
LATT -1
SFAC C  
C      1  0.4586950000000  0.4289270000000  0.4946000000000 1.0
C      1  0.5696450000000  0.4763180000000  0.4949360000000 1.0
C      1  0.5017300000000  0.5434930000000  0.4213220000000 1.0
C      1  0.4793190000000  0.4874080000000  0.5427620000000 1.0
C      1  0.4534450000000  0.5345720000000  0.4388040000000 1.0
C      1  0.5053530000000  0.5057040000000  0.5055310000000 1.0
C      1  0.5252700000000  0.5759870000000  0.5302650000000 1.0
C      1  0.4809740000000  0.4142470000000  0.4856590000000 1.0
C      1  0.5020320000000  0.5308980000000  0.4936750000000 1.0
C      1  0.4523220000000  0.4097100000000  0.5608080000000 1.0
C      1  0.4591380000000  0.5485450000000  0.5054800000000 1.0
C      1  0.5461910000000  0.5665270000000  0.5143110000000 1.0
C      1  0.4932920000000  0.4656250000000  0.5540060000000 1.0
C      1  0.5002190000000  0.4101680000000  0.5532190000000 1.0
C      1  0.5081460000000  0.4084490000000  0.4871220000000 1.0
C      1  0.4502080000000  0.5288190000000  0.5503570000000 1.0
C      1  0.5082820000000  0.5909390000000  0.5736010000000 1.0
C      1  0.4574700000000  0.4567610000000  0.4908330000000 1.0
C      1  0.5273960000000  0.4063790000000  0.4655670000000 1.0
C      1  0.5681230000000  0.5079330000000  0.4104350000000 1.0
C      1  0.4903110000000  0.5761910000000  0.4758830000000 1.0
C      1  0.4981310000000  0.5696250000000  0.5239090000000 1.0
C      1  0.4615710000000  0.5050300000000  0.5554950000000 1.0
C      1  0.4444560000000  0.5046990000000  0.4897890000000 1.0
C      1  0.4377350000000  0.5426490000000  0.4607320000000 1.0
C      1  0.5150250000000  0.4257690000000  0.5349950000000 1.0
C      1  0.5285130000000  0.5885860000000  0.5555370000000 1.0
C      1  0.4803640000000  0.4481220000000  0.5722760000000 1.0
C      1  0.4760090000000  0.5326810000000  0.4246660000000 1.0
C      1  0.4164160000000  0.5594260000000  0.4575500000000 1.0
C      1  0.5499250000000  0.4288540000000  0.4995940000000 1.0
C      1  0.4832960000000  0.5814940000000  0.5683680000000 1.0
C      1  0.4612840000000  0.4836630000000  0.4975150000000 1.0
C      1  0.4448920000000  0.5326770000000  0.4864400000000 1.0
C      1  0.5586410000000  0.5256350000000  0.4823610000000 1.0
C      1  0.4408820000000  0.4166510000000  0.5125620000000 1.0
C      1  0.5547380000000  0.5010490000000  0.4953850000000 1.0
C      1  0.5337000000000  0.4686790000000  0.5229990000000 1.0
C      1  0.5576810000000  0.5493310000000  0.4974690000000 1.0
C      1  0.5154860000000  0.4544060000000  0.5392870000000 1.0
C      1  0.4882800000000  0.5570800000000  0.4980250000000 1.0
C      1  0.4825990000000  0.4913460000000  0.5146770000000 1.0
C      1  0.4983500000000  0.5830470000000  0.4514600000000 1.0
C      1  0.5845160000000  0.4958450000000  0.3941760000000 1.0
C      1  0.5556310000000  0.4549370000000  0.5083620000000 1.0
C      1  0.4775230000000  0.4203590000000  0.5669850000000 1.0
C      1  0.5306670000000  0.4946910000000  0.5105790000000 1.0
C      1  0.4381590000000  0.4089640000000  0.5380330000000 1.0
C      1  0.5249660000000  0.5281550000000  0.4194470000000 1.0
C      1  0.5244310000000  0.4175180000000  0.5098650000000 1.0
C      1  0.4770600000000  0.5688440000000  0.5440240000000 1.0
C      1  0.5506100000000  0.5207250000000  0.4280060000000 1.0
C      1  0.5585570000000  0.5261440000000  0.4543550000000 1.0
C      1  0.5515260000000  0.4179420000000  0.4728400000000 1.0
C      1  0.4565730000000  0.5511370000000  0.5345550000000 1.0
C      1  0.5042470000000  0.5706400000000  0.4285020000000 1.0
END
