TITL C-599893-4344-1265 0.0152445254832727 125000 -139.621808054959 0 0 25 (C1) n - 1
REM
REM in /home/nfs/bkarasulu/CARBON/AIRSS/Generating-Clusters/TERSOFF/Only-C1/FIRE-HFTN
REM
REM
REM
REM
REM
REM ./C.cell (11c1c37f851c82e70ff6c80c92926a4b)
REM AIRSS Version 0.9.1 bugfix July 2018 build 013d7b7c2542+ Fri, 06 Jul 2018 19:26:36 +0100
REM compiler GCC version 9.2.1 20190827 (Red Hat 9.2.1-1)
REM options -cpp -mtune=generic -march=x86-64 -g -O0 -fpre-include=/usr/include/finclude/math-vector-fortran.h
REM seed -1416368380 1617002377 263156900 1698999023 1072826024 -771615670 -375172531 940610447 -746085398 523272296 -2086492367 1305157849 1247606411 1858487272 -110292166 -1535855538 -277536881 -1076191120 -467725423 -625409065 488135966 546705166 1902250811 -2036888279 -1060120282 -1965641300 -1616146564 44637980 1567408535 -1834730730 -452995377 -1275177238 613817573
REM
CELL 1.54180   50.00000   50.00000   50.00000   90.00000   90.00000   90.00000
LATT -1
SFAC C  
C      1  0.4827010000000  0.4673600000000  0.5077410000000 1.0
C      1  0.3861000000000  0.4682780000000  0.4965030000000 1.0
C      1  0.4810590000000  0.5522920000000  0.4757900000000 1.0
C      1  0.5233810000000  0.4970320000000  0.4506720000000 1.0
C      1  0.5813020000000  0.5156870000000  0.5254140000000 1.0
C      1  0.5342250000000  0.4946740000000  0.4270930000000 1.0
C      1  0.5504200000000  0.5743950000000  0.4921830000000 1.0
C      1  0.4716460000000  0.4205740000000  0.5001310000000 1.0
C      1  0.5257970000000  0.5708530000000  0.4820720000000 1.0
C      1  0.5050040000000  0.4886600000000  0.5775100000000 1.0
C      1  0.4634990000000  0.4471530000000  0.5028140000000 1.0
C      1  0.4558190000000  0.5536420000000  0.4694440000000 1.0
C      1  0.4796080000000  0.3958800000000  0.4976840000000 1.0
C      1  0.4364860000000  0.4538920000000  0.5006420000000 1.0
C      1  0.5339800000000  0.5213870000000  0.5149750000000 1.0
C      1  0.4949270000000  0.4812430000000  0.4867300000000 1.0
C      1  0.5181090000000  0.5238260000000  0.4911980000000 1.0
C      1  0.5653010000000  0.5573260000000  0.5066090000000 1.0
C      1  0.4901600000000  0.4743130000000  0.5338200000000 1.0
C      1  0.5227060000000  0.5089670000000  0.5374020000000 1.0
C      1  0.5608400000000  0.5311740000000  0.5160650000000 1.0
C      1  0.4110720000000  0.4610820000000  0.4985630000000 1.0
C      1  0.5059310000000  0.4905970000000  0.5503160000000 1.0
C      1  0.5078640000000  0.5491760000000  0.4826990000000 1.0
C      1  0.5120630000000  0.5005370000000  0.4759310000000 1.0
END
