TITL C-599897-7526-1073 4.79354753539768e-06 125000 -886.68723965489 0 0 142 (C1) n - 1
REM
REM in /home/nfs/bkarasulu/CARBON/AIRSS/Generating-Clusters/TERSOFF/Only-C1/FIRE-HFTN
REM
REM
REM
REM
REM
REM ./C.cell (11c1c37f851c82e70ff6c80c92926a4b)
REM AIRSS Version 0.9.1 bugfix July 2018 build 013d7b7c2542+ Fri, 06 Jul 2018 19:26:36 +0100
REM compiler GCC version 9.2.1 20190827 (Red Hat 9.2.1-1)
REM options -cpp -mtune=generic -march=x86-64 -g -O0 -fpre-include=/usr/include/finclude/math-vector-fortran.h
REM seed 872669062 1798165385 -151429681 -1544707364 1580618272 -705294820 -1108306872 -2146254722 -832023854 1545661501 1545487080 1991800824 -745614933 1122336236 1729227546 858199560 529122148 1928331022 -287397475 357954157 925660543 -725259580 44931925 -897146139 -1307567347 19603485 314459655 -402113894 1961613867 -2305883 2113002009 -624012247 -1565919168
REM
CELL 1.54180   50.00000   50.00000   50.00000   90.00000   90.00000   90.00000
LATT -1
SFAC C  
C      1  0.5256470000000  0.5630450000000  0.5921460000000 1.0
C      1  0.4533160000000  0.5888970000000  0.4692710000000 1.0
C      1  0.4934210000000  0.4499890000000  0.5962740000000 1.0
C      1  0.5340100000000  0.5652640000000  0.5332900000000 1.0
C      1  0.4879770000000  0.4669450000000  0.4510690000000 1.0
C      1  0.4923660000000  0.6159820000000  0.4957370000000 1.0
C      1  0.5772690000000  0.5283280000000  0.5908090000000 1.0
C      1  0.4886720000000  0.6134170000000  0.4465230000000 1.0
C      1  0.5040640000000  0.4748060000000  0.4736420000000 1.0
C      1  0.5031100000000  0.5177670000000  0.4010340000000 1.0
C      1  0.4471420000000  0.4421870000000  0.5376520000000 1.0
C      1  0.3916030000000  0.4514450000000  0.4868750000000 1.0
C      1  0.5684650000000  0.4799820000000  0.5699270000000 1.0
C      1  0.5048170000000  0.4815780000000  0.5392740000000 1.0
C      1  0.5576550000000  0.4826060000000  0.5954450000000 1.0
C      1  0.4085500000000  0.5103500000000  0.4638050000000 1.0
C      1  0.5500200000000  0.5654820000000  0.5809780000000 1.0
C      1  0.4985790000000  0.5062700000000  0.4268720000000 1.0
C      1  0.3890440000000  0.4526170000000  0.5136780000000 1.0
C      1  0.4952620000000  0.4534820000000  0.3919460000000 1.0
C      1  0.4640460000000  0.4295310000000  0.4217240000000 1.0
C      1  0.4462780000000  0.5600150000000  0.5147960000000 1.0
C      1  0.4871500000000  0.4744650000000  0.4954080000000 1.0
C      1  0.5723590000000  0.5497680000000  0.5720380000000 1.0
C      1  0.5570090000000  0.4084820000000  0.4702730000000 1.0
C      1  0.4673540000000  0.4494040000000  0.4633460000000 1.0
C      1  0.5738300000000  0.5513820000000  0.4836930000000 1.0
C      1  0.4933350000000  0.5681940000000  0.5107470000000 1.0
C      1  0.5318090000000  0.4227370000000  0.4684680000000 1.0
C      1  0.5271000000000  0.5318920000000  0.3978130000000 1.0
C      1  0.4330500000000  0.5002740000000  0.4487400000000 1.0
C      1  0.5516940000000  0.4767550000000  0.5145020000000 1.0
C      1  0.4088020000000  0.4333650000000  0.4260000000000 1.0
C      1  0.5474010000000  0.4931470000000  0.4722270000000 1.0
C      1  0.5318120000000  0.4876050000000  0.5322710000000 1.0
C      1  0.5055040000000  0.5472990000000  0.6043440000000 1.0
C      1  0.4072170000000  0.5099420000000  0.5414960000000 1.0
C      1  0.5078630000000  0.5980970000000  0.4338460000000 1.0
C      1  0.4634590000000  0.4582540000000  0.4913340000000 1.0
C      1  0.5165850000000  0.4636060000000  0.4093170000000 1.0
C      1  0.5895700000000  0.5303490000000  0.4967170000000 1.0
C      1  0.5412870000000  0.5197480000000  0.6226130000000 1.0
C      1  0.5462600000000  0.4612220000000  0.4139290000000 1.0
C      1  0.5052380000000  0.5750010000000  0.4858100000000 1.0
C      1  0.5182100000000  0.5724930000000  0.4416190000000 1.0
C      1  0.3861170000000  0.4907380000000  0.4599700000000 1.0
C      1  0.5418480000000  0.6107010000000  0.4820640000000 1.0
C      1  0.3953730000000  0.4637730000000  0.4616980000000 1.0
C      1  0.4735200000000  0.6106190000000  0.4719240000000 1.0
C      1  0.5394090000000  0.5199060000000  0.4711450000000 1.0
C      1  0.4580390000000  0.4814150000000  0.5745650000000 1.0
C      1  0.4311960000000  0.5385720000000  0.5752410000000 1.0
C      1  0.5759430000000  0.4346040000000  0.5431300000000 1.0
C      1  0.5922110000000  0.5049970000000  0.5382080000000 1.0
C      1  0.5679360000000  0.5034460000000  0.5538580000000 1.0
C      1  0.5307230000000  0.4718610000000  0.4674840000000 1.0
C      1  0.4218480000000  0.5549680000000  0.5308930000000 1.0
C      1  0.4717060000000  0.4445560000000  0.5529060000000 1.0
C      1  0.4505100000000  0.4781320000000  0.4082940000000 1.0
C      1  0.4126550000000  0.4566830000000  0.4397170000000 1.0
C      1  0.4683000000000  0.4531940000000  0.4044890000000 1.0
C      1  0.5458690000000  0.3990290000000  0.5216910000000 1.0
C      1  0.4677100000000  0.4234740000000  0.4499940000000 1.0
C      1  0.4823140000000  0.5186490000000  0.4470980000000 1.0
C      1  0.4220190000000  0.5024200000000  0.5180320000000 1.0
C      1  0.4843600000000  0.4040800000000  0.4643300000000 1.0
C      1  0.5087290000000  0.4357990000000  0.5251600000000 1.0
C      1  0.5158700000000  0.6017680000000  0.4850950000000 1.0
C      1  0.4389910000000  0.5764460000000  0.4907180000000 1.0
C      1  0.5623250000000  0.5695440000000  0.5274970000000 1.0
C      1  0.5928470000000  0.5308880000000  0.5259830000000 1.0
C      1  0.5833870000000  0.4941740000000  0.4317040000000 1.0
C      1  0.5140040000000  0.5266800000000  0.6223500000000 1.0
C      1  0.5400160000000  0.4615140000000  0.6014620000000 1.0
C      1  0.4170230000000  0.5353120000000  0.5511520000000 1.0
C      1  0.4543770000000  0.5177890000000  0.4427000000000 1.0
C      1  0.5145660000000  0.5242970000000  0.4837710000000 1.0
C      1  0.5541840000000  0.5436150000000  0.4630650000000 1.0
C      1  0.4475660000000  0.4593420000000  0.5142270000000 1.0
C      1  0.4493440000000  0.5768180000000  0.4426650000000 1.0
C      1  0.5807460000000  0.4591520000000  0.5569920000000 1.0
C      1  0.5092670000000  0.5830600000000  0.5305510000000 1.0
C      1  0.4725080000000  0.5501500000000  0.5181740000000 1.0
C      1  0.6327430000000  0.4594640000000  0.5010680000000 1.0
C      1  0.4955450000000  0.5344830000000  0.4654840000000 1.0
C      1  0.3948980000000  0.4853910000000  0.5506510000000 1.0
C      1  0.5330660000000  0.4264090000000  0.5671840000000 1.0
C      1  0.4804220000000  0.5132360000000  0.3844410000000 1.0
C      1  0.5019160000000  0.3737360000000  0.5008300000000 1.0
C      1  0.4095600000000  0.5744440000000  0.4890790000000 1.0
C      1  0.4976700000000  0.6107130000000  0.5251740000000 1.0
C      1  0.5449640000000  0.5448710000000  0.4133530000000 1.0
C      1  0.3983490000000  0.5623380000000  0.4664450000000 1.0
C      1  0.4430750000000  0.4857340000000  0.5251320000000 1.0
C      1  0.5429060000000  0.5571440000000  0.4388820000000 1.0
C      1  0.6030450000000  0.4786430000000  0.5352400000000 1.0
C      1  0.5021080000000  0.4231420000000  0.5034130000000 1.0
C      1  0.5307300000000  0.5355370000000  0.5311130000000 1.0
C      1  0.4315760000000  0.4769310000000  0.4314990000000 1.0
C      1  0.5697590000000  0.5745710000000  0.5001320000000 1.0
C      1  0.4957950000000  0.4543490000000  0.5404610000000 1.0
C      1  0.4000950000000  0.5377640000000  0.4557880000000 1.0
C      1  0.5800270000000  0.5520980000000  0.5430470000000 1.0
C      1  0.5013510000000  0.4784280000000  0.4289150000000 1.0
C      1  0.4894560000000  0.4829530000000  0.6358440000000 1.0
C      1  0.4784470000000  0.5490420000000  0.5968420000000 1.0
C      1  0.4159440000000  0.5105630000000  0.4925320000000 1.0
C      1  0.4485530000000  0.5303650000000  0.4169210000000 1.0
C      1  0.4554740000000  0.5074750000000  0.3980360000000 1.0
C      1  0.4589240000000  0.4930880000000  0.5481810000000 1.0
C      1  0.4533330000000  0.5444070000000  0.5890560000000 1.0
C      1  0.5115810000000  0.5272230000000  0.5114490000000 1.0
C      1  0.5693890000000  0.4180020000000  0.4446370000000 1.0
C      1  0.5610830000000  0.5093470000000  0.6057210000000 1.0
C      1  0.4842040000000  0.5022490000000  0.5399190000000 1.0
C      1  0.5223150000000  0.3819780000000  0.5175370000000 1.0
C      1  0.4996190000000  0.4451520000000  0.3662890000000 1.0
C      1  0.4468550000000  0.5586580000000  0.4221760000000 1.0
C      1  0.5542640000000  0.4412500000000  0.4334660000000 1.0
C      1  0.4854970000000  0.5249530000000  0.5232510000000 1.0
C      1  0.4901140000000  0.4596580000000  0.6227280000000 1.0
C      1  0.5429280000000  0.5125390000000  0.5432260000000 1.0
C      1  0.5889720000000  0.5043260000000  0.4838040000000 1.0
C      1  0.5064780000000  0.4174040000000  0.4769280000000 1.0
C      1  0.4007660000000  0.5674400000000  0.5155650000000 1.0
C      1  0.5018870000000  0.5614110000000  0.4620040000000 1.0
C      1  0.5213200000000  0.4440680000000  0.5880410000000 1.0
C      1  0.5620410000000  0.4005050000000  0.4971760000000 1.0
C      1  0.5649020000000  0.4831600000000  0.4149580000000 1.0
C      1  0.5945290000000  0.5006760000000  0.4557010000000 1.0
C      1  0.4206060000000  0.4418910000000  0.5486620000000 1.0
C      1  0.5666050000000  0.4878170000000  0.4926320000000 1.0
C      1  0.5964580000000  0.4338320000000  0.5227030000000 1.0
C      1  0.6120040000000  0.4578070000000  0.5185570000000 1.0
C      1  0.3601930000000  0.4978510000000  0.4555050000000 1.0
C      1  0.5513980000000  0.4185160000000  0.5447540000000 1.0
C      1  0.5652640000000  0.5996580000000  0.4887560000000 1.0
C      1  0.5375690000000  0.4474880000000  0.4564480000000 1.0
C      1  0.4963750000000  0.5087180000000  0.6347190000000 1.0
C      1  0.4712610000000  0.4559660000000  0.5790840000000 1.0
C      1  0.4847020000000  0.3790460000000  0.4795100000000 1.0
C      1  0.3985200000000  0.4584630000000  0.5400320000000 1.0
END
