TITL C-599894-471-1465 -0.00983890006420077 125000 -173.864302002946 0 0 30 (C1) n - 1
REM
REM in /home/nfs/bkarasulu/CARBON/AIRSS/Generating-Clusters/TERSOFF/Only-C1/FIRE-HFTN
REM
REM
REM
REM
REM
REM ./C.cell (11c1c37f851c82e70ff6c80c92926a4b)
REM AIRSS Version 0.9.1 bugfix July 2018 build 013d7b7c2542+ Fri, 06 Jul 2018 19:26:36 +0100
REM compiler GCC version 9.2.1 20190827 (Red Hat 9.2.1-1)
REM options -cpp -mtune=generic -march=x86-64 -g -O0 -fpre-include=/usr/include/finclude/math-vector-fortran.h
REM seed -734045369 778855233 2074177397 -1845528380 423444711 1685768111 1509751299 -798784725 -2026724316 600448092 -1747602957 -2038018361 891281022 -767531461 490859947 -1534220271 1575799154 -520541070 1368509186 -1344462265 -120097509 -233229173 759318194 -753971775 -1770018481 1826907353 -1041124619 -1633963341 2020662624 533050924 -1431876858 1085009853 -1819163784
REM
CELL 1.54180   50.00000   50.00000   50.00000   90.00000   90.00000   90.00000
LATT -1
SFAC C  
C      1  0.5398590000000  0.4734390000000  0.4910650000000 1.0
C      1  0.5166450000000  0.4364320000000  0.5147310000000 1.0
C      1  0.4362110000000  0.4868490000000  0.4706060000000 1.0
C      1  0.4921030000000  0.4470130000000  0.5044470000000 1.0
C      1  0.5053230000000  0.5084490000000  0.4015450000000 1.0
C      1  0.5241020000000  0.5922940000000  0.5804390000000 1.0
C      1  0.5197460000000  0.5703640000000  0.5662270000000 1.0
C      1  0.5395460000000  0.4506930000000  0.5058390000000 1.0
C      1  0.4938690000000  0.4986470000000  0.4233300000000 1.0
C      1  0.4772660000000  0.4670690000000  0.5187020000000 1.0
C      1  0.4955950000000  0.5485230000000  0.4856740000000 1.0
C      1  0.5155890000000  0.5475450000000  0.5508280000000 1.0
C      1  0.5166460000000  0.5181460000000  0.3801580000000 1.0
C      1  0.5178330000000  0.4148650000000  0.5312950000000 1.0
C      1  0.5055380000000  0.5049500000000  0.5040790000000 1.0
C      1  0.4911030000000  0.4912500000000  0.5250760000000 1.0
C      1  0.4825450000000  0.4887350000000  0.4467350000000 1.0
C      1  0.5500300000000  0.5549560000000  0.5172890000000 1.0
C      1  0.4914950000000  0.5027950000000  0.5505640000000 1.0
C      1  0.4551180000000  0.4916580000000  0.4523220000000 1.0
C      1  0.5251650000000  0.5456350000000  0.5239620000000 1.0
C      1  0.4902260000000  0.4492270000000  0.4757600000000 1.0
C      1  0.5284530000000  0.6138990000000  0.5943660000000 1.0
C      1  0.5086940000000  0.5331800000000  0.5042050000000 1.0
C      1  0.4981580000000  0.4751820000000  0.4661680000000 1.0
C      1  0.5013580000000  0.5254710000000  0.5607720000000 1.0
C      1  0.4333980000000  0.4771550000000  0.4954110000000 1.0
C      1  0.4493760000000  0.4683890000000  0.5151030000000 1.0
C      1  0.4821630000000  0.4287920000000  0.4596500000000 1.0
C      1  0.5168470000000  0.4883970000000  0.4836530000000 1.0
END
