TITL C-599895-9959-1080 5.6102607388484 125000 -145.285523689307 0 0 26 (Cs) n - 1
REM
REM in /home/nfs/bkarasulu/CARBON/AIRSS/Generating-Clusters/TERSOFF/Only-C1/FIRE-HFTN
REM
REM
REM
REM
REM
REM ./C.cell (11c1c37f851c82e70ff6c80c92926a4b)
REM AIRSS Version 0.9.1 bugfix July 2018 build 013d7b7c2542+ Fri, 06 Jul 2018 19:26:36 +0100
REM compiler GCC version 9.2.1 20190827 (Red Hat 9.2.1-1)
REM options -cpp -mtune=generic -march=x86-64 -g -O0 -fpre-include=/usr/include/finclude/math-vector-fortran.h
REM seed 1273129000 52929342 122229720 594752988 -2022310614 1140805757 1523786333 2072795682 2033208360 -1394941997 -499745082 912302334 2009498770 -783674105 1473769120 -258265700 244377116 -2028240719 -1883139094 1631710696 426930911 1675704339 -1099372958 -909058900 612070067 2100368938 -1194592532 -556244781 -463703960 1432403489 -1499263223 2137831920 943625299
REM
CELL 1.54180   50.00000   50.00000   50.00000   90.00000   90.00000   90.00000
LATT -1
SFAC C  
C      1  0.5213220000000  0.4785570000000  0.4863730000000 1.0
C      1  0.5057900000000  0.4443460000000  0.5497030000000 1.0
C      1  0.4399820000000  0.5519580000000  0.5473620000000 1.0
C      1  0.4516440000000  0.5756420000000  0.5019570000000 1.0
C      1  0.4888950000000  0.4577010000000  0.5643970000000 1.0
C      1  0.4717080000000  0.4715860000000  0.5790260000000 1.0
C      1  0.5125170000000  0.5488600000000  0.4261450000000 1.0
C      1  0.4872970000000  0.5105130000000  0.5105430000000 1.0
C      1  0.4535590000000  0.4878380000000  0.5927700000000 1.0
C      1  0.5394410000000  0.4620730000000  0.4729310000000 1.0
C      1  0.5553610000000  0.4824270000000  0.4237830000000 1.0
C      1  0.5727850000000  0.4710490000000  0.4060600000000 1.0
C      1  0.4439930000000  0.4803130000000  0.6172580000000 1.0
C      1  0.5607670000000  0.3937260000000  0.5095650000000 1.0
C      1  0.4407360000000  0.5332460000000  0.5661210000000 1.0
C      1  0.5476980000000  0.4380420000000  0.4845090000000 1.0
C      1  0.4453350000000  0.5118910000000  0.5811120000000 1.0
C      1  0.5432920000000  0.5070240000000  0.4181420000000 1.0
C      1  0.4636150000000  0.5783880000000  0.4784610000000 1.0
C      1  0.4953200000000  0.5643800000000  0.4390380000000 1.0
C      1  0.4436010000000  0.5665400000000  0.5255210000000 1.0
C      1  0.5288830000000  0.5292430000000  0.4190700000000 1.0
C      1  0.4785770000000  0.5745180000000  0.4569190000000 1.0
C      1  0.5544620000000  0.4156310000000  0.4969140000000 1.0
C      1  0.5041820000000  0.4947960000000  0.4983980000000 1.0
C      1  0.5492390000000  0.4697110000000  0.4479230000000 1.0
END
