TITL C-599894-471-1082 0.0253090077626917 125000 -102.824161861444 0 0 19 (C1) n - 1
REM
REM in /home/nfs/bkarasulu/CARBON/AIRSS/Generating-Clusters/TERSOFF/Only-C1/FIRE-HFTN
REM
REM
REM
REM
REM
REM ./C.cell (11c1c37f851c82e70ff6c80c92926a4b)
REM AIRSS Version 0.9.1 bugfix July 2018 build 013d7b7c2542+ Fri, 06 Jul 2018 19:26:36 +0100
REM compiler GCC version 9.2.1 20190827 (Red Hat 9.2.1-1)
REM options -cpp -mtune=generic -march=x86-64 -g -O0 -fpre-include=/usr/include/finclude/math-vector-fortran.h
REM seed 539245232 -533859555 -31071959 -384147682 165694855 -1681732907 1183832222 1362186998 -811747644 -1319530191 1206629921 1931880396 -2038721881 1616724604 -2007493237 455672222 -303985469 -634409604 1435099028 -855853412 622494288 720740607 1876763051 -1763816611 305186422 1455625421 -1063365731 -1705785 -432553401 1144266452 -902869665 -1144847487 1662076368
REM
CELL 1.54180   50.00000   50.00000   50.00000   90.00000   90.00000   90.00000
LATT -1
SFAC C  
C      1  0.4572200000000  0.4605550000000  0.5398400000000 1.0
C      1  0.4903520000000  0.5445440000000  0.4897370000000 1.0
C      1  0.4642720000000  0.5069410000000  0.4917910000000 1.0
C      1  0.4817620000000  0.5258260000000  0.5327280000000 1.0
C      1  0.5508640000000  0.5271390000000  0.4619790000000 1.0
C      1  0.5117690000000  0.4448240000000  0.5401760000000 1.0
C      1  0.5667730000000  0.5037670000000  0.5120570000000 1.0
C      1  0.5328650000000  0.5173350000000  0.4800740000000 1.0
C      1  0.4866180000000  0.4995010000000  0.4738490000000 1.0
C      1  0.5231890000000  0.4838900000000  0.5148370000000 1.0
C      1  0.4703730000000  0.5025870000000  0.5199280000000 1.0
C      1  0.4889790000000  0.4770950000000  0.4579140000000 1.0
C      1  0.5052220000000  0.5221530000000  0.4770170000000 1.0
C      1  0.4767420000000  0.4767690000000  0.5296360000000 1.0
C      1  0.4934640000000  0.5461490000000  0.5183120000000 1.0
C      1  0.5040490000000  0.4682670000000  0.5282710000000 1.0
C      1  0.4923440000000  0.4552830000000  0.4440610000000 1.0
C      1  0.5412330000000  0.5015090000000  0.5024050000000 1.0
C      1  0.4619090000000  0.5358650000000  0.4853880000000 1.0
END
