TITL C-599892-9790-1491 887.719290093546 125000 -940.507581131157 0 0 154 (C1) n - 1
REM
REM in /home/nfs/bkarasulu/CARBON/AIRSS/Generating-Clusters/TERSOFF/Only-C1/FIRE-HFTN
REM
REM
REM
REM
REM
REM ./C.cell (11c1c37f851c82e70ff6c80c92926a4b)
REM AIRSS Version 0.9.1 bugfix July 2018 build 013d7b7c2542+ Fri, 06 Jul 2018 19:26:36 +0100
REM compiler GCC version 9.2.1 20190827 (Red Hat 9.2.1-1)
REM options -cpp -mtune=generic -march=x86-64 -g -O0 -fpre-include=/usr/include/finclude/math-vector-fortran.h
REM seed 1682642182 -276739987 1937847882 -1967679903 1680562620 1714252126 817504698 426633976 -739459298 694460205 -438859038 994533057 -844135994 1743964151 -1033837437 1082302936 -1825453138 -1199435574 -646103362 501716503 -55966077 1398146413 -273084085 -68427384 -1576443370 -1621474757 1981560721 649666514 -120546932 -1383232599 -1335320617 1005789289 -1541628323
REM
CELL 1.54180   50.00000   50.00000   50.00000   90.00000   90.00000   90.00000
LATT -1
SFAC C  
C      1  0.4198430000000  0.4089140000000  0.5511380000000 1.0
C      1  0.5224870000000  0.5346100000000  0.4787610000000 1.0
C      1  0.5125760000000  0.6012340000000  0.4763610000000 1.0
C      1  0.5013930000000  0.5519220000000  0.4717940000000 1.0
C      1  0.6050110000000  0.4882630000000  0.4683850000000 1.0
C      1  0.4259680000000  0.5609610000000  0.5630060000000 1.0
C      1  0.6225740000000  0.5108090000000  0.4087070000000 1.0
C      1  0.5960620000000  0.5146720000000  0.5833740000000 1.0
C      1  0.5310180000000  0.3923360000000  0.5080030000000 1.0
C      1  0.4634910000000  0.4671240000000  0.5546690000000 1.0
C      1  0.5424200000000  0.4270200000000  0.4748150000000 1.0
C      1  0.5219910000000  0.4197080000000  0.5771450000000 1.0
C      1  0.5480330000000  0.5594950000000  0.5879880000000 1.0
C      1  0.3886660000000  0.4542400000000  0.5455100000000 1.0
C      1  0.5421130000000  0.5896390000000  0.4327620000000 1.0
C      1  0.4560270000000  0.4263540000000  0.4769280000000 1.0
C      1  0.4597110000000  0.4052780000000  0.4608830000000 1.0
C      1  0.5209260000000  0.5111420000000  0.4638350000000 1.0
C      1  0.5688400000000  0.4193310000000  0.5254130000000 1.0
C      1  0.6004580000000  0.5042940000000  0.4232630000000 1.0
C      1  0.5772500000000  0.4955290000000  0.5180320000000 1.0
C      1  0.3928160000000  0.5182510000000  0.5504260000000 1.0
C      1  0.5046220000000  0.5353460000000  0.6063860000000 1.0
C      1  0.4864080000000  0.4712810000000  0.4368670000000 1.0
C      1  0.4906840000000  0.5156230000000  0.5260660000000 1.0
C      1  0.5177430000000  0.5027910000000  0.5611610000000 1.0
C      1  0.4603760000000  0.5832020000000  0.4219550000000 1.0
C      1  0.5669390000000  0.4333980000000  0.4331740000000 1.0
C      1  0.4975460000000  0.4153830000000  0.5640610000000 1.0
C      1  0.5937430000000  0.4233200000000  0.5121980000000 1.0
C      1  0.5914200000000  0.4330280000000  0.4230580000000 1.0
C      1  0.4693410000000  0.4868390000000  0.5741560000000 1.0
C      1  0.5083370000000  0.5883820000000  0.5872630000000 1.0
C      1  0.4847080000000  0.4365000000000  0.4052870000000 1.0
C      1  0.5375410000000  0.5645920000000  0.3880740000000 1.0
C      1  0.5287620000000  0.5213830000000  0.6106920000000 1.0
C      1  0.6413860000000  0.4379450000000  0.4075760000000 1.0
C      1  0.4830580000000  0.6078750000000  0.4850660000000 1.0
C      1  0.4546190000000  0.4898910000000  0.4746970000000 1.0
C      1  0.5547580000000  0.5357670000000  0.5417720000000 1.0
C      1  0.4355880000000  0.5801080000000  0.5138990000000 1.0
C      1  0.4223560000000  0.4998820000000  0.5865450000000 1.0
C      1  0.4975420000000  0.4901660000000  0.5781740000000 1.0
C      1  0.4154130000000  0.4926670000000  0.4313400000000 1.0
C      1  0.4565650000000  0.5290490000000  0.4497630000000 1.0
C      1  0.5400840000000  0.5681870000000  0.5070890000000 1.0
C      1  0.5228860000000  0.5682370000000  0.5754390000000 1.0
C      1  0.5832230000000  0.5591870000000  0.4449990000000 1.0
C      1  0.5383410000000  0.5565740000000  0.5327970000000 1.0
C      1  0.4153960000000  0.5806010000000  0.4951070000000 1.0
C      1  0.5123330000000  0.5180630000000  0.4366630000000 1.0
C      1  0.4598460000000  0.5221520000000  0.6051430000000 1.0
C      1  0.5520690000000  0.5329240000000  0.5984280000000 1.0
C      1  0.4755900000000  0.4047230000000  0.5779840000000 1.0
C      1  0.4799410000000  0.3915340000000  0.4501260000000 1.0
C      1  0.4801630000000  0.5373540000000  0.5924270000000 1.0
C      1  0.5189950000000  0.5881400000000  0.4498540000000 1.0
C      1  0.4910540000000  0.4298980000000  0.5406070000000 1.0
C      1  0.4606520000000  0.4808650000000  0.4481790000000 1.0
C      1  0.4852460000000  0.4915000000000  0.5123980000000 1.0
C      1  0.4765170000000  0.5574300000000  0.5136560000000 1.0
C      1  0.4455830000000  0.5400540000000  0.5572100000000 1.0
C      1  0.6069270000000  0.4645660000000  0.4811480000000 1.0
C      1  0.4791100000000  0.6086150000000  0.5155590000000 1.0
C      1  0.4535010000000  0.4313810000000  0.6108990000000 1.0
C      1  0.4395430000000  0.5134230000000  0.4855410000000 1.0
C      1  0.5377270000000  0.5853830000000  0.4050340000000 1.0
C      1  0.5113690000000  0.4249960000000  0.4059270000000 1.0
C      1  0.4520450000000  0.5861550000000  0.4494950000000 1.0
C      1  0.5040110000000  0.4713240000000  0.5201230000000 1.0
C      1  0.4769560000000  0.5385990000000  0.4071490000000 1.0
C      1  0.3980290000000  0.4789140000000  0.4512650000000 1.0
C      1  0.5532700000000  0.4609160000000  0.5752970000000 1.0
C      1  0.5460410000000  0.5474390000000  0.4879390000000 1.0
C      1  0.4499240000000  0.4999890000000  0.5909970000000 1.0
C      1  0.5518920000000  0.3961500000000  0.5274730000000 1.0
C      1  0.5711740000000  0.5344730000000  0.4835760000000 1.0
C      1  0.5421930000000  0.5100520000000  0.5471880000000 1.0
C      1  0.4881510000000  0.4575940000000  0.5412570000000 1.0
C      1  0.5052020000000  0.3950550000000  0.4421400000000 1.0
C      1  0.5551660000000  0.4627060000000  0.5460760000000 1.0
C      1  0.5069880000000  0.4798740000000  0.6032090000000 1.0
C      1  0.4106900000000  0.4685630000000  0.5538180000000 1.0
C      1  0.4820610000000  0.4669840000000  0.4058140000000 1.0
C      1  0.5408640000000  0.5127730000000  0.3923920000000 1.0
C      1  0.5020820000000  0.4742040000000  0.3836990000000 1.0
C      1  0.5414650000000  0.4367270000000  0.5840180000000 1.0
C      1  0.5673960000000  0.5806470000000  0.4417100000000 1.0
C      1  0.4065310000000  0.4954360000000  0.5637710000000 1.0
C      1  0.5532580000000  0.4433440000000  0.5242600000000 1.0
C      1  0.4420060000000  0.4850890000000  0.4258540000000 1.0
C      1  0.4367440000000  0.4551140000000  0.5560090000000 1.0
C      1  0.4378690000000  0.5883820000000  0.5577240000000 1.0
C      1  0.4594630000000  0.4875130000000  0.4025280000000 1.0
C      1  0.4495430000000  0.5980260000000  0.5315490000000 1.0
C      1  0.5155520000000  0.5588810000000  0.5489900000000 1.0
C      1  0.4907360000000  0.5444140000000  0.5379710000000 1.0
C      1  0.5810550000000  0.5161320000000  0.5019250000000 1.0
C      1  0.4176700000000  0.5616980000000  0.4748010000000 1.0
C      1  0.5415370000000  0.3997840000000  0.4830450000000 1.0
C      1  0.4917590000000  0.4635120000000  0.6197440000000 1.0
C      1  0.5581570000000  0.4889410000000  0.5370080000000 1.0
C      1  0.4806910000000  0.5630220000000  0.4861490000000 1.0
C      1  0.4112770000000  0.5218600000000  0.4347240000000 1.0
C      1  0.3893040000000  0.4958150000000  0.5024750000000 1.0
C      1  0.4483100000000  0.5548600000000  0.5159920000000 1.0
C      1  0.5984040000000  0.5101040000000  0.4510720000000 1.0
C      1  0.5194230000000  0.4833500000000  0.4712860000000 1.0
C      1  0.4003730000000  0.5458770000000  0.5590500000000 1.0
C      1  0.4408290000000  0.5311810000000  0.5301480000000 1.0
C      1  0.5272650000000  0.4339250000000  0.3841750000000 1.0
C      1  0.3980860000000  0.5221690000000  0.4619530000000 1.0
C      1  0.4524250000000  0.4188140000000  0.5858590000000 1.0
C      1  0.5406390000000  0.4467730000000  0.4974090000000 1.0
C      1  0.6013330000000  0.5303630000000  0.5620950000000 1.0
C      1  0.5311940000000  0.4922910000000  0.6096680000000 1.0
C      1  0.4183770000000  0.5336230000000  0.4784230000000 1.0
C      1  0.5135800000000  0.4713370000000  0.4454160000000 1.0
C      1  0.5043230000000  0.5629380000000  0.4452130000000 1.0
C      1  0.6046430000000  0.4420510000000  0.4958520000000 1.0
C      1  0.4348300000000  0.5089880000000  0.5141700000000 1.0
C      1  0.5426470000000  0.4278220000000  0.4459270000000 1.0
C      1  0.5068420000000  0.6033970000000  0.5238380000000 1.0
C      1  0.4733270000000  0.5423630000000  0.5643230000000 1.0
C      1  0.6165830000000  0.4346620000000  0.4148940000000 1.0
C      1  0.4691130000000  0.5136660000000  0.3955780000000 1.0
C      1  0.5551920000000  0.4842760000000  0.5938690000000 1.0
C      1  0.5217140000000  0.4680850000000  0.4962950000000 1.0
C      1  0.5679810000000  0.5781870000000  0.5913060000000 1.0
C      1  0.4707100000000  0.4475820000000  0.6234120000000 1.0
C      1  0.5854570000000  0.5348720000000  0.4589670000000 1.0
C      1  0.5031150000000  0.3979420000000  0.5091590000000 1.0
C      1  0.4354190000000  0.4276460000000  0.5648140000000 1.0
C      1  0.4546010000000  0.5563910000000  0.4119670000000 1.0
C      1  0.5504730000000  0.4921500000000  0.4091130000000 1.0
C      1  0.4290020000000  0.5683480000000  0.4502400000000 1.0
C      1  0.4869040000000  0.4208600000000  0.5140540000000 1.0
C      1  0.5387120000000  0.5381500000000  0.3843470000000 1.0
C      1  0.5701850000000  0.5098890000000  0.5929780000000 1.0
C      1  0.3789900000000  0.5120290000000  0.5250020000000 1.0
C      1  0.4708490000000  0.4398340000000  0.4967320000000 1.0
C      1  0.5339090000000  0.4760440000000  0.4255940000000 1.0
C      1  0.5214930000000  0.4582080000000  0.3732480000000 1.0
C      1  0.3886430000000  0.4968070000000  0.4728460000000 1.0
C      1  0.5212490000000  0.4152400000000  0.4308080000000 1.0
C      1  0.4680670000000  0.5862880000000  0.4728830000000 1.0
C      1  0.4152380000000  0.4883960000000  0.5130480000000 1.0
C      1  0.4345860000000  0.5433950000000  0.4322580000000 1.0
C      1  0.5823130000000  0.5403340000000  0.5459100000000 1.0
C      1  0.4678310000000  0.4750430000000  0.4953070000000 1.0
C      1  0.5782790000000  0.4914660000000  0.4120790000000 1.0
C      1  0.5250070000000  0.5927180000000  0.5025890000000 1.0
C      1  0.4079400000000  0.3902440000000  0.5373900000000 1.0
C      1  0.4996180000000  0.5415890000000  0.4256440000000 1.0
END
