TITL C-599897-7526-317 2095.00594109517 125000 -294.617653097607 0 0 50 (C1) n - 1
REM
REM in /home/nfs/bkarasulu/CARBON/AIRSS/Generating-Clusters/TERSOFF/Only-C1/FIRE-HFTN
REM
REM
REM
REM
REM
REM ./C.cell (11c1c37f851c82e70ff6c80c92926a4b)
REM AIRSS Version 0.9.1 bugfix July 2018 build 013d7b7c2542+ Fri, 06 Jul 2018 19:26:36 +0100
REM compiler GCC version 9.2.1 20190827 (Red Hat 9.2.1-1)
REM options -cpp -mtune=generic -march=x86-64 -g -O0 -fpre-include=/usr/include/finclude/math-vector-fortran.h
REM seed 620670735 -2059090611 706050409 1416928805 -1612129547 294645141 1684775646 558359917 -764670543 268094934 -1185692884 -519768464 -1505064088 238666408 1985480844 -27401688 -350850576 550477076 1045770104 518757434 -1998599626 920383358 41197117 612527411 -1616643386 1848771039 -1500605915 -1015490664 1734619831 -713684955 -994800305 2003539432 -913316817
REM
CELL 1.54180   50.00000   50.00000   50.00000   90.00000   90.00000   90.00000
LATT -1
SFAC C  
C      1  0.5802010000000  0.4344200000000  0.4851000000000 1.0
C      1  0.4760720000000  0.5074090000000  0.4809130000000 1.0
C      1  0.4885390000000  0.4478590000000  0.5034450000000 1.0
C      1  0.4858320000000  0.4344540000000  0.5735900000000 1.0
C      1  0.5001650000000  0.5439970000000  0.5537560000000 1.0
C      1  0.4835640000000  0.4983570000000  0.5644340000000 1.0
C      1  0.5582940000000  0.4696550000000  0.4588460000000 1.0
C      1  0.4510920000000  0.5087610000000  0.5224610000000 1.0
C      1  0.5320850000000  0.4843090000000  0.5299380000000 1.0
C      1  0.5085310000000  0.4506600000000  0.4809670000000 1.0
C      1  0.4739960000000  0.5539820000000  0.5607640000000 1.0
C      1  0.5425080000000  0.4920930000000  0.4529780000000 1.0
C      1  0.5293790000000  0.5011740000000  0.5526230000000 1.0
C      1  0.4581000000000  0.4808270000000  0.5259000000000 1.0
C      1  0.4676880000000  0.5221860000000  0.5040380000000 1.0
C      1  0.5085630000000  0.5521000000000  0.4433060000000 1.0
C      1  0.5212270000000  0.4964150000000  0.5068370000000 1.0
C      1  0.4536790000000  0.5767500000000  0.4965470000000 1.0
C      1  0.5002940000000  0.4954610000000  0.4904740000000 1.0
C      1  0.5058670000000  0.5158820000000  0.5602790000000 1.0
C      1  0.4633210000000  0.4623150000000  0.5030160000000 1.0
C      1  0.5025630000000  0.4457470000000  0.5289750000000 1.0
C      1  0.4517790000000  0.4629330000000  0.4765220000000 1.0
C      1  0.5039250000000  0.5423870000000  0.4853720000000 1.0
C      1  0.5263790000000  0.5710860000000  0.5104320000000 1.0
C      1  0.4676740000000  0.5717820000000  0.4738620000000 1.0
C      1  0.4872120000000  0.4511030000000  0.5521100000000 1.0
C      1  0.5344980000000  0.4495840000000  0.4948730000000 1.0
C      1  0.4896800000000  0.5568260000000  0.4646230000000 1.0
C      1  0.5010370000000  0.5159320000000  0.4394130000000 1.0
C      1  0.4730570000000  0.4759020000000  0.5504200000000 1.0
C      1  0.4391000000000  0.5270440000000  0.5405710000000 1.0
C      1  0.4898740000000  0.5400650000000  0.5094910000000 1.0
C      1  0.5300410000000  0.5314450000000  0.4810130000000 1.0
C      1  0.4709490000000  0.4633350000000  0.4549300000000 1.0
C      1  0.4503490000000  0.5532630000000  0.5444410000000 1.0
C      1  0.5583310000000  0.4506930000000  0.4797520000000 1.0
C      1  0.4477590000000  0.5713830000000  0.5224130000000 1.0
C      1  0.4243460000000  0.4631140000000  0.4721290000000 1.0
C      1  0.4756120000000  0.5137280000000  0.4532830000000 1.0
C      1  0.5315450000000  0.5680970000000  0.4550570000000 1.0
C      1  0.5080720000000  0.5540710000000  0.5276650000000 1.0
C      1  0.5338740000000  0.5758360000000  0.4830840000000 1.0
C      1  0.4997960000000  0.4654920000000  0.4567160000000 1.0
C      1  0.5149040000000  0.4893570000000  0.4445530000000 1.0
C      1  0.5471920000000  0.5161490000000  0.4670320000000 1.0
C      1  0.5297640000000  0.4558720000000  0.5238700000000 1.0
C      1  0.3985440000000  0.4643430000000  0.4686860000000 1.0
C      1  0.6219470000000  0.4049130000000  0.4973270000000 1.0
C      1  0.6012010000000  0.4194500000000  0.4911710000000 1.0
END
