TITL C-599897-7526-610 -0.075892986843207 125000 -159.372916972507 0 0 28 (C1) n - 1
REM
REM in /home/nfs/bkarasulu/CARBON/AIRSS/Generating-Clusters/TERSOFF/Only-C1/FIRE-HFTN
REM
REM
REM
REM
REM
REM ./C.cell (11c1c37f851c82e70ff6c80c92926a4b)
REM AIRSS Version 0.9.1 bugfix July 2018 build 013d7b7c2542+ Fri, 06 Jul 2018 19:26:36 +0100
REM compiler GCC version 9.2.1 20190827 (Red Hat 9.2.1-1)
REM options -cpp -mtune=generic -march=x86-64 -g -O0 -fpre-include=/usr/include/finclude/math-vector-fortran.h
REM seed -1881127039 1814306724 1299961200 758536701 209027207 1892830868 -1109569719 -2118492171 -1499532464 -1227219924 -2003726656 1921215394 1111450801 -1758364218 -539037056 702595181 -1399290097 -1123768000 1972570440 -281728954 -393940497 1449777886 -241182088 -1314641587 -1814508109 -445278320 -621226327 125120329 821789380 432618504 600712399 34760899 1684717566
REM
CELL 1.54180   50.00000   50.00000   50.00000   90.00000   90.00000   90.00000
LATT -1
SFAC C  
C      1  0.5005700000000  0.4929180000000  0.5180900000000 1.0
C      1  0.5233520000000  0.5002140000000  0.5325230000000 1.0
C      1  0.5085780000000  0.4476060000000  0.5010480000000 1.0
C      1  0.4178370000000  0.5671460000000  0.4696960000000 1.0
C      1  0.4963030000000  0.5532820000000  0.4508420000000 1.0
C      1  0.4618450000000  0.4993780000000  0.5471640000000 1.0
C      1  0.5468600000000  0.5117980000000  0.5423720000000 1.0
C      1  0.5306300000000  0.3884910000000  0.5362170000000 1.0
C      1  0.5179060000000  0.5684480000000  0.4542420000000 1.0
C      1  0.4981960000000  0.4842520000000  0.4705800000000 1.0
C      1  0.5144640000000  0.4223260000000  0.5062650000000 1.0
C      1  0.4495250000000  0.4934820000000  0.5693600000000 1.0
C      1  0.5026350000000  0.4744260000000  0.4964620000000 1.0
C      1  0.3972630000000  0.5822470000000  0.4643780000000 1.0
C      1  0.4900040000000  0.5054680000000  0.4566510000000 1.0
C      1  0.4611130000000  0.5360310000000  0.4802720000000 1.0
C      1  0.4755130000000  0.5053740000000  0.5235800000000 1.0
C      1  0.5128620000000  0.3584120000000  0.4733740000000 1.0
C      1  0.5166710000000  0.3763040000000  0.4919380000000 1.0
C      1  0.5551170000000  0.5675710000000  0.4894690000000 1.0
C      1  0.4387760000000  0.5518280000000  0.4750610000000 1.0
C      1  0.5396520000000  0.5735830000000  0.4686890000000 1.0
C      1  0.5578500000000  0.5336810000000  0.5287900000000 1.0
C      1  0.4811660000000  0.5318430000000  0.4604330000000 1.0
C      1  0.5207010000000  0.3956270000000  0.5117490000000 1.0
C      1  0.4646590000000  0.5233930000000  0.5050620000000 1.0
C      1  0.5610840000000  0.5529590000000  0.5108400000000 1.0
C      1  0.5588680000000  0.5019100000000  0.5648530000000 1.0
END
