TITL C-599891-72-746 -0.0777580857703482 125000 -652.920277206038 0 0 107 (C1) n - 1
REM
REM in /home/nfs/bkarasulu/CARBON/AIRSS/Generating-Clusters/TERSOFF/Only-C1/FIRE-HFTN
REM
REM
REM
REM
REM
REM ./C.cell (11c1c37f851c82e70ff6c80c92926a4b)
REM AIRSS Version 0.9.1 bugfix July 2018 build 013d7b7c2542+ Fri, 06 Jul 2018 19:26:36 +0100
REM compiler GCC version 9.2.1 20190827 (Red Hat 9.2.1-1)
REM options -cpp -mtune=generic -march=x86-64 -g -O0 -fpre-include=/usr/include/finclude/math-vector-fortran.h
REM seed -1529504849 -82077758 -1320774407 -83626496 14055953 1622423048 368167336 -2085737980 -1311579625 300470964 -1295923552 170098189 390966655 -1434398347 1194505906 -132490785 1419618634 542606623 -483493087 -1812079799 1617197745 -2090890600 835033356 1492005708 100726713 -628057841 -1253395320 -1581438780 1202629179 -822500970 338289804 -1547562715 -686424984
REM
CELL 1.54180   50.00000   50.00000   50.00000   90.00000   90.00000   90.00000
LATT -1
SFAC C  
C      1  0.4636420000000  0.4217280000000  0.5438970000000 1.0
C      1  0.5413480000000  0.4728230000000  0.6113110000000 1.0
C      1  0.5339070000000  0.4220510000000  0.5192430000000 1.0
C      1  0.4835190000000  0.4274390000000  0.5033030000000 1.0
C      1  0.5307510000000  0.5189400000000  0.4117930000000 1.0
C      1  0.5696130000000  0.4601540000000  0.5153140000000 1.0
C      1  0.5583240000000  0.4917350000000  0.4762280000000 1.0
C      1  0.4409790000000  0.5408600000000  0.4533330000000 1.0
C      1  0.5026090000000  0.4776980000000  0.5570340000000 1.0
C      1  0.5599560000000  0.5911950000000  0.5638600000000 1.0
C      1  0.5354770000000  0.4955170000000  0.4917680000000 1.0
C      1  0.3940370000000  0.5039540000000  0.5010180000000 1.0
C      1  0.4251220000000  0.4354370000000  0.4504940000000 1.0
C      1  0.4975490000000  0.5138330000000  0.5885860000000 1.0
C      1  0.4850960000000  0.4391210000000  0.4306200000000 1.0
C      1  0.4395040000000  0.4631150000000  0.5435670000000 1.0
C      1  0.5434710000000  0.5843030000000  0.4513160000000 1.0
C      1  0.4583490000000  0.4497510000000  0.5846370000000 1.0
C      1  0.4814640000000  0.4439920000000  0.4807260000000 1.0
C      1  0.5219620000000  0.5669260000000  0.4988370000000 1.0
C      1  0.4865350000000  0.5322930000000  0.3966080000000 1.0
C      1  0.5381680000000  0.4967020000000  0.4283850000000 1.0
C      1  0.6025650000000  0.4811760000000  0.5771720000000 1.0
C      1  0.5233000000000  0.4353180000000  0.4561060000000 1.0
C      1  0.5433760000000  0.5730150000000  0.4255730000000 1.0
C      1  0.4442680000000  0.4747130000000  0.4976110000000 1.0
C      1  0.4800500000000  0.5572600000000  0.4778990000000 1.0
C      1  0.5250560000000  0.5380250000000  0.5080440000000 1.0
C      1  0.5570360000000  0.6123540000000  0.5787910000000 1.0
C      1  0.3922680000000  0.5664780000000  0.5201560000000 1.0
C      1  0.4196230000000  0.4632120000000  0.4879560000000 1.0
C      1  0.4834550000000  0.5562910000000  0.4082590000000 1.0
C      1  0.5386420000000  0.4992480000000  0.6084390000000 1.0
C      1  0.5475560000000  0.4011200000000  0.5320340000000 1.0
C      1  0.4578480000000  0.4193980000000  0.5151890000000 1.0
C      1  0.4856150000000  0.6102770000000  0.4619430000000 1.0
C      1  0.5846650000000  0.4799190000000  0.5582770000000 1.0
C      1  0.4414930000000  0.4837860000000  0.5246350000000 1.0
C      1  0.4688020000000  0.4860910000000  0.4328040000000 1.0
C      1  0.5033180000000  0.5105780000000  0.4033670000000 1.0
C      1  0.5484290000000  0.5369670000000  0.4506950000000 1.0
C      1  0.4755160000000  0.5316350000000  0.5865490000000 1.0
C      1  0.5002490000000  0.4998520000000  0.4657710000000 1.0
C      1  0.5608730000000  0.3823080000000  0.5441940000000 1.0
C      1  0.4246470000000  0.5017470000000  0.4206100000000 1.0
C      1  0.5196240000000  0.4777710000000  0.5079900000000 1.0
C      1  0.4924690000000  0.4189240000000  0.5478200000000 1.0
C      1  0.5776950000000  0.4716490000000  0.4709790000000 1.0
C      1  0.5916950000000  0.5368420000000  0.4853750000000 1.0
C      1  0.3970770000000  0.4797500000000  0.4896280000000 1.0
C      1  0.4506780000000  0.4421860000000  0.5585920000000 1.0
C      1  0.5176590000000  0.5182800000000  0.4839080000000 1.0
C      1  0.5673720000000  0.4495180000000  0.4573100000000 1.0
C      1  0.4943930000000  0.4346390000000  0.4575350000000 1.0
C      1  0.4052790000000  0.5004040000000  0.4014300000000 1.0
C      1  0.5899890000000  0.5578590000000  0.5038660000000 1.0
C      1  0.4310670000000  0.5094770000000  0.5320150000000 1.0
C      1  0.4379010000000  0.5218610000000  0.5563330000000 1.0
C      1  0.4754460000000  0.4881790000000  0.4610940000000 1.0
C      1  0.4107640000000  0.5212390000000  0.5156600000000 1.0
C      1  0.4861180000000  0.5961330000000  0.4388000000000 1.0
C      1  0.5436190000000  0.4984530000000  0.5383170000000 1.0
C      1  0.4346260000000  0.5582680000000  0.4971950000000 1.0
C      1  0.5660820000000  0.4797590000000  0.5373250000000 1.0
C      1  0.4918910000000  0.4844410000000  0.4136280000000 1.0
C      1  0.5347730000000  0.4478330000000  0.6047260000000 1.0
C      1  0.5463180000000  0.4372620000000  0.4741210000000 1.0
C      1  0.4315240000000  0.4538710000000  0.4317980000000 1.0
C      1  0.5211100000000  0.4893710000000  0.4481260000000 1.0
C      1  0.4290190000000  0.5250680000000  0.4356390000000 1.0
C      1  0.4664000000000  0.4757980000000  0.5915290000000 1.0
C      1  0.5498870000000  0.4399290000000  0.5033290000000 1.0
C      1  0.4900630000000  0.5687080000000  0.4324490000000 1.0
C      1  0.3731650000000  0.5824830000000  0.5291470000000 1.0
C      1  0.5907190000000  0.4685010000000  0.4964900000000 1.0
C      1  0.5733720000000  0.5362800000000  0.4637240000000 1.0
C      1  0.6092570000000  0.4892660000000  0.5011120000000 1.0
C      1  0.5296460000000  0.4470680000000  0.4281500000000 1.0
C      1  0.4120950000000  0.5491830000000  0.5111350000000 1.0
C      1  0.5395260000000  0.5272270000000  0.5319920000000 1.0
C      1  0.5218650000000  0.4289590000000  0.5910450000000 1.0
C      1  0.4464990000000  0.4958050000000  0.5958320000000 1.0
C      1  0.5055480000000  0.4231820000000  0.5218900000000 1.0
C      1  0.4496470000000  0.5205280000000  0.5817500000000 1.0
C      1  0.5382270000000  0.5384460000000  0.5789860000000 1.0
C      1  0.4417550000000  0.4796910000000  0.4262090000000 1.0
C      1  0.5624760000000  0.5683880000000  0.5479850000000 1.0
C      1  0.5038340000000  0.4569920000000  0.4162810000000 1.0
C      1  0.4523310000000  0.5522250000000  0.4764150000000 1.0
C      1  0.5802540000000  0.5680580000000  0.5263710000000 1.0
C      1  0.3543520000000  0.5981860000000  0.5380410000000 1.0
C      1  0.5063490000000  0.4186860000000  0.5719790000000 1.0
C      1  0.5247670000000  0.5192220000000  0.5942620000000 1.0
C      1  0.5583410000000  0.4501330000000  0.4300000000000 1.0
C      1  0.6079550000000  0.5148780000000  0.4926790000000 1.0
C      1  0.5392730000000  0.5797010000000  0.4783950000000 1.0
C      1  0.4670760000000  0.4693980000000  0.4810040000000 1.0
C      1  0.5192000000000  0.4830680000000  0.5356560000000 1.0
C      1  0.4353690000000  0.4191930000000  0.4979010000000 1.0
C      1  0.5432760000000  0.5440580000000  0.4223380000000 1.0
C      1  0.5466850000000  0.5453600000000  0.5530960000000 1.0
C      1  0.4941780000000  0.5755420000000  0.4952960000000 1.0
C      1  0.4230570000000  0.4365220000000  0.4787040000000 1.0
C      1  0.4974000000000  0.5522420000000  0.4549420000000 1.0
C      1  0.5220780000000  0.5383880000000  0.4620540000000 1.0
C      1  0.4890580000000  0.6026120000000  0.4878680000000 1.0
C      1  0.4908040000000  0.4867240000000  0.5808010000000 1.0
END
