TITL C-599891-72-923 -663.514882246128 125000 -864.957794249632 0 0 141 (C1) n - 1
REM
REM in /home/nfs/bkarasulu/CARBON/AIRSS/Generating-Clusters/TERSOFF/Only-C1/FIRE-HFTN
REM
REM
REM
REM
REM
REM ./C.cell (11c1c37f851c82e70ff6c80c92926a4b)
REM AIRSS Version 0.9.1 bugfix July 2018 build 013d7b7c2542+ Fri, 06 Jul 2018 19:26:36 +0100
REM compiler GCC version 9.2.1 20190827 (Red Hat 9.2.1-1)
REM options -cpp -mtune=generic -march=x86-64 -g -O0 -fpre-include=/usr/include/finclude/math-vector-fortran.h
REM seed 1521895491 -1994438347 -853044498 1310148101 -1926793927 212224696 1559584129 1049367791 -425105163 -1978220011 -1715917870 1021469810 1780035421 1126966536 -158103320 -1784077882 125636506 -181563174 -660301891 197889057 728411048 337299045 -276633779 -677915723 910223948 2089402371 -1954123657 -149260146 1545723435 -1796656461 1853921663 -457169009 -1657396826
REM
CELL 1.54180   50.00000   50.00000   50.00000   90.00000   90.00000   90.00000
LATT -1
SFAC C  
C      1  0.5028500000000  0.4393420000000  0.5238490000000 1.0
C      1  0.5016620000000  0.5934380000000  0.5543080000000 1.0
C      1  0.5653390000000  0.4214480000000  0.5444150000000 1.0
C      1  0.5234530000000  0.3959600000000  0.5187830000000 1.0
C      1  0.5045340000000  0.4169930000000  0.4446560000000 1.0
C      1  0.5290350000000  0.5584760000000  0.5870160000000 1.0
C      1  0.4439600000000  0.4141280000000  0.4857690000000 1.0
C      1  0.5202840000000  0.4865030000000  0.3774980000000 1.0
C      1  0.5447220000000  0.4050730000000  0.5015010000000 1.0
C      1  0.6031630000000  0.5510690000000  0.5438760000000 1.0
C      1  0.5634780000000  0.5233660000000  0.5599860000000 1.0
C      1  0.5286510000000  0.4282540000000  0.4559790000000 1.0
C      1  0.4740160000000  0.5901200000000  0.4667950000000 1.0
C      1  0.3588070000000  0.6156190000000  0.4692550000000 1.0
C      1  0.4675800000000  0.5358990000000  0.4711790000000 1.0
C      1  0.4199690000000  0.4264640000000  0.4762680000000 1.0
C      1  0.4788120000000  0.4812030000000  0.5308820000000 1.0
C      1  0.5279080000000  0.4510500000000  0.5183060000000 1.0
C      1  0.5824830000000  0.4647340000000  0.4336790000000 1.0
C      1  0.4353820000000  0.5559120000000  0.4431640000000 1.0
C      1  0.5655210000000  0.5921690000000  0.5020630000000 1.0
C      1  0.5382470000000  0.5821030000000  0.5076260000000 1.0
C      1  0.4930820000000  0.5969150000000  0.4212010000000 1.0
C      1  0.5707760000000  0.5181920000000  0.4906000000000 1.0
C      1  0.4871350000000  0.4051480000000  0.4637000000000 1.0
C      1  0.4853360000000  0.4752490000000  0.4662450000000 1.0
C      1  0.6028370000000  0.5707930000000  0.4752180000000 1.0
C      1  0.4671480000000  0.4915860000000  0.5538870000000 1.0
C      1  0.5088380000000  0.4911150000000  0.4748600000000 1.0
C      1  0.4782180000000  0.5432450000000  0.3834800000000 1.0
C      1  0.5751190000000  0.4265890000000  0.4708290000000 1.0
C      1  0.5061480000000  0.4635300000000  0.5904570000000 1.0
C      1  0.4790250000000  0.5544100000000  0.5664950000000 1.0
C      1  0.5126450000000  0.5156640000000  0.4551280000000 1.0
C      1  0.4455740000000  0.4741210000000  0.5615320000000 1.0
C      1  0.5644850000000  0.5465430000000  0.4969470000000 1.0
C      1  0.4427590000000  0.3755770000000  0.5234940000000 1.0
C      1  0.6177830000000  0.5320990000000  0.5000530000000 1.0
C      1  0.4957890000000  0.5334660000000  0.5560130000000 1.0
C      1  0.4592190000000  0.4529170000000  0.5774440000000 1.0
C      1  0.5327700000000  0.4564560000000  0.4506860000000 1.0
C      1  0.4224930000000  0.4879750000000  0.4469830000000 1.0
C      1  0.5834800000000  0.5963710000000  0.5239670000000 1.0
C      1  0.5650950000000  0.4499370000000  0.5487630000000 1.0
C      1  0.4833190000000  0.5096570000000  0.5684110000000 1.0
C      1  0.4154020000000  0.5389680000000  0.5770290000000 1.0
C      1  0.5366520000000  0.4766460000000  0.4736310000000 1.0
C      1  0.5408540000000  0.5155930000000  0.4463770000000 1.0
C      1  0.4964630000000  0.5308090000000  0.3685830000000 1.0
C      1  0.4776820000000  0.4497240000000  0.4748860000000 1.0
C      1  0.5476490000000  0.4163660000000  0.4738350000000 1.0
C      1  0.4692300000000  0.4227900000000  0.4765540000000 1.0
C      1  0.3271170000000  0.3990230000000  0.4663500000000 1.0
C      1  0.4508460000000  0.5780950000000  0.4800500000000 1.0
C      1  0.4279790000000  0.5757350000000  0.4624500000000 1.0
C      1  0.5285590000000  0.4645170000000  0.4240350000000 1.0
C      1  0.4362710000000  0.5417470000000  0.5939450000000 1.0
C      1  0.5304810000000  0.4792550000000  0.5923290000000 1.0
C      1  0.4570320000000  0.5628250000000  0.4248100000000 1.0
C      1  0.3991850000000  0.4379910000000  0.5199170000000 1.0
C      1  0.5765340000000  0.5705830000000  0.4849010000000 1.0
C      1  0.4571060000000  0.5526070000000  0.4925840000000 1.0
C      1  0.5083900000000  0.5508080000000  0.4863910000000 1.0
C      1  0.4502650000000  0.5863780000000  0.5468230000000 1.0
C      1  0.4682980000000  0.4421280000000  0.4136940000000 1.0
C      1  0.4179790000000  0.4999900000000  0.5261530000000 1.0
C      1  0.6227900000000  0.5553210000000  0.4849190000000 1.0
C      1  0.4899250000000  0.4283430000000  0.4225560000000 1.0
C      1  0.4628100000000  0.4668660000000  0.5135730000000 1.0
C      1  0.5192420000000  0.4044320000000  0.5469220000000 1.0
C      1  0.4455870000000  0.5062640000000  0.4401310000000 1.0
C      1  0.4954470000000  0.5976310000000  0.4853750000000 1.0
C      1  0.4943920000000  0.6155460000000  0.5076230000000 1.0
C      1  0.4999060000000  0.4268800000000  0.5499950000000 1.0
C      1  0.6006590000000  0.5129500000000  0.4870550000000 1.0
C      1  0.5451250000000  0.4071470000000  0.5590810000000 1.0
C      1  0.5388930000000  0.4619870000000  0.5440650000000 1.0
C      1  0.5383000000000  0.5055690000000  0.5960250000000 1.0
C      1  0.4469260000000  0.4611920000000  0.4133950000000 1.0
C      1  0.5568620000000  0.5088020000000  0.4238860000000 1.0
C      1  0.6077310000000  0.4604550000000  0.4754600000000 1.0
C      1  0.4688800000000  0.4892660000000  0.4487190000000 1.0
C      1  0.3972630000000  0.4274270000000  0.4937920000000 1.0
C      1  0.5741010000000  0.4876980000000  0.4220300000000 1.0
C      1  0.4613700000000  0.5495240000000  0.5882610000000 1.0
C      1  0.4263870000000  0.5735060000000  0.5456440000000 1.0
C      1  0.5262170000000  0.5322700000000  0.5996130000000 1.0
C      1  0.4244260000000  0.5278320000000  0.5298450000000 1.0
C      1  0.5156800000000  0.5779840000000  0.4899630000000 1.0
C      1  0.5844320000000  0.5399540000000  0.5619770000000 1.0
C      1  0.5002440000000  0.5260210000000  0.6106440000000 1.0
C      1  0.4408930000000  0.4701110000000  0.4990880000000 1.0
C      1  0.6107750000000  0.4410550000000  0.4965780000000 1.0
C      1  0.6175170000000  0.5309700000000  0.5286720000000 1.0
C      1  0.5879320000000  0.4492130000000  0.4566830000000 1.0
C      1  0.5889000000000  0.4224450000000  0.4975460000000 1.0
C      1  0.6104410000000  0.4881700000000  0.4779440000000 1.0
C      1  0.4201030000000  0.4892380000000  0.4987710000000 1.0
C      1  0.4893780000000  0.4442870000000  0.5716760000000 1.0
C      1  0.4453850000000  0.5313020000000  0.4542660000000 1.0
C      1  0.5028350000000  0.6127170000000  0.5334570000000 1.0
C      1  0.5696180000000  0.4128820000000  0.5167000000000 1.0
C      1  0.4041580000000  0.5895140000000  0.4642820000000 1.0
C      1  0.5214810000000  0.5802940000000  0.5716300000000 1.0
C      1  0.5243710000000  0.5364240000000  0.5320070000000 1.0
C      1  0.5454610000000  0.4634940000000  0.4992510000000 1.0
C      1  0.5273390000000  0.4884370000000  0.5430980000000 1.0
C      1  0.5043540000000  0.4892390000000  0.5254580000000 1.0
C      1  0.4441310000000  0.5387520000000  0.5127870000000 1.0
C      1  0.5441180000000  0.5134150000000  0.5396830000000 1.0
C      1  0.5542470000000  0.5029340000000  0.4696520000000 1.0
C      1  0.5246260000000  0.4709130000000  0.3985560000000 1.0
C      1  0.4499300000000  0.4863140000000  0.3987100000000 1.0
C      1  0.5838770000000  0.4664090000000  0.5347390000000 1.0
C      1  0.5993680000000  0.5784130000000  0.5369230000000 1.0
C      1  0.4956540000000  0.5372300000000  0.4646750000000 1.0
C      1  0.6192900000000  0.5047190000000  0.5398740000000 1.0
C      1  0.4612340000000  0.4625590000000  0.6053260000000 1.0
C      1  0.5676190000000  0.4768040000000  0.5129920000000 1.0
C      1  0.5114100000000  0.5089050000000  0.3662580000000 1.0
C      1  0.5451390000000  0.5556040000000  0.5188870000000 1.0
C      1  0.4850180000000  0.4785240000000  0.6056310000000 1.0
C      1  0.4852280000000  0.5059400000000  0.5973680000000 1.0
C      1  0.3497370000000  0.4081680000000  0.4755340000000 1.0
C      1  0.4167080000000  0.5466980000000  0.5499240000000 1.0
C      1  0.4751170000000  0.5834900000000  0.4371730000000 1.0
C      1  0.4058200000000  0.4547790000000  0.5397310000000 1.0
C      1  0.4199710000000  0.4394250000000  0.4511070000000 1.0
C      1  0.4210310000000  0.4779490000000  0.5462890000000 1.0
C      1  0.5623880000000  0.5045220000000  0.5158440000000 1.0
C      1  0.3812960000000  0.6026700000000  0.4667570000000 1.0
C      1  0.3727490000000  0.4174710000000  0.4847960000000 1.0
C      1  0.6067720000000  0.4809200000000  0.5420110000000 1.0
C      1  0.4510220000000  0.5127430000000  0.4107940000000 1.0
C      1  0.4765930000000  0.5797710000000  0.5548680000000 1.0
C      1  0.4101700000000  0.4932560000000  0.4724610000000 1.0
C      1  0.5092780000000  0.5312420000000  0.5071660000000 1.0
C      1  0.4269650000000  0.4616790000000  0.4352200000000 1.0
C      1  0.4426100000000  0.3934230000000  0.5045050000000 1.0
C      1  0.4612910000000  0.5402820000000  0.4057090000000 1.0
C      1  0.5061550000000  0.5039630000000  0.5018200000000 1.0
END
