TITL C-599894-471-65 363.126890133734 125000 -905.170169959978 0 0 147 (C1) n - 1
REM
REM in /home/nfs/bkarasulu/CARBON/AIRSS/Generating-Clusters/TERSOFF/Only-C1/FIRE-HFTN
REM
REM
REM
REM
REM
REM ./C.cell (11c1c37f851c82e70ff6c80c92926a4b)
REM AIRSS Version 0.9.1 bugfix July 2018 build 013d7b7c2542+ Fri, 06 Jul 2018 19:26:36 +0100
REM compiler GCC version 9.2.1 20190827 (Red Hat 9.2.1-1)
REM options -cpp -mtune=generic -march=x86-64 -g -O0 -fpre-include=/usr/include/finclude/math-vector-fortran.h
REM seed -1175715157 1245866746 -322020561 1886146662 -106554263 1180782056 -1670853462 -856488059 2107104600 -1014258251 2022344893 -316917990 654017273 488063091 751137263 300021454 381333951 -1079779300 -1146739978 -2033660088 2048444478 -805218784 -1398176832 1728899752 -2060783917 -1518604955 890955014 461520963 -737135900 1524591068 623220890 1595811975 465899721
REM
CELL 1.54180   50.00000   50.00000   50.00000   90.00000   90.00000   90.00000
LATT -1
SFAC C  
C      1  0.5287560000000  0.5237520000000  0.6062430000000 1.0
C      1  0.4243090000000  0.4816550000000  0.5438640000000 1.0
C      1  0.4358120000000  0.4818930000000  0.5718950000000 1.0
C      1  0.5026590000000  0.5161630000000  0.5401980000000 1.0
C      1  0.5478930000000  0.4164720000000  0.4455420000000 1.0
C      1  0.4473450000000  0.5059320000000  0.4880020000000 1.0
C      1  0.4041490000000  0.5244970000000  0.5323660000000 1.0
C      1  0.4067900000000  0.5820390000000  0.4861850000000 1.0
C      1  0.5035330000000  0.5297210000000  0.4748820000000 1.0
C      1  0.5429960000000  0.5414440000000  0.5638010000000 1.0
C      1  0.4928440000000  0.4573530000000  0.6009360000000 1.0
C      1  0.5133620000000  0.5031610000000  0.6182950000000 1.0
C      1  0.4139940000000  0.5887190000000  0.5113810000000 1.0
C      1  0.4562960000000  0.4730250000000  0.4762500000000 1.0
C      1  0.5671260000000  0.4696630000000  0.6121760000000 1.0
C      1  0.5004380000000  0.4797310000000  0.4563660000000 1.0
C      1  0.5534030000000  0.4771070000000  0.4563120000000 1.0
C      1  0.5405360000000  0.4428820000000  0.5054510000000 1.0
C      1  0.4686310000000  0.5138730000000  0.4511020000000 1.0
C      1  0.4951810000000  0.4859620000000  0.6053750000000 1.0
C      1  0.5404980000000  0.4921930000000  0.5212670000000 1.0
C      1  0.5039960000000  0.5591260000000  0.3994310000000 1.0
C      1  0.4983120000000  0.5455920000000  0.4971980000000 1.0
C      1  0.5514660000000  0.5197460000000  0.4722470000000 1.0
C      1  0.6079760000000  0.4675060000000  0.4884200000000 1.0
C      1  0.4586130000000  0.5435030000000  0.4082470000000 1.0
C      1  0.4758660000000  0.4638360000000  0.4575390000000 1.0
C      1  0.5840380000000  0.5177540000000  0.4393420000000 1.0
C      1  0.5240700000000  0.5589890000000  0.5031980000000 1.0
C      1  0.6008970000000  0.5359210000000  0.4836120000000 1.0
C      1  0.5617330000000  0.4271820000000  0.4961940000000 1.0
C      1  0.4648660000000  0.3556330000000  0.4850450000000 1.0
C      1  0.5821800000000  0.5119090000000  0.5223340000000 1.0
C      1  0.5247320000000  0.5942180000000  0.5802300000000 1.0
C      1  0.4527710000000  0.4251680000000  0.5218510000000 1.0
C      1  0.5287000000000  0.4926170000000  0.5665260000000 1.0
C      1  0.4427980000000  0.5167610000000  0.4633140000000 1.0
C      1  0.4721880000000  0.4445650000000  0.4378750000000 1.0
C      1  0.4869680000000  0.3757570000000  0.4221680000000 1.0
C      1  0.4208830000000  0.5384640000000  0.5137450000000 1.0
C      1  0.5178370000000  0.5413480000000  0.4539000000000 1.0
C      1  0.4813680000000  0.6076700000000  0.5291340000000 1.0
C      1  0.4572610000000  0.5747210000000  0.4541300000000 1.0
C      1  0.5046770000000  0.4235820000000  0.4141470000000 1.0
C      1  0.5734100000000  0.5457010000000  0.4358710000000 1.0
C      1  0.5624150000000  0.4662610000000  0.5846060000000 1.0
C      1  0.4868650000000  0.4865490000000  0.5036170000000 1.0
C      1  0.4832020000000  0.3544530000000  0.4377160000000 1.0
C      1  0.4530670000000  0.5047300000000  0.5799410000000 1.0
C      1  0.5092270000000  0.5984280000000  0.4784280000000 1.0
C      1  0.4439420000000  0.4558490000000  0.5836890000000 1.0
C      1  0.4307210000000  0.5906220000000  0.5344580000000 1.0
C      1  0.5713100000000  0.4660340000000  0.3899020000000 1.0
C      1  0.4345320000000  0.4554440000000  0.4822140000000 1.0
C      1  0.5959050000000  0.4893220000000  0.4752330000000 1.0
C      1  0.4487370000000  0.5303760000000  0.5067100000000 1.0
C      1  0.5769830000000  0.4225720000000  0.5412630000000 1.0
C      1  0.5587260000000  0.4826530000000  0.4072790000000 1.0
C      1  0.4406510000000  0.4484680000000  0.5101040000000 1.0
C      1  0.4799420000000  0.5627640000000  0.4136030000000 1.0
C      1  0.4988210000000  0.4610950000000  0.5046120000000 1.0
C      1  0.5781840000000  0.4835280000000  0.5661610000000 1.0
C      1  0.4608390000000  0.5723550000000  0.4819430000000 1.0
C      1  0.4945610000000  0.5426160000000  0.5483160000000 1.0
C      1  0.4848540000000  0.4740260000000  0.4016840000000 1.0
C      1  0.5267820000000  0.5517590000000  0.6115100000000 1.0
C      1  0.4619580000000  0.4177470000000  0.4328770000000 1.0
C      1  0.4196400000000  0.4389690000000  0.4213210000000 1.0
C      1  0.5595840000000  0.4170830000000  0.4698320000000 1.0
C      1  0.5086950000000  0.6001820000000  0.5288620000000 1.0
C      1  0.4607550000000  0.5179210000000  0.5303620000000 1.0
C      1  0.4842950000000  0.4033340000000  0.4210140000000 1.0
C      1  0.5771110000000  0.5868470000000  0.5187090000000 1.0
C      1  0.6043340000000  0.4462770000000  0.5048100000000 1.0
C      1  0.5863210000000  0.5073400000000  0.5506990000000 1.0
C      1  0.4697370000000  0.5516200000000  0.4987820000000 1.0
C      1  0.5522490000000  0.5406220000000  0.4944640000000 1.0
C      1  0.5029600000000  0.4475220000000  0.5303310000000 1.0
C      1  0.5721470000000  0.4728430000000  0.6375470000000 1.0
C      1  0.4573100000000  0.3753530000000  0.5011530000000 1.0
C      1  0.4040820000000  0.4963380000000  0.5275220000000 1.0
C      1  0.4906280000000  0.4379800000000  0.5540630000000 1.0
C      1  0.5256530000000  0.5766650000000  0.6008480000000 1.0
C      1  0.5699190000000  0.5849020000000  0.4666180000000 1.0
C      1  0.5333520000000  0.5202030000000  0.4169410000000 1.0
C      1  0.4318800000000  0.5644430000000  0.4439700000000 1.0
C      1  0.4216540000000  0.4141740000000  0.5712200000000 1.0
C      1  0.5275960000000  0.5673870000000  0.4482250000000 1.0
C      1  0.4213070000000  0.4648250000000  0.4328710000000 1.0
C      1  0.5261540000000  0.4684430000000  0.4626950000000 1.0
C      1  0.4418200000000  0.4322350000000  0.5679920000000 1.0
C      1  0.5006410000000  0.4977530000000  0.5613060000000 1.0
C      1  0.4451070000000  0.4720820000000  0.5263550000000 1.0
C      1  0.5898310000000  0.5321500000000  0.5646840000000 1.0
C      1  0.5583710000000  0.4247780000000  0.5611490000000 1.0
C      1  0.5369870000000  0.4764840000000  0.5440140000000 1.0
C      1  0.5572850000000  0.5682220000000  0.4471720000000 1.0
C      1  0.6017390000000  0.5151730000000  0.4633560000000 1.0
C      1  0.5840150000000  0.4287320000000  0.5140890000000 1.0
C      1  0.4669070000000  0.4908340000000  0.5233980000000 1.0
C      1  0.4104490000000  0.5719730000000  0.4612420000000 1.0
C      1  0.5188090000000  0.5542610000000  0.5559920000000 1.0
C      1  0.5692110000000  0.5510700000000  0.5583990000000 1.0
C      1  0.5216910000000  0.6013670000000  0.5542630000000 1.0
C      1  0.4745800000000  0.3470380000000  0.4618120000000 1.0
C      1  0.4550900000000  0.6045630000000  0.5320810000000 1.0
C      1  0.5318250000000  0.4503250000000  0.5326290000000 1.0
C      1  0.4644890000000  0.4523240000000  0.6032740000000 1.0
C      1  0.4160950000000  0.5118940000000  0.4546320000000 1.0
C      1  0.5080490000000  0.4438560000000  0.5790880000000 1.0
C      1  0.5436580000000  0.4440930000000  0.5769170000000 1.0
C      1  0.4350220000000  0.4171260000000  0.4252460000000 1.0
C      1  0.5339180000000  0.4955130000000  0.4029930000000 1.0
C      1  0.5807940000000  0.5359440000000  0.5048940000000 1.0
C      1  0.4808710000000  0.5781660000000  0.4384240000000 1.0
C      1  0.5217260000000  0.4544530000000  0.4873240000000 1.0
C      1  0.4644660000000  0.5183850000000  0.3961360000000 1.0
C      1  0.5743450000000  0.5734130000000  0.5418350000000 1.0
C      1  0.4481000000000  0.5329980000000  0.5723590000000 1.0
C      1  0.4532200000000  0.4000270000000  0.5099530000000 1.0
C      1  0.5687760000000  0.4900230000000  0.4330810000000 1.0
C      1  0.3969950000000  0.4908200000000  0.4995080000000 1.0
C      1  0.5371000000000  0.5222880000000  0.4460130000000 1.0
C      1  0.4666700000000  0.5378500000000  0.5511040000000 1.0
C      1  0.4267390000000  0.5754190000000  0.5582630000000 1.0
C      1  0.5387620000000  0.5172990000000  0.5797030000000 1.0
C      1  0.4033230000000  0.4906630000000  0.4709470000000 1.0
C      1  0.6102760000000  0.5371170000000  0.5819520000000 1.0
C      1  0.5062840000000  0.5862230000000  0.4523200000000 1.0
C      1  0.4021930000000  0.5349470000000  0.5584020000000 1.0
C      1  0.4148290000000  0.4652660000000  0.4621390000000 1.0
C      1  0.4815540000000  0.4979650000000  0.5825580000000 1.0
C      1  0.4243490000000  0.5490520000000  0.5691630000000 1.0
C      1  0.5093930000000  0.4858470000000  0.3933010000000 1.0
C      1  0.5654090000000  0.4925190000000  0.4793450000000 1.0
C      1  0.4205170000000  0.5156390000000  0.4258130000000 1.0
C      1  0.5182200000000  0.5878710000000  0.5042510000000 1.0
C      1  0.5760280000000  0.5908880000000  0.4921330000000 1.0
C      1  0.4629980000000  0.4288610000000  0.5490600000000 1.0
C      1  0.5304580000000  0.4205520000000  0.4254100000000 1.0
C      1  0.5248340000000  0.5425470000000  0.4019520000000 1.0
C      1  0.4334800000000  0.5433510000000  0.4230630000000 1.0
C      1  0.4911240000000  0.5042390000000  0.4702320000000 1.0
C      1  0.4890770000000  0.4489480000000  0.4144070000000 1.0
C      1  0.4331230000000  0.4883330000000  0.4178300000000 1.0
C      1  0.4600780000000  0.4907970000000  0.4039380000000 1.0
C      1  0.5645540000000  0.4940090000000  0.5087920000000 1.0
END
