TITL C-599895-9959-792 0.0675177433583572 125000 -174.4059258554 0 0 30 (C1) n - 1
REM
REM in /home/nfs/bkarasulu/CARBON/AIRSS/Generating-Clusters/TERSOFF/Only-C1/FIRE-HFTN
REM
REM
REM
REM
REM
REM ./C.cell (11c1c37f851c82e70ff6c80c92926a4b)
REM AIRSS Version 0.9.1 bugfix July 2018 build 013d7b7c2542+ Fri, 06 Jul 2018 19:26:36 +0100
REM compiler GCC version 9.2.1 20190827 (Red Hat 9.2.1-1)
REM options -cpp -mtune=generic -march=x86-64 -g -O0 -fpre-include=/usr/include/finclude/math-vector-fortran.h
REM seed -285431481 1726522002 2072468247 -689785227 852770843 280359264 2032510043 2018928045 995137521 1912353338 -1527086504 -1188129977 1005040560 -519595368 -2108743125 -57125925 -1268543257 863961565 -8640658 -360092589 956945276 640287785 -1161905489 -634609605 -221803009 -1447535751 -1018573405 2021677249 -1050496947 -69698151 -1445238313 -1503051739 -654644649
REM
CELL 1.54180   50.00000   50.00000   50.00000   90.00000   90.00000   90.00000
LATT -1
SFAC C  
C      1  0.4904550000000  0.4903520000000  0.5443950000000 1.0
C      1  0.4632930000000  0.4917520000000  0.5359880000000 1.0
C      1  0.5324000000000  0.4839560000000  0.5172550000000 1.0
C      1  0.4260940000000  0.4979950000000  0.4743050000000 1.0
C      1  0.4268330000000  0.4982030000000  0.5016540000000 1.0
C      1  0.4943950000000  0.4943880000000  0.4812300000000 1.0
C      1  0.4831450000000  0.4908280000000  0.4234540000000 1.0
C      1  0.4718600000000  0.4413540000000  0.5162140000000 1.0
C      1  0.4445080000000  0.4821300000000  0.5171870000000 1.0
C      1  0.4971500000000  0.4476250000000  0.5239310000000 1.0
C      1  0.4998930000000  0.4572460000000  0.4504150000000 1.0
C      1  0.5134890000000  0.5369720000000  0.5024720000000 1.0
C      1  0.4441860000000  0.4824800000000  0.4587720000000 1.0
C      1  0.5328210000000  0.4874810000000  0.4400720000000 1.0
C      1  0.5562760000000  0.5785190000000  0.5455560000000 1.0
C      1  0.4867580000000  0.4683690000000  0.4725240000000 1.0
C      1  0.5074430000000  0.4775550000000  0.4315160000000 1.0
C      1  0.5454110000000  0.5573880000000  0.5338490000000 1.0
C      1  0.4530410000000  0.4582170000000  0.5030920000000 1.0
C      1  0.4581050000000  0.4906350000000  0.4348850000000 1.0
C      1  0.5671420000000  0.5996600000000  0.5572840000000 1.0
C      1  0.4987040000000  0.5034580000000  0.5669610000000 1.0
C      1  0.5085180000000  0.4730230000000  0.5295490000000 1.0
C      1  0.5444230000000  0.4841790000000  0.4645860000000 1.0
C      1  0.5339340000000  0.5351820000000  0.5217920000000 1.0
C      1  0.4991110000000  0.5197960000000  0.4878260000000 1.0
C      1  0.5420780000000  0.4782700000000  0.4909380000000 1.0
C      1  0.5778290000000  0.6204540000000  0.5688200000000 1.0
C      1  0.4590710000000  0.4638490000000  0.4756040000000 1.0
C      1  0.5416350000000  0.5086830000000  0.5278720000000 1.0
END
