TITL C-599897-7526-806 -0.0151094732842923 125000 -1059.91515281778 0 0 172 (C1) n - 1
REM
REM in /home/nfs/bkarasulu/CARBON/AIRSS/Generating-Clusters/TERSOFF/Only-C1/FIRE-HFTN
REM
REM
REM
REM
REM
REM ./C.cell (11c1c37f851c82e70ff6c80c92926a4b)
REM AIRSS Version 0.9.1 bugfix July 2018 build 013d7b7c2542+ Fri, 06 Jul 2018 19:26:36 +0100
REM compiler GCC version 9.2.1 20190827 (Red Hat 9.2.1-1)
REM options -cpp -mtune=generic -march=x86-64 -g -O0 -fpre-include=/usr/include/finclude/math-vector-fortran.h
REM seed -1091244629 -414556263 -805606620 -951209507 -956499982 -1884635706 145954660 -545427414 -1308092011 1268337041 -1680741881 -1390952493 2120352286 -1927047409 1159330733 -1852434502 -811325182 -331587953 -1806444177 1444881335 -1999054446 2105149100 1405786765 -5769061 646712384 -1345552784 110957434 -1952156720 1668785047 -2106359433 1775446600 772554545 -2001259635
REM
CELL 1.54180   50.00000   50.00000   50.00000   90.00000   90.00000   90.00000
LATT -1
SFAC C  
C      1  0.5176120000000  0.3876440000000  0.5436640000000 1.0
C      1  0.4339180000000  0.5818800000000  0.4735060000000 1.0
C      1  0.5404140000000  0.4325040000000  0.6039440000000 1.0
C      1  0.5518500000000  0.4245780000000  0.5770330000000 1.0
C      1  0.4493790000000  0.4939580000000  0.4783700000000 1.0
C      1  0.4484510000000  0.6289050000000  0.5293060000000 1.0
C      1  0.5379840000000  0.4720700000000  0.5837310000000 1.0
C      1  0.5310610000000  0.5110560000000  0.5550680000000 1.0
C      1  0.4996380000000  0.5632610000000  0.5317960000000 1.0
C      1  0.5410300000000  0.5477990000000  0.6155580000000 1.0
C      1  0.4361840000000  0.3979740000000  0.4672840000000 1.0
C      1  0.4527070000000  0.6260730000000  0.5548690000000 1.0
C      1  0.4894960000000  0.5161300000000  0.4911680000000 1.0
C      1  0.3998810000000  0.4409240000000  0.4858720000000 1.0
C      1  0.5591370000000  0.5883860000000  0.4801130000000 1.0
C      1  0.5083730000000  0.4764730000000  0.6177950000000 1.0
C      1  0.4931500000000  0.5341310000000  0.3825540000000 1.0
C      1  0.5707850000000  0.4673880000000  0.4691200000000 1.0
C      1  0.5238000000000  0.4641280000000  0.5627110000000 1.0
C      1  0.5797590000000  0.5935310000000  0.4612500000000 1.0
C      1  0.5850230000000  0.4639340000000  0.5202710000000 1.0
C      1  0.4952570000000  0.4737660000000  0.4040990000000 1.0
C      1  0.5661260000000  0.5326010000000  0.5070470000000 1.0
C      1  0.4828790000000  0.4487550000000  0.5435380000000 1.0
C      1  0.5080020000000  0.4900510000000  0.4259640000000 1.0
C      1  0.5184300000000  0.4689680000000  0.3868090000000 1.0
C      1  0.4835150000000  0.4009720000000  0.4271440000000 1.0
C      1  0.5293330000000  0.4314960000000  0.4695910000000 1.0
C      1  0.4736340000000  0.4158230000000  0.5869890000000 1.0
C      1  0.4741040000000  0.4446140000000  0.4828200000000 1.0
C      1  0.5583380000000  0.4953980000000  0.4016150000000 1.0
C      1  0.5660300000000  0.3933690000000  0.5129570000000 1.0
C      1  0.6202950000000  0.5175110000000  0.5433190000000 1.0
C      1  0.4114410000000  0.5192320000000  0.5358280000000 1.0
C      1  0.4265290000000  0.5124950000000  0.5959690000000 1.0
C      1  0.5585620000000  0.4188750000000  0.5159960000000 1.0
C      1  0.4616700000000  0.5384100000000  0.4375910000000 1.0
C      1  0.5552070000000  0.3693970000000  0.5187250000000 1.0
C      1  0.4934230000000  0.5622940000000  0.3854500000000 1.0
C      1  0.4713460000000  0.4616380000000  0.4129680000000 1.0
C      1  0.4581660000000  0.4135300000000  0.5625640000000 1.0
C      1  0.5449100000000  0.6122370000000  0.5201940000000 1.0
C      1  0.4875000000000  0.4413640000000  0.5911660000000 1.0
C      1  0.4423110000000  0.4035220000000  0.5381970000000 1.0
C      1  0.4586030000000  0.5062220000000  0.5299650000000 1.0
C      1  0.5227590000000  0.5640770000000  0.6004970000000 1.0
C      1  0.4405610000000  0.6060830000000  0.4607980000000 1.0
C      1  0.4635620000000  0.3949750000000  0.4796480000000 1.0
C      1  0.5530500000000  0.5125810000000  0.5703610000000 1.0
C      1  0.4654980000000  0.5935450000000  0.4174550000000 1.0
C      1  0.4683650000000  0.5225820000000  0.3899220000000 1.0
C      1  0.6161600000000  0.4677940000000  0.5551070000000 1.0
C      1  0.5064220000000  0.5077280000000  0.5452820000000 1.0
C      1  0.4816720000000  0.5819640000000  0.3995180000000 1.0
C      1  0.4375660000000  0.6304210000000  0.4762250000000 1.0
C      1  0.4243010000000  0.4548630000000  0.4881710000000 1.0
C      1  0.4289610000000  0.6532130000000  0.4616910000000 1.0
C      1  0.4847860000000  0.4958760000000  0.5321750000000 1.0
C      1  0.5708810000000  0.5716080000000  0.5524820000000 1.0
C      1  0.4570350000000  0.4425210000000  0.5550950000000 1.0
C      1  0.6119510000000  0.5011380000000  0.4316030000000 1.0
C      1  0.5549510000000  0.4243710000000  0.4599780000000 1.0
C      1  0.5568040000000  0.5380310000000  0.4376230000000 1.0
C      1  0.5918070000000  0.4549810000000  0.5469370000000 1.0
C      1  0.5670570000000  0.5096410000000  0.4919870000000 1.0
C      1  0.4940700000000  0.4246220000000  0.5307410000000 1.0
C      1  0.4619290000000  0.5173280000000  0.4876980000000 1.0
C      1  0.5696930000000  0.4459380000000  0.4502150000000 1.0
C      1  0.4826790000000  0.4639380000000  0.6090960000000 1.0
C      1  0.6046810000000  0.4694450000000  0.4987680000000 1.0
C      1  0.4366130000000  0.6323580000000  0.4203580000000 1.0
C      1  0.5430320000000  0.4423010000000  0.5129500000000 1.0
C      1  0.4407740000000  0.5326420000000  0.5269520000000 1.0
C      1  0.4943760000000  0.5257090000000  0.6122640000000 1.0
C      1  0.5532560000000  0.4837710000000  0.4865460000000 1.0
C      1  0.4344960000000  0.5540600000000  0.4760500000000 1.0
C      1  0.4857820000000  0.5490270000000  0.4505910000000 1.0
C      1  0.5322790000000  0.3659020000000  0.5326450000000 1.0
C      1  0.4305610000000  0.5049550000000  0.4193960000000 1.0
C      1  0.5373390000000  0.4517810000000  0.4021830000000 1.0
C      1  0.4409350000000  0.4275820000000  0.4242630000000 1.0
C      1  0.4825430000000  0.5583710000000  0.5769150000000 1.0
C      1  0.4255670000000  0.5380470000000  0.5880020000000 1.0
C      1  0.5924730000000  0.5547740000000  0.5615710000000 1.0
C      1  0.5229270000000  0.4336640000000  0.4203410000000 1.0
C      1  0.4343230000000  0.4857610000000  0.5903960000000 1.0
C      1  0.5976240000000  0.6437910000000  0.4534680000000 1.0
C      1  0.5786610000000  0.4861850000000  0.6019710000000 1.0
C      1  0.4101860000000  0.3936250000000  0.4773870000000 1.0
C      1  0.5143350000000  0.5058120000000  0.6182960000000 1.0
C      1  0.4819250000000  0.4069900000000  0.4563820000000 1.0
C      1  0.5489020000000  0.5163780000000  0.4204080000000 1.0
C      1  0.5201450000000  0.5141720000000  0.4164410000000 1.0
C      1  0.5891710000000  0.6193740000000  0.4568590000000 1.0
C      1  0.4724870000000  0.4612880000000  0.4414180000000 1.0
C      1  0.5899680000000  0.5716150000000  0.4471020000000 1.0
C      1  0.4644440000000  0.3929940000000  0.5138100000000 1.0
C      1  0.4473780000000  0.6088730000000  0.4325270000000 1.0
C      1  0.5572060000000  0.4668960000000  0.5123850000000 1.0
C      1  0.5344400000000  0.4057840000000  0.5613370000000 1.0
C      1  0.5089550000000  0.5804530000000  0.4851590000000 1.0
C      1  0.5773270000000  0.5759550000000  0.5238180000000 1.0
C      1  0.6042590000000  0.4757770000000  0.4410380000000 1.0
C      1  0.5269210000000  0.5534040000000  0.5371380000000 1.0
C      1  0.4871260000000  0.5725770000000  0.4678870000000 1.0
C      1  0.5183690000000  0.4753400000000  0.4485880000000 1.0
C      1  0.4227030000000  0.4742310000000  0.5660280000000 1.0
C      1  0.5080950000000  0.4095960000000  0.4148090000000 1.0
C      1  0.4492600000000  0.5537110000000  0.5455590000000 1.0
C      1  0.5116910000000  0.5143830000000  0.4747010000000 1.0
C      1  0.5624790000000  0.4673440000000  0.4078010000000 1.0
C      1  0.5756760000000  0.4434760000000  0.5697640000000 1.0
C      1  0.5288640000000  0.5806320000000  0.5771430000000 1.0
C      1  0.4770210000000  0.5594310000000  0.5493380000000 1.0
C      1  0.5194680000000  0.6055260000000  0.5311560000000 1.0
C      1  0.4185130000000  0.4920740000000  0.5442580000000 1.0
C      1  0.4568570000000  0.4756910000000  0.6051340000000 1.0
C      1  0.3874960000000  0.5203350000000  0.5213240000000 1.0
C      1  0.6040020000000  0.5266860000000  0.4324050000000 1.0
C      1  0.5116780000000  0.5357460000000  0.4557770000000 1.0
C      1  0.4173380000000  0.5191570000000  0.4413540000000 1.0
C      1  0.5270370000000  0.4903300000000  0.4715960000000 1.0
C      1  0.4998230000000  0.4511730000000  0.5670050000000 1.0
C      1  0.4282450000000  0.6538810000000  0.4345910000000 1.0
C      1  0.4457540000000  0.4414200000000  0.4760130000000 1.0
C      1  0.4599360000000  0.4818200000000  0.4557170000000 1.0
C      1  0.6255790000000  0.4927270000000  0.5517160000000 1.0
C      1  0.5604880000000  0.5074640000000  0.5973760000000 1.0
C      1  0.4327130000000  0.5553890000000  0.5687070000000 1.0
C      1  0.5304590000000  0.4942980000000  0.3784260000000 1.0
C      1  0.5407030000000  0.5393640000000  0.5171620000000 1.0
C      1  0.4937220000000  0.3968490000000  0.5289030000000 1.0
C      1  0.5413640000000  0.5185980000000  0.6157200000000 1.0
C      1  0.4861230000000  0.4386350000000  0.4558110000000 1.0
C      1  0.3937580000000  0.4146020000000  0.4829490000000 1.0
C      1  0.4552050000000  0.5206930000000  0.4145060000000 1.0
C      1  0.5435880000000  0.5659630000000  0.5573840000000 1.0
C      1  0.5147550000000  0.4451140000000  0.4478350000000 1.0
C      1  0.4447170000000  0.5384000000000  0.4974280000000 1.0
C      1  0.4432140000000  0.4541020000000  0.4098410000000 1.0
C      1  0.5354680000000  0.5741850000000  0.4726020000000 1.0
C      1  0.3764290000000  0.5002570000000  0.5043460000000 1.0
C      1  0.4433210000000  0.6313440000000  0.5034260000000 1.0
C      1  0.5842270000000  0.5456680000000  0.4384970000000 1.0
C      1  0.4879700000000  0.4691350000000  0.5228880000000 1.0
C      1  0.5994230000000  0.4733530000000  0.4704890000000 1.0
C      1  0.4586020000000  0.4068780000000  0.4139920000000 1.0
C      1  0.3749640000000  0.4508280000000  0.5265490000000 1.0
C      1  0.5822050000000  0.4591540000000  0.4271390000000 1.0
C      1  0.4179110000000  0.4247930000000  0.5404550000000 1.0
C      1  0.6034860000000  0.5392450000000  0.5395850000000 1.0
C      1  0.5632440000000  0.5944510000000  0.5077090000000 1.0
C      1  0.3944690000000  0.5109820000000  0.4552400000000 1.0
C      1  0.4378430000000  0.4242670000000  0.4533670000000 1.0
C      1  0.4352660000000  0.5398320000000  0.4513200000000 1.0
C      1  0.3800010000000  0.5039710000000  0.4766140000000 1.0
C      1  0.5211170000000  0.4411060000000  0.4953290000000 1.0
C      1  0.5046190000000  0.5861260000000  0.5140100000000 1.0
C      1  0.4971320000000  0.5509400000000  0.5991060000000 1.0
C      1  0.4330500000000  0.4797390000000  0.4970780000000 1.0
C      1  0.3698840000000  0.4750040000000  0.5157100000000 1.0
C      1  0.4292880000000  0.4481800000000  0.5559590000000 1.0
C      1  0.5177610000000  0.6027090000000  0.5607460000000 1.0
C      1  0.5828580000000  0.4610530000000  0.5926010000000 1.0
C      1  0.5154880000000  0.5175730000000  0.3876260000000 1.0
C      1  0.5314190000000  0.4599320000000  0.6089460000000 1.0
C      1  0.3911000000000  0.4300310000000  0.5330400000000 1.0
C      1  0.5361210000000  0.5509220000000  0.4542010000000 1.0
C      1  0.4950730000000  0.4542720000000  0.4995150000000 1.0
C      1  0.4269640000000  0.4778120000000  0.4108430000000 1.0
C      1  0.5874530000000  0.5488910000000  0.5166320000000 1.0
C      1  0.4379670000000  0.4860120000000  0.5238000000000 1.0
END
