TITL C-599896-8500-94 0.326817849561807 125000 -334.413438006964 0 0 55 (C1) n - 1
REM
REM in /home/nfs/bkarasulu/CARBON/AIRSS/Generating-Clusters/TERSOFF/Only-C1/FIRE-HFTN
REM
REM
REM
REM
REM
REM ./C.cell (11c1c37f851c82e70ff6c80c92926a4b)
REM AIRSS Version 0.9.1 bugfix July 2018 build 013d7b7c2542+ Fri, 06 Jul 2018 19:26:36 +0100
REM compiler GCC version 9.2.1 20190827 (Red Hat 9.2.1-1)
REM options -cpp -mtune=generic -march=x86-64 -g -O0 -fpre-include=/usr/include/finclude/math-vector-fortran.h
REM seed 195976756 -301616868 -2124560639 303400751 1310539912 1039908859 646742735 -300356909 350939680 -1028006750 -2059207876 1044127525 1196973127 -1690701805 1037326090 902033314 -1028732560 540588618 -159734680 1963836798 -1121689911 821178599 -411138659 -899738309 1650027325 -284230123 -753451317 -5557328 -1035655806 651972473 -508594346 255449592 1192335444
REM
CELL 1.54180   50.00000   50.00000   50.00000   90.00000   90.00000   90.00000
LATT -1
SFAC C  
C      1  0.5697060000000  0.5705250000000  0.4906710000000 1.0
C      1  0.5076790000000  0.5204500000000  0.5202290000000 1.0
C      1  0.4942070000000  0.4566380000000  0.5448710000000 1.0
C      1  0.4715570000000  0.4445480000000  0.5010100000000 1.0
C      1  0.5412720000000  0.4903080000000  0.4250790000000 1.0
C      1  0.4700690000000  0.4791810000000  0.4059920000000 1.0
C      1  0.5648820000000  0.5012030000000  0.5052500000000 1.0
C      1  0.5814110000000  0.5579450000000  0.5119250000000 1.0
C      1  0.4453450000000  0.5255500000000  0.5208760000000 1.0
C      1  0.5435990000000  0.5704400000000  0.4787670000000 1.0
C      1  0.5490770000000  0.4911880000000  0.4518540000000 1.0
C      1  0.4992450000000  0.4880520000000  0.4858370000000 1.0
C      1  0.5447900000000  0.4720420000000  0.4722110000000 1.0
C      1  0.5043930000000  0.4984990000000  0.5639130000000 1.0
C      1  0.4630290000000  0.5381230000000  0.5641740000000 1.0
C      1  0.5431260000000  0.4719940000000  0.5444820000000 1.0
C      1  0.5235030000000  0.5095880000000  0.3839840000000 1.0
C      1  0.5270220000000  0.5332190000000  0.5042540000000 1.0
C      1  0.4538660000000  0.4775230000000  0.5293980000000 1.0
C      1  0.4697010000000  0.4710800000000  0.5524230000000 1.0
C      1  0.5450300000000  0.4590710000000  0.5186330000000 1.0
C      1  0.3504220000000  0.4132430000000  0.5001840000000 1.0
C      1  0.4723680000000  0.4482000000000  0.4727030000000 1.0
C      1  0.4658180000000  0.5287810000000  0.4518750000000 1.0
C      1  0.3983740000000  0.4337040000000  0.5069820000000 1.0
C      1  0.5350930000000  0.5656700000000  0.4519530000000 1.0
C      1  0.4758500000000  0.4855750000000  0.4321430000000 1.0
C      1  0.4882900000000  0.5705450000000  0.5433630000000 1.0
C      1  0.4916440000000  0.5458720000000  0.5583850000000 1.0
C      1  0.5079560000000  0.5245430000000  0.4280700000000 1.0
C      1  0.4598200000000  0.5137680000000  0.5778410000000 1.0
C      1  0.5192920000000  0.5491740000000  0.4372510000000 1.0
C      1  0.4628980000000  0.5709880000000  0.5320790000000 1.0
C      1  0.5734070000000  0.5101220000000  0.5307900000000 1.0
C      1  0.5597150000000  0.4740620000000  0.4979820000000 1.0
C      1  0.4478290000000  0.4548790000000  0.5134130000000 1.0
C      1  0.5824250000000  0.5371750000000  0.5296130000000 1.0
C      1  0.5629780000000  0.4922140000000  0.5504660000000 1.0
C      1  0.5241950000000  0.5079440000000  0.4111830000000 1.0
C      1  0.3741990000000  0.4233880000000  0.5035550000000 1.0
C      1  0.4225370000000  0.4440110000000  0.5103640000000 1.0
C      1  0.5486830000000  0.5197180000000  0.4910830000000 1.0
C      1  0.4487310000000  0.5466280000000  0.5394240000000 1.0
C      1  0.5180130000000  0.4668790000000  0.4820140000000 1.0
C      1  0.5201390000000  0.4497650000000  0.5057060000000 1.0
C      1  0.4953840000000  0.4448850000000  0.5184850000000 1.0
C      1  0.4762670000000  0.4920810000000  0.5710880000000 1.0
C      1  0.4881580000000  0.5044420000000  0.5062260000000 1.0
C      1  0.5246140000000  0.5604210000000  0.4974800000000 1.0
C      1  0.5065570000000  0.5231570000000  0.5488990000000 1.0
C      1  0.4609320000000  0.5023170000000  0.5162100000000 1.0
C      1  0.4727300000000  0.4650040000000  0.4515780000000 1.0
C      1  0.5167130000000  0.4737170000000  0.5546230000000 1.0
C      1  0.4833930000000  0.5129330000000  0.4378970000000 1.0
C      1  0.5520660000000  0.5170320000000  0.4632580000000 1.0
END
