TITL C-599895-9959-1372 1.82188638382989e-05 125000 -1149.67730458193 0 0 185 (C1) n - 1
REM
REM in /home/nfs/bkarasulu/CARBON/AIRSS/Generating-Clusters/TERSOFF/Only-C1/FIRE-HFTN
REM
REM
REM
REM
REM
REM ./C.cell (11c1c37f851c82e70ff6c80c92926a4b)
REM AIRSS Version 0.9.1 bugfix July 2018 build 013d7b7c2542+ Fri, 06 Jul 2018 19:26:36 +0100
REM compiler GCC version 9.2.1 20190827 (Red Hat 9.2.1-1)
REM options -cpp -mtune=generic -march=x86-64 -g -O0 -fpre-include=/usr/include/finclude/math-vector-fortran.h
REM seed -1022347426 1823894968 -421536306 744814199 1762418229 -1454581525 1413846076 -769551702 2137213983 1521854363 1087301267 -1654911295 1206434793 2034783397 -1089845889 1301271562 524033460 1480302617 -1458731522 1190082210 -927141715 98570118 -1347032830 803309418 -1324882112 -1305625295 104311228 1963778005 2010945811 1271447881 -2105092877 1134538244 1915292206
REM
CELL 1.54180   50.00000   50.00000   50.00000   90.00000   90.00000   90.00000
LATT -1
SFAC C  
C      1  0.5415190000000  0.5148280000000  0.5023180000000 1.0
C      1  0.6309320000000  0.4770590000000  0.4663590000000 1.0
C      1  0.4941420000000  0.4667590000000  0.3891800000000 1.0
C      1  0.5864810000000  0.4929010000000  0.5203960000000 1.0
C      1  0.4613340000000  0.5966470000000  0.4513340000000 1.0
C      1  0.4838070000000  0.5771130000000  0.5880880000000 1.0
C      1  0.4491220000000  0.5738600000000  0.5457540000000 1.0
C      1  0.4715400000000  0.5006260000000  0.5682130000000 1.0
C      1  0.5218460000000  0.3963900000000  0.5019640000000 1.0
C      1  0.5490260000000  0.4826560000000  0.3904890000000 1.0
C      1  0.5340670000000  0.5760330000000  0.4938590000000 1.0
C      1  0.4792950000000  0.3764590000000  0.4865210000000 1.0
C      1  0.4426990000000  0.4458380000000  0.4487880000000 1.0
C      1  0.4164910000000  0.4993840000000  0.5746680000000 1.0
C      1  0.4883110000000  0.4467710000000  0.4116380000000 1.0
C      1  0.4145320000000  0.4497410000000  0.4942100000000 1.0
C      1  0.5573510000000  0.5273170000000  0.5488350000000 1.0
C      1  0.5237450000000  0.5565230000000  0.5498660000000 1.0
C      1  0.5501290000000  0.5529050000000  0.5371200000000 1.0
C      1  0.4994870000000  0.5070350000000  0.6170080000000 1.0
C      1  0.4561460000000  0.5891110000000  0.4788580000000 1.0
C      1  0.5417960000000  0.5987520000000  0.5381460000000 1.0
C      1  0.5083400000000  0.3858390000000  0.5573610000000 1.0
C      1  0.3949420000000  0.5246480000000  0.5062540000000 1.0
C      1  0.5237530000000  0.3993700000000  0.4057700000000 1.0
C      1  0.5511640000000  0.4171250000000  0.5734820000000 1.0
C      1  0.5065200000000  0.5910560000000  0.4331290000000 1.0
C      1  0.5605720000000  0.5301720000000  0.4522410000000 1.0
C      1  0.4038130000000  0.4801580000000  0.4216560000000 1.0
C      1  0.5078290000000  0.5522820000000  0.5263960000000 1.0
C      1  0.4111780000000  0.5722180000000  0.5036610000000 1.0
C      1  0.4967120000000  0.5122230000000  0.5555310000000 1.0
C      1  0.5031770000000  0.5354240000000  0.4721010000000 1.0
C      1  0.5051120000000  0.6126590000000  0.5101020000000 1.0
C      1  0.4767590000000  0.5714150000000  0.4895700000000 1.0
C      1  0.4925100000000  0.5508310000000  0.4043120000000 1.0
C      1  0.5164210000000  0.4556690000000  0.4532880000000 1.0
C      1  0.4197990000000  0.5603710000000  0.4175300000000 1.0
C      1  0.4062250000000  0.4456170000000  0.5655200000000 1.0
C      1  0.4732460000000  0.4943240000000  0.4253010000000 1.0
C      1  0.4862280000000  0.4807490000000  0.6217800000000 1.0
C      1  0.5273820000000  0.4965070000000  0.4327960000000 1.0
C      1  0.6046450000000  0.5691760000000  0.4792130000000 1.0
C      1  0.5264780000000  0.4227920000000  0.5878220000000 1.0
C      1  0.5388070000000  0.4731470000000  0.4453740000000 1.0
C      1  0.5870550000000  0.5238240000000  0.4432610000000 1.0
C      1  0.4802180000000  0.5303120000000  0.6165980000000 1.0
C      1  0.3870820000000  0.4899000000000  0.4679260000000 1.0
C      1  0.5730640000000  0.5765520000000  0.3982210000000 1.0
C      1  0.4523150000000  0.5381470000000  0.4671730000000 1.0
C      1  0.4618890000000  0.5264380000000  0.5262530000000 1.0
C      1  0.4892810000000  0.5109630000000  0.5251310000000 1.0
C      1  0.5689970000000  0.4972700000000  0.6207100000000 1.0
C      1  0.4769230000000  0.5863850000000  0.4293690000000 1.0
C      1  0.4913790000000  0.5952920000000  0.5583970000000 1.0
C      1  0.3958240000000  0.4902620000000  0.5572640000000 1.0
C      1  0.5586130000000  0.4927800000000  0.5107100000000 1.0
C      1  0.5324100000000  0.4234370000000  0.4159190000000 1.0
C      1  0.5136870000000  0.4309760000000  0.4699180000000 1.0
C      1  0.3959420000000  0.4982990000000  0.4937770000000 1.0
C      1  0.4561360000000  0.5193800000000  0.6278890000000 1.0
C      1  0.4159510000000  0.4496160000000  0.4624740000000 1.0
C      1  0.4723460000000  0.4297880000000  0.4908260000000 1.0
C      1  0.4972840000000  0.5303630000000  0.4221890000000 1.0
C      1  0.4571930000000  0.4448200000000  0.5076950000000 1.0
C      1  0.4645450000000  0.4054800000000  0.5499200000000 1.0
C      1  0.5321360000000  0.5357560000000  0.3826760000000 1.0
C      1  0.6201340000000  0.5021690000000  0.4800860000000 1.0
C      1  0.3996070000000  0.4713770000000  0.4494670000000 1.0
C      1  0.4703680000000  0.3825070000000  0.4609140000000 1.0
C      1  0.4302770000000  0.5307400000000  0.6261890000000 1.0
C      1  0.5546110000000  0.6001210000000  0.5634150000000 1.0
C      1  0.4316680000000  0.4324950000000  0.5129720000000 1.0
C      1  0.4330220000000  0.5701470000000  0.5903950000000 1.0
C      1  0.4599270000000  0.4988150000000  0.4000390000000 1.0
C      1  0.4934040000000  0.4533260000000  0.6111210000000 1.0
C      1  0.5494860000000  0.5322350000000  0.4788560000000 1.0
C      1  0.4249410000000  0.5545290000000  0.6121460000000 1.0
C      1  0.4639600000000  0.5985120000000  0.5471010000000 1.0
C      1  0.4604070000000  0.4903650000000  0.6318560000000 1.0
C      1  0.4569830000000  0.4680220000000  0.4598600000000 1.0
C      1  0.4408870000000  0.5098050000000  0.5347580000000 1.0
C      1  0.5548600000000  0.3895900000000  0.5668000000000 1.0
C      1  0.4800990000000  0.6260800000000  0.5102140000000 1.0
C      1  0.5625840000000  0.4526710000000  0.4856650000000 1.0
C      1  0.4868440000000  0.4227780000000  0.4685390000000 1.0
C      1  0.5167200000000  0.5119500000000  0.3755450000000 1.0
C      1  0.5684840000000  0.5043500000000  0.3963680000000 1.0
C      1  0.5277080000000  0.5077520000000  0.5582610000000 1.0
C      1  0.3636280000000  0.4559190000000  0.5438490000000 1.0
C      1  0.5037620000000  0.4691200000000  0.5009640000000 1.0
C      1  0.5123780000000  0.4417860000000  0.4258420000000 1.0
C      1  0.5183610000000  0.5996680000000  0.4871230000000 1.0
C      1  0.5138210000000  0.4453870000000  0.5136040000000 1.0
C      1  0.5843560000000  0.4350680000000  0.4857410000000 1.0
C      1  0.5489060000000  0.5817650000000  0.5826140000000 1.0
C      1  0.5687540000000  0.5873290000000  0.4444900000000 1.0
C      1  0.4729890000000  0.4083740000000  0.4480240000000 1.0
C      1  0.5271290000000  0.4800340000000  0.5677320000000 1.0
C      1  0.5214070000000  0.4482240000000  0.6024150000000 1.0
C      1  0.4845760000000  0.4837000000000  0.5151350000000 1.0
C      1  0.5872860000000  0.5818450000000  0.4631370000000 1.0
C      1  0.5089020000000  0.4444100000000  0.5408040000000 1.0
C      1  0.4622670000000  0.4305140000000  0.4312210000000 1.0
C      1  0.5770190000000  0.5531350000000  0.3856380000000 1.0
C      1  0.5865820000000  0.5270820000000  0.5473090000000 1.0
C      1  0.5604480000000  0.4691260000000  0.4626790000000 1.0
C      1  0.4132830000000  0.5489110000000  0.4425950000000 1.0
C      1  0.6011020000000  0.5163330000000  0.5246500000000 1.0
C      1  0.4019130000000  0.5498730000000  0.5193030000000 1.0
C      1  0.4422840000000  0.5058420000000  0.5633960000000 1.0
C      1  0.4433360000000  0.5486390000000  0.4051870000000 1.0
C      1  0.5959560000000  0.5066660000000  0.4651160000000 1.0
C      1  0.4770350000000  0.4724540000000  0.5677520000000 1.0
C      1  0.5604900000000  0.5304460000000  0.3858530000000 1.0
C      1  0.5132670000000  0.6043820000000  0.5376570000000 1.0
C      1  0.4585210000000  0.4929550000000  0.4489040000000 1.0
C      1  0.4619500000000  0.5543380000000  0.5299910000000 1.0
C      1  0.5603260000000  0.4282740000000  0.4162170000000 1.0
C      1  0.4294820000000  0.5777310000000  0.4830840000000 1.0
C      1  0.5681750000000  0.3802860000000  0.4807240000000 1.0
C      1  0.6172260000000  0.5497510000000  0.4928720000000 1.0
C      1  0.4360760000000  0.4869030000000  0.5190120000000 1.0
C      1  0.5422260000000  0.5200770000000  0.4341610000000 1.0
C      1  0.5446710000000  0.3818630000000  0.4937210000000 1.0
C      1  0.5896560000000  0.3919780000000  0.4691340000000 1.0
C      1  0.5865750000000  0.4287810000000  0.4221350000000 1.0
C      1  0.6058410000000  0.4331460000000  0.4430940000000 1.0
C      1  0.5037850000000  0.4647830000000  0.5591580000000 1.0
C      1  0.4732890000000  0.4375150000000  0.5954140000000 1.0
C      1  0.5186840000000  0.5589190000000  0.3957610000000 1.0
C      1  0.5199740000000  0.4834300000000  0.3838220000000 1.0
C      1  0.5685190000000  0.4520460000000  0.5343560000000 1.0
C      1  0.5045510000000  0.4053190000000  0.5787520000000 1.0
C      1  0.4572870000000  0.5843250000000  0.5952540000000 1.0
C      1  0.4312490000000  0.4480770000000  0.5745430000000 1.0
C      1  0.5135790000000  0.6024910000000  0.4589160000000 1.0
C      1  0.5314340000000  0.5599390000000  0.5777540000000 1.0
C      1  0.3872980000000  0.4634620000000  0.5548540000000 1.0
C      1  0.4129670000000  0.4779920000000  0.5050380000000 1.0
C      1  0.5832530000000  0.4826690000000  0.4570010000000 1.0
C      1  0.4159910000000  0.5061200000000  0.4177160000000 1.0
C      1  0.5980140000000  0.4190460000000  0.4671790000000 1.0
C      1  0.4100360000000  0.5113800000000  0.6241630000000 1.0
C      1  0.4778850000000  0.5477180000000  0.4734690000000 1.0
C      1  0.5623810000000  0.4356760000000  0.5557840000000 1.0
C      1  0.4270740000000  0.5664000000000  0.5624160000000 1.0
C      1  0.5139520000000  0.5252710000000  0.5147670000000 1.0
C      1  0.5974170000000  0.4783850000000  0.4317750000000 1.0
C      1  0.5034540000000  0.5061570000000  0.4707720000000 1.0
C      1  0.5276710000000  0.5515030000000  0.4791590000000 1.0
C      1  0.5001890000000  0.5029140000000  0.4265430000000 1.0
C      1  0.5558860000000  0.5838690000000  0.4195230000000 1.0
C      1  0.4593980000000  0.4715560000000  0.5150650000000 1.0
C      1  0.4609850000000  0.6197470000000  0.5285420000000 1.0
C      1  0.5916940000000  0.4690890000000  0.5352130000000 1.0
C      1  0.6185220000000  0.4603380000000  0.4429580000000 1.0
C      1  0.5356700000000  0.4725950000000  0.5939010000000 1.0
C      1  0.5546420000000  0.4635850000000  0.5106440000000 1.0
C      1  0.4090080000000  0.4972650000000  0.6015230000000 1.0
C      1  0.3963550000000  0.4644050000000  0.4005600000000 1.0
C      1  0.4683770000000  0.5647410000000  0.4101900000000 1.0
C      1  0.4926430000000  0.5526200000000  0.6022280000000 1.0
C      1  0.5495460000000  0.5765850000000  0.5193030000000 1.0
C      1  0.4423270000000  0.5139970000000  0.4567610000000 1.0
C      1  0.5202660000000  0.5438800000000  0.5976630000000 1.0
C      1  0.4954830000000  0.3851630000000  0.5090590000000 1.0
C      1  0.5342660000000  0.3748790000000  0.5567850000000 1.0
C      1  0.5886870000000  0.5039340000000  0.4179680000000 1.0
C      1  0.4177620000000  0.5201590000000  0.4424150000000 1.0
C      1  0.4386620000000  0.5179350000000  0.4016280000000 1.0
C      1  0.4773890000000  0.4143760000000  0.5780200000000 1.0
C      1  0.4576760000000  0.4550910000000  0.5791970000000 1.0
C      1  0.4873230000000  0.3890270000000  0.5369070000000 1.0
C      1  0.5220410000000  0.4245850000000  0.4963450000000 1.0
C      1  0.4060220000000  0.5538540000000  0.5476090000000 1.0
C      1  0.5275580000000  0.5799380000000  0.4150440000000 1.0
C      1  0.6181040000000  0.5226910000000  0.5019570000000 1.0
C      1  0.5047000000000  0.4769940000000  0.4738980000000 1.0
C      1  0.5446790000000  0.4956610000000  0.6085970000000 1.0
C      1  0.5252830000000  0.5167450000000  0.6087980000000 1.0
C      1  0.4399820000000  0.4133610000000  0.5346440000000 1.0
C      1  0.4297950000000  0.5567490000000  0.4642930000000 1.0
C      1  0.4703820000000  0.4812040000000  0.3807580000000 1.0
C      1  0.4843240000000  0.5648730000000  0.5160990000000 1.0
END
