TITL C-599894-471-819 -101221.336366934 125000 -812.291592287611 0 0 134 (C1) n - 1
REM
REM in /home/nfs/bkarasulu/CARBON/AIRSS/Generating-Clusters/TERSOFF/Only-C1/FIRE-HFTN
REM
REM
REM
REM
REM
REM ./C.cell (11c1c37f851c82e70ff6c80c92926a4b)
REM AIRSS Version 0.9.1 bugfix July 2018 build 013d7b7c2542+ Fri, 06 Jul 2018 19:26:36 +0100
REM compiler GCC version 9.2.1 20190827 (Red Hat 9.2.1-1)
REM options -cpp -mtune=generic -march=x86-64 -g -O0 -fpre-include=/usr/include/finclude/math-vector-fortran.h
REM seed -1171240357 -771859533 -1090415396 1522225097 378112986 300020609 180647767 1831672095 -1817606652 1880266558 -738604181 575702765 1230174973 1086047792 602212544 1111275072 194634298 1923890927 -1034105684 1687617624 -2136699981 2038144683 -1091587466 2079646943 -796356215 1426911368 -1804198156 -497936749 1898135949 -1910922119 -1735347916 -1261456838 -1764410210
REM
CELL 1.54180   50.00000   50.00000   50.00000   90.00000   90.00000   90.00000
LATT -1
SFAC C  
C      1  0.4793020000000  0.5034460000000  0.5530280000000 1.0
C      1  0.4170200000000  0.4450500000000  0.4475420000000 1.0
C      1  0.4996150000000  0.5492400000000  0.6025810000000 1.0
C      1  0.4971610000000  0.4970370000000  0.6117820000000 1.0
C      1  0.3941550000000  0.5065800000000  0.4816020000000 1.0
C      1  0.4978040000000  0.5456800000000  0.4686720000000 1.0
C      1  0.5782400000000  0.5507660000000  0.4803050000000 1.0
C      1  0.4523300000000  0.4316200000000  0.4156370000000 1.0
C      1  0.4907210000000  0.5478370000000  0.5509290000000 1.0
C      1  0.5146940000000  0.4547950000000  0.4463030000000 1.0
C      1  0.4740960000000  0.4527270000000  0.5946720000000 1.0
C      1  0.5982010000000  0.5658340000000  0.5399720000000 1.0
C      1  0.4790060000000  0.4618740000000  0.5027160000000 1.0
C      1  0.4528600000000  0.5418360000000  0.4339960000000 1.0
C      1  0.4867720000000  0.5252910000000  0.6119090000000 1.0
C      1  0.5473500000000  0.5861300000000  0.4663250000000 1.0
C      1  0.5402840000000  0.4915630000000  0.4474390000000 1.0
C      1  0.4486570000000  0.4442290000000  0.3905340000000 1.0
C      1  0.4382270000000  0.4271670000000  0.4409520000000 1.0
C      1  0.4872220000000  0.5384740000000  0.4956190000000 1.0
C      1  0.5869160000000  0.4965860000000  0.4498950000000 1.0
C      1  0.4353580000000  0.5677950000000  0.4733550000000 1.0
C      1  0.5549740000000  0.5353280000000  0.4160810000000 1.0
C      1  0.4489210000000  0.5476700000000  0.5646860000000 1.0
C      1  0.5629840000000  0.5115500000000  0.5884390000000 1.0
C      1  0.4542970000000  0.5003470000000  0.4947820000000 1.0
C      1  0.4107110000000  0.5590100000000  0.4332590000000 1.0
C      1  0.4651260000000  0.4597420000000  0.3753800000000 1.0
C      1  0.4876190000000  0.4015770000000  0.5544400000000 1.0
C      1  0.5643100000000  0.4469000000000  0.4329040000000 1.0
C      1  0.5140530000000  0.5404560000000  0.5391610000000 1.0
C      1  0.4603170000000  0.5014660000000  0.4141470000000 1.0
C      1  0.4872650000000  0.5724640000000  0.5891850000000 1.0
C      1  0.5868920000000  0.5055890000000  0.5731940000000 1.0
C      1  0.4749650000000  0.4819260000000  0.4808080000000 1.0
C      1  0.4622170000000  0.5729810000000  0.5736510000000 1.0
C      1  0.4114700000000  0.5201240000000  0.4617870000000 1.0
C      1  0.5703630000000  0.5255200000000  0.5296870000000 1.0
C      1  0.4572140000000  0.4548690000000  0.5217290000000 1.0
C      1  0.5850750000000  0.4430180000000  0.5050680000000 1.0
C      1  0.4405860000000  0.4119930000000  0.5716070000000 1.0
C      1  0.5587910000000  0.4135100000000  0.4693180000000 1.0
C      1  0.4237000000000  0.4953580000000  0.4469230000000 1.0
C      1  0.4127230000000  0.4815170000000  0.5691600000000 1.0
C      1  0.5537660000000  0.4833300000000  0.5059980000000 1.0
C      1  0.5305900000000  0.4084150000000  0.4710480000000 1.0
C      1  0.4896160000000  0.4787510000000  0.5440270000000 1.0
C      1  0.5740850000000  0.4205350000000  0.4918140000000 1.0
C      1  0.4312970000000  0.4669570000000  0.5246290000000 1.0
C      1  0.5421450000000  0.5130240000000  0.4018830000000 1.0
C      1  0.5957010000000  0.4646150000000  0.4891060000000 1.0
C      1  0.6115160000000  0.5015130000000  0.5253700000000 1.0
C      1  0.5067540000000  0.4177980000000  0.5122560000000 1.0
C      1  0.5743680000000  0.5783240000000  0.4738210000000 1.0
C      1  0.6034560000000  0.5007920000000  0.5517750000000 1.0
C      1  0.4570470000000  0.5869720000000  0.5237180000000 1.0
C      1  0.3866940000000  0.4810470000000  0.4700320000000 1.0
C      1  0.5416760000000  0.4905050000000  0.4190390000000 1.0
C      1  0.5279600000000  0.5468130000000  0.5986650000000 1.0
C      1  0.5577140000000  0.4396640000000  0.5498460000000 1.0
C      1  0.5979180000000  0.4916310000000  0.4778120000000 1.0
C      1  0.4844970000000  0.5680470000000  0.4567650000000 1.0
C      1  0.6062990000000  0.5111760000000  0.4976490000000 1.0
C      1  0.4795360000000  0.4336850000000  0.4232780000000 1.0
C      1  0.5562370000000  0.5011970000000  0.5267340000000 1.0
C      1  0.4183620000000  0.4600670000000  0.5507250000000 1.0
C      1  0.4145120000000  0.5499170000000  0.4604480000000 1.0
C      1  0.5502900000000  0.4932140000000  0.6062340000000 1.0
C      1  0.4913320000000  0.5715510000000  0.4294590000000 1.0
C      1  0.5234600000000  0.4751690000000  0.4655020000000 1.0
C      1  0.4572020000000  0.4532020000000  0.5717390000000 1.0
C      1  0.4683420000000  0.3945400000000  0.5057950000000 1.0
C      1  0.5141190000000  0.6024650000000  0.5556880000000 1.0
C      1  0.5027130000000  0.4657150000000  0.5208970000000 1.0
C      1  0.5365620000000  0.4998650000000  0.5463280000000 1.0
C      1  0.4868290000000  0.4268330000000  0.5912940000000 1.0
C      1  0.4335630000000  0.5541290000000  0.4190950000000 1.0
C      1  0.5125270000000  0.5224170000000  0.4627420000000 1.0
C      1  0.4686020000000  0.4065190000000  0.5759450000000 1.0
C      1  0.4692810000000  0.4594050000000  0.5480030000000 1.0
C      1  0.5976250000000  0.5390020000000  0.4972760000000 1.0
C      1  0.5089790000000  0.5560970000000  0.4128710000000 1.0
C      1  0.5692460000000  0.5241730000000  0.4403120000000 1.0
C      1  0.5127440000000  0.6037830000000  0.5288630000000 1.0
C      1  0.5806520000000  0.4709350000000  0.4359180000000 1.0
C      1  0.5896040000000  0.5454580000000  0.5244340000000 1.0
C      1  0.4748570000000  0.5888850000000  0.5003510000000 1.0
C      1  0.4341950000000  0.5691920000000  0.5236510000000 1.0
C      1  0.4070510000000  0.4710730000000  0.4522270000000 1.0
C      1  0.4545020000000  0.4132230000000  0.4611390000000 1.0
C      1  0.4622010000000  0.5265490000000  0.4872220000000 1.0
C      1  0.5709860000000  0.4222740000000  0.4451580000000 1.0
C      1  0.4676720000000  0.4718600000000  0.4528750000000 1.0
C      1  0.4571630000000  0.5315120000000  0.4587980000000 1.0
C      1  0.5521920000000  0.5378250000000  0.4814900000000 1.0
C      1  0.4869990000000  0.4016470000000  0.5267500000000 1.0
C      1  0.5435530000000  0.5318480000000  0.5804260000000 1.0
C      1  0.5780480000000  0.4443090000000  0.5326310000000 1.0
C      1  0.4621010000000  0.5926950000000  0.5517380000000 1.0
C      1  0.5165030000000  0.4409370000000  0.5256910000000 1.0
C      1  0.5302900000000  0.5252580000000  0.5562220000000 1.0
C      1  0.4745740000000  0.5206910000000  0.4020600000000 1.0
C      1  0.5057550000000  0.5922230000000  0.5792270000000 1.0
C      1  0.5243870000000  0.4898970000000  0.6133330000000 1.0
C      1  0.4994380000000  0.5333510000000  0.3979430000000 1.0
C      1  0.4261310000000  0.4905880000000  0.5909850000000 1.0
C      1  0.4746650000000  0.4782960000000  0.6073760000000 1.0
C      1  0.4292200000000  0.5520890000000  0.5444660000000 1.0
C      1  0.4872620000000  0.4535020000000  0.4413050000000 1.0
C      1  0.4702370000000  0.5295520000000  0.5574320000000 1.0
C      1  0.5325530000000  0.5527450000000  0.4963850000000 1.0
C      1  0.4581290000000  0.5215960000000  0.6135270000000 1.0
C      1  0.5297610000000  0.4354760000000  0.5506540000000 1.0
C      1  0.5130680000000  0.4232790000000  0.5695360000000 1.0
C      1  0.4308800000000  0.4919460000000  0.5104070000000 1.0
C      1  0.5398330000000  0.4688650000000  0.4885370000000 1.0
C      1  0.5020440000000  0.4959570000000  0.4726770000000 1.0
C      1  0.4061910000000  0.5051680000000  0.5069790000000 1.0
C      1  0.5435140000000  0.5195010000000  0.4588040000000 1.0
C      1  0.5184920000000  0.5152930000000  0.3862610000000 1.0
C      1  0.5423030000000  0.5796730000000  0.4389250000000 1.0
C      1  0.4500990000000  0.4889460000000  0.4372280000000 1.0
C      1  0.4325440000000  0.4390140000000  0.5663480000000 1.0
C      1  0.5273760000000  0.5806150000000  0.4878210000000 1.0
C      1  0.5372990000000  0.5587130000000  0.4200670000000 1.0
C      1  0.4636030000000  0.5786920000000  0.4748090000000 1.0
C      1  0.5052060000000  0.4119850000000  0.4834120000000 1.0
C      1  0.5048580000000  0.5933700000000  0.5032230000000 1.0
C      1  0.4868790000000  0.4748980000000  0.3700620000000 1.0
C      1  0.5067670000000  0.4931050000000  0.3724200000000 1.0
C      1  0.4756000000000  0.4052200000000  0.4791020000000 1.0
C      1  0.4495700000000  0.4949440000000  0.6061750000000 1.0
C      1  0.5116790000000  0.5408430000000  0.5113860000000 1.0
C      1  0.5357910000000  0.4471570000000  0.4287680000000 1.0
END
