TITL C-599894-471-129 6.12824488331288 125000 -676.583636092796 0 0 113 (C1) n - 1
REM
REM in /home/nfs/bkarasulu/CARBON/AIRSS/Generating-Clusters/TERSOFF/Only-C1/FIRE-HFTN
REM
REM
REM
REM
REM
REM ./C.cell (11c1c37f851c82e70ff6c80c92926a4b)
REM AIRSS Version 0.9.1 bugfix July 2018 build 013d7b7c2542+ Fri, 06 Jul 2018 19:26:36 +0100
REM compiler GCC version 9.2.1 20190827 (Red Hat 9.2.1-1)
REM options -cpp -mtune=generic -march=x86-64 -g -O0 -fpre-include=/usr/include/finclude/math-vector-fortran.h
REM seed 207237933 241352568 -181369721 -868293373 738322949 -779644674 -2110781041 989047065 -1307183674 2051067081 326327750 -1849123299 -953654992 2144271852 -258265663 -184699691 -1790200099 1310201116 457958563 1020504253 -1182386618 -81015101 13886048 -781326786 1945988299 -1403810108 685282342 -778958196 682326981 -2137474939 -1014350746 -1921576419 1604221609
REM
CELL 1.54180   50.00000   50.00000   50.00000   90.00000   90.00000   90.00000
LATT -1
SFAC C  
C      1  0.5087100000000  0.5351920000000  0.4078280000000 1.0
C      1  0.5512740000000  0.6076050000000  0.5422910000000 1.0
C      1  0.5268650000000  0.4383700000000  0.4036750000000 1.0
C      1  0.6012400000000  0.4729160000000  0.5024010000000 1.0
C      1  0.5988850000000  0.4648600000000  0.5281580000000 1.0
C      1  0.5813580000000  0.4917650000000  0.5652490000000 1.0
C      1  0.5768660000000  0.5404080000000  0.5757640000000 1.0
C      1  0.4445360000000  0.5134320000000  0.3769930000000 1.0
C      1  0.4688820000000  0.4912760000000  0.5431280000000 1.0
C      1  0.4561010000000  0.4744550000000  0.4987310000000 1.0
C      1  0.5401230000000  0.4377600000000  0.5591290000000 1.0
C      1  0.5818560000000  0.5500870000000  0.5088990000000 1.0
C      1  0.5674080000000  0.4454960000000  0.5612520000000 1.0
C      1  0.5115390000000  0.5542230000000  0.5513860000000 1.0
C      1  0.5266640000000  0.4496720000000  0.5370980000000 1.0
C      1  0.4479750000000  0.5096420000000  0.4255060000000 1.0
C      1  0.5847290000000  0.4664730000000  0.5527840000000 1.0
C      1  0.4855020000000  0.3521250000000  0.4353040000000 1.0
C      1  0.5460850000000  0.5430920000000  0.4778940000000 1.0
C      1  0.5202790000000  0.5171380000000  0.4478220000000 1.0
C      1  0.4339610000000  0.4920910000000  0.5789070000000 1.0
C      1  0.4153640000000  0.4531100000000  0.5268890000000 1.0
C      1  0.3842670000000  0.4679990000000  0.4885820000000 1.0
C      1  0.4999510000000  0.5620210000000  0.4880590000000 1.0
C      1  0.5341430000000  0.4760220000000  0.5315910000000 1.0
C      1  0.5107150000000  0.5793940000000  0.5582900000000 1.0
C      1  0.5019010000000  0.4844570000000  0.4884940000000 1.0
C      1  0.5053760000000  0.5273910000000  0.5581580000000 1.0
C      1  0.5729780000000  0.5763900000000  0.5134000000000 1.0
C      1  0.5713080000000  0.4407150000000  0.4471170000000 1.0
C      1  0.5875870000000  0.4916350000000  0.4861590000000 1.0
C      1  0.4906890000000  0.3928690000000  0.4701510000000 1.0
C      1  0.5048330000000  0.6240630000000  0.5237800000000 1.0
C      1  0.5333080000000  0.5999080000000  0.4983530000000 1.0
C      1  0.5568380000000  0.5864940000000  0.4914980000000 1.0
C      1  0.4702350000000  0.4006420000000  0.4878580000000 1.0
C      1  0.5181030000000  0.5328880000000  0.4744570000000 1.0
C      1  0.4707970000000  0.4277460000000  0.5757950000000 1.0
C      1  0.5907540000000  0.5013810000000  0.4594060000000 1.0
C      1  0.4605120000000  0.5136420000000  0.3999390000000 1.0
C      1  0.4640000000000  0.4647910000000  0.5265560000000 1.0
C      1  0.4876740000000  0.3716130000000  0.4524700000000 1.0
C      1  0.5398340000000  0.5079310000000  0.5846880000000 1.0
C      1  0.5539320000000  0.5690730000000  0.4690410000000 1.0
C      1  0.5665550000000  0.5835000000000  0.5404970000000 1.0
C      1  0.4474550000000  0.5564860000000  0.4425690000000 1.0
C      1  0.4263390000000  0.5123300000000  0.4893290000000 1.0
C      1  0.4495330000000  0.4839470000000  0.4373470000000 1.0
C      1  0.4883680000000  0.6069070000000  0.5073530000000 1.0
C      1  0.5174600000000  0.4887700000000  0.4454980000000 1.0
C      1  0.5547330000000  0.4780780000000  0.4158500000000 1.0
C      1  0.3815910000000  0.4868890000000  0.4675890000000 1.0
C      1  0.4649910000000  0.5672190000000  0.5242120000000 1.0
C      1  0.4862540000000  0.5177720000000  0.5994990000000 1.0
C      1  0.4292240000000  0.5134250000000  0.3559060000000 1.0
C      1  0.5382800000000  0.4056320000000  0.5952570000000 1.0
C      1  0.5049870000000  0.5122960000000  0.4930160000000 1.0
C      1  0.4402500000000  0.4506770000000  0.5406070000000 1.0
C      1  0.4086170000000  0.4677580000000  0.5034170000000 1.0
C      1  0.5253180000000  0.4689770000000  0.4838750000000 1.0
C      1  0.5690240000000  0.5628950000000  0.5600360000000 1.0
C      1  0.4885950000000  0.5179630000000  0.3971450000000 1.0
C      1  0.5216940000000  0.4205860000000  0.4234230000000 1.0
C      1  0.4964910000000  0.5582920000000  0.4193830000000 1.0
C      1  0.4670230000000  0.4184920000000  0.5075590000000 1.0
C      1  0.5590700000000  0.4172200000000  0.4525420000000 1.0
C      1  0.5791460000000  0.5123820000000  0.4372130000000 1.0
C      1  0.4761270000000  0.4757090000000  0.4792720000000 1.0
C      1  0.5580430000000  0.4648530000000  0.4417680000000 1.0
C      1  0.4289370000000  0.5190850000000  0.5384430000000 1.0
C      1  0.4372780000000  0.5297320000000  0.4430250000000 1.0
C      1  0.5371420000000  0.4726310000000  0.4588590000000 1.0
C      1  0.5502700000000  0.4931820000000  0.5195440000000 1.0
C      1  0.4648800000000  0.5944260000000  0.5162520000000 1.0
C      1  0.4815010000000  0.4399390000000  0.5198480000000 1.0
C      1  0.4243120000000  0.5269990000000  0.5131620000000 1.0
C      1  0.5668260000000  0.5047940000000  0.5005910000000 1.0
C      1  0.4730430000000  0.5624950000000  0.4319950000000 1.0
C      1  0.5319170000000  0.5240810000000  0.4216960000000 1.0
C      1  0.4301100000000  0.4843250000000  0.4942570000000 1.0
C      1  0.5197440000000  0.4206620000000  0.4971590000000 1.0
C      1  0.5067950000000  0.5894370000000  0.4916450000000 1.0
C      1  0.4651810000000  0.5341840000000  0.5940540000000 1.0
C      1  0.4131920000000  0.4738280000000  0.6235960000000 1.0
C      1  0.5586310000000  0.5763380000000  0.4432890000000 1.0
C      1  0.5969150000000  0.5447000000000  0.5942200000000 1.0
C      1  0.4559640000000  0.5510890000000  0.5752330000000 1.0
C      1  0.4971210000000  0.4249350000000  0.5795790000000 1.0
C      1  0.5659470000000  0.5135780000000  0.5746810000000 1.0
C      1  0.4559620000000  0.5608260000000  0.5502100000000 1.0
C      1  0.3938660000000  0.5078950000000  0.4558360000000 1.0
C      1  0.5252790000000  0.4226800000000  0.5782030000000 1.0
C      1  0.5222990000000  0.5476160000000  0.6026500000000 1.0
C      1  0.3445970000000  0.4333870000000  0.5002390000000 1.0
C      1  0.4715550000000  0.4737950000000  0.4511960000000 1.0
C      1  0.5312920000000  0.4124630000000  0.4490370000000 1.0
C      1  0.5568720000000  0.5074490000000  0.4190640000000 1.0
C      1  0.5324990000000  0.6161490000000  0.5228560000000 1.0
C      1  0.4484980000000  0.4355960000000  0.5630610000000 1.0
C      1  0.5133900000000  0.5218880000000  0.5870860000000 1.0
C      1  0.4894010000000  0.5238710000000  0.5136980000000 1.0
C      1  0.4321060000000  0.5768900000000  0.4525750000000 1.0
C      1  0.3636450000000  0.4501960000000  0.4944240000000 1.0
C      1  0.4892310000000  0.5119640000000  0.5396070000000 1.0
C      1  0.5647410000000  0.5318680000000  0.4959350000000 1.0
C      1  0.5402530000000  0.4613750000000  0.3980810000000 1.0
C      1  0.4231480000000  0.4832170000000  0.6014110000000 1.0
C      1  0.4821740000000  0.5506670000000  0.5079940000000 1.0
C      1  0.5097770000000  0.4362120000000  0.5190270000000 1.0
C      1  0.4186210000000  0.5199630000000  0.4628860000000 1.0
C      1  0.4951840000000  0.4750280000000  0.4362020000000 1.0
C      1  0.4438540000000  0.5012810000000  0.5545100000000 1.0
C      1  0.5149510000000  0.4079720000000  0.4719980000000 1.0
END
