TITL C-599896-8500-1233 -29870.7495857292 125000 -528.111933725082 0 0 90 (C1) n - 1
REM
REM in /home/nfs/bkarasulu/CARBON/AIRSS/Generating-Clusters/TERSOFF/Only-C1/FIRE-HFTN
REM
REM
REM
REM
REM
REM ./C.cell (11c1c37f851c82e70ff6c80c92926a4b)
REM AIRSS Version 0.9.1 bugfix July 2018 build 013d7b7c2542+ Fri, 06 Jul 2018 19:26:36 +0100
REM compiler GCC version 9.2.1 20190827 (Red Hat 9.2.1-1)
REM options -cpp -mtune=generic -march=x86-64 -g -O0 -fpre-include=/usr/include/finclude/math-vector-fortran.h
REM seed -1451598255 -1377737628 -1055649001 1635459936 -169444955 -1531832228 -460589020 -805487853 1033057691 1980125263 -1412412601 1298756568 1068691188 1127422857 1735179671 -875698139 -1490296857 -387631677 -185319381 -1992164518 270004811 -105190410 -553404595 1226771631 -571479633 -1606020347 -1111006964 -1884758202 1335382679 -1439863209 -470512036 1289223010 -866697679
REM
CELL 1.54180   50.00000   50.00000   50.00000   90.00000   90.00000   90.00000
LATT -1
SFAC C  
C      1  0.5346980000000  0.3998590000000  0.4481470000000 1.0
C      1  0.5317240000000  0.5434100000000  0.5701050000000 1.0
C      1  0.4616180000000  0.5909030000000  0.4900650000000 1.0
C      1  0.5847660000000  0.4907190000000  0.5404220000000 1.0
C      1  0.4150480000000  0.4586000000000  0.5164890000000 1.0
C      1  0.4328180000000  0.4388710000000  0.5079730000000 1.0
C      1  0.4650720000000  0.4789240000000  0.4908910000000 1.0
C      1  0.4833820000000  0.5407650000000  0.4912290000000 1.0
C      1  0.4568270000000  0.4894310000000  0.5741790000000 1.0
C      1  0.4926890000000  0.4524460000000  0.5895790000000 1.0
C      1  0.4537800000000  0.4300170000000  0.4913400000000 1.0
C      1  0.5834920000000  0.4669810000000  0.4977620000000 1.0
C      1  0.5493080000000  0.4741010000000  0.4186100000000 1.0
C      1  0.5392680000000  0.3959850000000  0.5618740000000 1.0
C      1  0.5712480000000  0.5207560000000  0.6344600000000 1.0
C      1  0.3949200000000  0.4699980000000  0.4987330000000 1.0
C      1  0.4627330000000  0.5169150000000  0.5744950000000 1.0
C      1  0.4526040000000  0.4344140000000  0.4629320000000 1.0
C      1  0.4767040000000  0.5764930000000  0.5385140000000 1.0
C      1  0.5462970000000  0.5380740000000  0.5915690000000 1.0
C      1  0.5504980000000  0.3796260000000  0.5442960000000 1.0
C      1  0.5591640000000  0.5299900000000  0.6132860000000 1.0
C      1  0.5138460000000  0.5444010000000  0.5484980000000 1.0
C      1  0.4787500000000  0.4225970000000  0.5022250000000 1.0
C      1  0.5154880000000  0.5926410000000  0.4665460000000 1.0
C      1  0.5572040000000  0.5084280000000  0.4591830000000 1.0
C      1  0.4996010000000  0.5648750000000  0.4994520000000 1.0
C      1  0.5847440000000  0.5464240000000  0.4583970000000 1.0
C      1  0.5603600000000  0.3641050000000  0.5258170000000 1.0
C      1  0.5478460000000  0.5637820000000  0.4309210000000 1.0
C      1  0.4882780000000  0.4073220000000  0.4351340000000 1.0
C      1  0.4745090000000  0.4714440000000  0.5862580000000 1.0
C      1  0.5269600000000  0.5534040000000  0.4154800000000 1.0
C      1  0.4724380000000  0.4903590000000  0.5156320000000 1.0
C      1  0.5806240000000  0.5205420000000  0.4698090000000 1.0
C      1  0.4612690000000  0.5833180000000  0.4636670000000 1.0
C      1  0.5231790000000  0.5344720000000  0.5235580000000 1.0
C      1  0.5212890000000  0.5455560000000  0.4597690000000 1.0
C      1  0.4536000000000  0.4830220000000  0.4651680000000 1.0
C      1  0.3964680000000  0.4975940000000  0.5343080000000 1.0
C      1  0.4790260000000  0.5821210000000  0.5110170000000 1.0
C      1  0.4562680000000  0.5339330000000  0.5006890000000 1.0
C      1  0.5337390000000  0.5179340000000  0.5029950000000 1.0
C      1  0.4580360000000  0.5142990000000  0.5211610000000 1.0
C      1  0.4976620000000  0.4842110000000  0.5264040000000 1.0
C      1  0.4509810000000  0.5104550000000  0.4572840000000 1.0
C      1  0.5724840000000  0.4201750000000  0.4771540000000 1.0
C      1  0.3905430000000  0.5357800000000  0.4749990000000 1.0
C      1  0.4746450000000  0.5463730000000  0.4273630000000 1.0
C      1  0.5843750000000  0.5170870000000  0.4983310000000 1.0
C      1  0.5568620000000  0.4914360000000  0.4371910000000 1.0
C      1  0.4347920000000  0.4792930000000  0.5599630000000 1.0
C      1  0.4438020000000  0.4596390000000  0.4523830000000 1.0
C      1  0.4782300000000  0.5685460000000  0.4459910000000 1.0
C      1  0.4160060000000  0.4767550000000  0.5396420000000 1.0
C      1  0.5372990000000  0.4525810000000  0.4087350000000 1.0
C      1  0.4518360000000  0.5296580000000  0.4337430000000 1.0
C      1  0.5156500000000  0.4103070000000  0.4304360000000 1.0
C      1  0.5624990000000  0.5650010000000  0.4569190000000 1.0
C      1  0.5438940000000  0.4924840000000  0.5126800000000 1.0
C      1  0.5745690000000  0.4912850000000  0.5124480000000 1.0
C      1  0.4263440000000  0.4609170000000  0.4314030000000 1.0
C      1  0.5006110000000  0.5441970000000  0.4130390000000 1.0
C      1  0.4873690000000  0.5548280000000  0.5538040000000 1.0
C      1  0.5102020000000  0.4329040000000  0.5858220000000 1.0
C      1  0.5324110000000  0.5189390000000  0.4718010000000 1.0
C      1  0.4718230000000  0.5434890000000  0.5749830000000 1.0
C      1  0.5058660000000  0.5699170000000  0.4525340000000 1.0
C      1  0.5250660000000  0.5794780000000  0.4907390000000 1.0
C      1  0.5230010000000  0.4461710000000  0.5144040000000 1.0
C      1  0.4384350000000  0.5281820000000  0.4787470000000 1.0
C      1  0.4159790000000  0.5406020000000  0.4646690000000 1.0
C      1  0.5528400000000  0.5721810000000  0.4849970000000 1.0
C      1  0.3853650000000  0.4959760000000  0.5075730000000 1.0
C      1  0.5041760000000  0.4279560000000  0.5085400000000 1.0
C      1  0.4657660000000  0.4163210000000  0.4460530000000 1.0
C      1  0.5246070000000  0.4294520000000  0.4120150000000 1.0
C      1  0.5824110000000  0.4425500000000  0.4874560000000 1.0
C      1  0.4256650000000  0.5430380000000  0.4373400000000 1.0
C      1  0.5234390000000  0.4737540000000  0.5199360000000 1.0
C      1  0.5553530000000  0.4044750000000  0.4642640000000 1.0
C      1  0.4657000000000  0.5594980000000  0.5971080000000 1.0
C      1  0.5084210000000  0.5022530000000  0.4666020000000 1.0
C      1  0.5702560000000  0.5644580000000  0.5062110000000 1.0
C      1  0.5930720000000  0.4899460000000  0.5650930000000 1.0
C      1  0.5258720000000  0.4138120000000  0.5762010000000 1.0
C      1  0.4599630000000  0.5750080000000  0.6172500000000 1.0
C      1  0.4885010000000  0.5192680000000  0.4733700000000 1.0
C      1  0.3793370000000  0.5176340000000  0.4912350000000 1.0
C      1  0.5838360000000  0.5418820000000  0.5125100000000 1.0
END
