TITL C-599895-9959-326 -0.0475411228586198 125000 -1131.24951402119 0 0 184 (C1) n - 1
REM
REM in /home/nfs/bkarasulu/CARBON/AIRSS/Generating-Clusters/TERSOFF/Only-C1/FIRE-HFTN
REM
REM
REM
REM
REM
REM ./C.cell (11c1c37f851c82e70ff6c80c92926a4b)
REM AIRSS Version 0.9.1 bugfix July 2018 build 013d7b7c2542+ Fri, 06 Jul 2018 19:26:36 +0100
REM compiler GCC version 9.2.1 20190827 (Red Hat 9.2.1-1)
REM options -cpp -mtune=generic -march=x86-64 -g -O0 -fpre-include=/usr/include/finclude/math-vector-fortran.h
REM seed -1567227846 -1788781010 206865013 -1705142387 770366261 1612954436 1147816299 2036347396 2104952161 920239238 354702307 -2081766046 -1041859122 -84002859 -1337631458 1886553912 -655405291 -1145605384 -882406415 -1457206 -544993063 -168291434 -309852119 1359402593 1902276619 1126699314 -1939357226 -625863573 1440540635 -1867129738 1926748784 1274760582 -1007796462
REM
CELL 1.54180   50.00000   50.00000   50.00000   90.00000   90.00000   90.00000
LATT -1
SFAC C  
C      1  0.4770710000000  0.5351260000000  0.5658180000000 1.0
C      1  0.5219980000000  0.6125500000000  0.5891440000000 1.0
C      1  0.5837400000000  0.4011960000000  0.5568920000000 1.0
C      1  0.4345080000000  0.4487410000000  0.5681960000000 1.0
C      1  0.4720880000000  0.6211610000000  0.4784020000000 1.0
C      1  0.5466170000000  0.4083530000000  0.5100850000000 1.0
C      1  0.4422130000000  0.4908990000000  0.5878000000000 1.0
C      1  0.4978600000000  0.6128680000000  0.4892010000000 1.0
C      1  0.5411750000000  0.4113150000000  0.5908020000000 1.0
C      1  0.6020160000000  0.5448640000000  0.4389450000000 1.0
C      1  0.5483800000000  0.5463460000000  0.4264680000000 1.0
C      1  0.5800570000000  0.4713740000000  0.6150160000000 1.0
C      1  0.5443660000000  0.4748300000000  0.4447200000000 1.0
C      1  0.5298810000000  0.4039410000000  0.4876950000000 1.0
C      1  0.5767620000000  0.5473120000000  0.4295190000000 1.0
C      1  0.4504410000000  0.5223200000000  0.4011710000000 1.0
C      1  0.4393620000000  0.5389600000000  0.5942180000000 1.0
C      1  0.5074700000000  0.5918040000000  0.4720670000000 1.0
C      1  0.5297490000000  0.5770100000000  0.4791650000000 1.0
C      1  0.5159100000000  0.5118220000000  0.3730160000000 1.0
C      1  0.5818640000000  0.5398830000000  0.4851480000000 1.0
C      1  0.4322500000000  0.5742830000000  0.4139350000000 1.0
C      1  0.4944340000000  0.4955770000000  0.3728340000000 1.0
C      1  0.5165730000000  0.3962970000000  0.4281350000000 1.0
C      1  0.5138700000000  0.6196040000000  0.5643600000000 1.0
C      1  0.6221340000000  0.5392300000000  0.4562780000000 1.0
C      1  0.6172700000000  0.4192210000000  0.4510410000000 1.0
C      1  0.4970500000000  0.4700350000000  0.4277120000000 1.0
C      1  0.4604940000000  0.4997080000000  0.6518580000000 1.0
C      1  0.5245190000000  0.4754380000000  0.4245350000000 1.0
C      1  0.4276580000000  0.5971530000000  0.4906140000000 1.0
C      1  0.5043770000000  0.4988420000000  0.5320880000000 1.0
C      1  0.4534260000000  0.6197050000000  0.4322870000000 1.0
C      1  0.5634510000000  0.4019570000000  0.5750930000000 1.0
C      1  0.6119990000000  0.4903560000000  0.5441770000000 1.0
C      1  0.5863190000000  0.5213350000000  0.3574170000000 1.0
C      1  0.5550790000000  0.4336370000000  0.6361570000000 1.0
C      1  0.5649360000000  0.5392760000000  0.5521770000000 1.0
C      1  0.4670980000000  0.6332360000000  0.4522970000000 1.0
C      1  0.5316750000000  0.5395690000000  0.4493340000000 1.0
C      1  0.4582500000000  0.5782510000000  0.4566690000000 1.0
C      1  0.3989370000000  0.4770060000000  0.4508310000000 1.0
C      1  0.4259970000000  0.5873620000000  0.5480720000000 1.0
C      1  0.5379510000000  0.3829570000000  0.4701980000000 1.0
C      1  0.5346040000000  0.4154760000000  0.4157610000000 1.0
C      1  0.5862670000000  0.5130700000000  0.4770930000000 1.0
C      1  0.4653010000000  0.5142460000000  0.4260930000000 1.0
C      1  0.4691710000000  0.5833310000000  0.3792290000000 1.0
C      1  0.4527150000000  0.5627320000000  0.6047350000000 1.0
C      1  0.4702010000000  0.6104750000000  0.5449550000000 1.0
C      1  0.4057750000000  0.4511990000000  0.4384520000000 1.0
C      1  0.4983200000000  0.6158180000000  0.5405510000000 1.0
C      1  0.4613170000000  0.5112910000000  0.6268690000000 1.0
C      1  0.6047490000000  0.4390510000000  0.4657420000000 1.0
C      1  0.4909440000000  0.4867800000000  0.4787460000000 1.0
C      1  0.5851980000000  0.5198400000000  0.5974860000000 1.0
C      1  0.4154560000000  0.4750840000000  0.5071390000000 1.0
C      1  0.5510380000000  0.4451210000000  0.5526870000000 1.0
C      1  0.5908340000000  0.4028620000000  0.5290920000000 1.0
C      1  0.5640660000000  0.4548860000000  0.4421090000000 1.0
C      1  0.5365640000000  0.4886930000000  0.4682150000000 1.0
C      1  0.6326940000000  0.5302670000000  0.4796350000000 1.0
C      1  0.5185870000000  0.5594850000000  0.5507790000000 1.0
C      1  0.4423170000000  0.4789170000000  0.4671230000000 1.0
C      1  0.4880220000000  0.5794300000000  0.4559130000000 1.0
C      1  0.5634950000000  0.5256600000000  0.5277830000000 1.0
C      1  0.6259330000000  0.5061080000000  0.5269930000000 1.0
C      1  0.5932590000000  0.4679600000000  0.4991040000000 1.0
C      1  0.4832790000000  0.5255690000000  0.6141310000000 1.0
C      1  0.5508140000000  0.5845850000000  0.4964650000000 1.0
C      1  0.4873570000000  0.5782790000000  0.5804950000000 1.0
C      1  0.5276110000000  0.5496050000000  0.4758960000000 1.0
C      1  0.4282180000000  0.4648330000000  0.3990570000000 1.0
C      1  0.4970430000000  0.4394420000000  0.4681330000000 1.0
C      1  0.4274760000000  0.5277580000000  0.5497060000000 1.0
C      1  0.4495780000000  0.5966410000000  0.5601250000000 1.0
C      1  0.4164240000000  0.4153430000000  0.4922610000000 1.0
C      1  0.5350880000000  0.5491550000000  0.4000260000000 1.0
C      1  0.5414500000000  0.6060980000000  0.5139810000000 1.0
C      1  0.5904220000000  0.4838870000000  0.4745950000000 1.0
C      1  0.4049770000000  0.5117280000000  0.5450050000000 1.0
C      1  0.4843920000000  0.3850140000000  0.5520220000000 1.0
C      1  0.4458800000000  0.5414420000000  0.3829860000000 1.0
C      1  0.4829110000000  0.3944710000000  0.4799040000000 1.0
C      1  0.4009430000000  0.4762430000000  0.4807170000000 1.0
C      1  0.4772040000000  0.4881630000000  0.5763260000000 1.0
C      1  0.4468480000000  0.5513630000000  0.4625410000000 1.0
C      1  0.4000800000000  0.4198470000000  0.5129660000000 1.0
C      1  0.4560480000000  0.3824960000000  0.5461310000000 1.0
C      1  0.4458320000000  0.5917870000000  0.4322730000000 1.0
C      1  0.6329700000000  0.5190620000000  0.5043070000000 1.0
C      1  0.3923630000000  0.4396230000000  0.5294950000000 1.0
C      1  0.5730270000000  0.5650980000000  0.4938970000000 1.0
C      1  0.4933580000000  0.5580440000000  0.5617810000000 1.0
C      1  0.4991680000000  0.5746840000000  0.6065940000000 1.0
C      1  0.4423260000000  0.4525050000000  0.4729970000000 1.0
C      1  0.4148970000000  0.5731240000000  0.5281800000000 1.0
C      1  0.4516790000000  0.3802260000000  0.5187510000000 1.0
C      1  0.4452830000000  0.4097010000000  0.4517250000000 1.0
C      1  0.4925290000000  0.5543000000000  0.4173330000000 1.0
C      1  0.4348630000000  0.4249070000000  0.4735210000000 1.0
C      1  0.6276960000000  0.3998540000000  0.4370670000000 1.0
C      1  0.5121430000000  0.6134900000000  0.5148050000000 1.0
C      1  0.5234220000000  0.5336550000000  0.4995310000000 1.0
C      1  0.5821700000000  0.4576870000000  0.5905570000000 1.0
C      1  0.4597510000000  0.4885860000000  0.6754130000000 1.0
C      1  0.4879960000000  0.3999250000000  0.4311600000000 1.0
C      1  0.4602280000000  0.4502680000000  0.5560480000000 1.0
C      1  0.4590130000000  0.5834760000000  0.5836270000000 1.0
C      1  0.4900730000000  0.5298210000000  0.4295440000000 1.0
C      1  0.6050330000000  0.4416280000000  0.4946980000000 1.0
C      1  0.4766560000000  0.3816270000000  0.5039450000000 1.0
C      1  0.5378890000000  0.5284180000000  0.3801570000000 1.0
C      1  0.5040810000000  0.4144650000000  0.4805390000000 1.0
C      1  0.3886580000000  0.5189180000000  0.5232110000000 1.0
C      1  0.5295240000000  0.3778680000000  0.4451690000000 1.0
C      1  0.5103160000000  0.5210730000000  0.4460420000000 1.0
C      1  0.4193260000000  0.5721270000000  0.5005060000000 1.0
C      1  0.5760490000000  0.4717440000000  0.5206490000000 1.0
C      1  0.4910330000000  0.4608150000000  0.4853300000000 1.0
C      1  0.5105300000000  0.5643620000000  0.3984380000000 1.0
C      1  0.4025100000000  0.5284610000000  0.4284990000000 1.0
C      1  0.5891060000000  0.4735340000000  0.5454300000000 1.0
C      1  0.5543110000000  0.4305650000000  0.4303890000000 1.0
C      1  0.4149220000000  0.5235880000000  0.4826480000000 1.0
C      1  0.4478760000000  0.5363270000000  0.5663430000000 1.0
C      1  0.5483980000000  0.4770800000000  0.5166030000000 1.0
C      1  0.4430490000000  0.4833220000000  0.5148060000000 1.0
C      1  0.5802820000000  0.5318450000000  0.5742390000000 1.0
C      1  0.4405740000000  0.5122500000000  0.6065200000000 1.0
C      1  0.4768080000000  0.4262260000000  0.4240520000000 1.0
C      1  0.5626130000000  0.5246770000000  0.3677130000000 1.0
C      1  0.4527320000000  0.5094460000000  0.5082070000000 1.0
C      1  0.4009170000000  0.4663030000000  0.5306930000000 1.0
C      1  0.5455190000000  0.4162600000000  0.6182230000000 1.0
C      1  0.4338980000000  0.5062130000000  0.4667340000000 1.0
C      1  0.5152380000000  0.4191090000000  0.5801920000000 1.0
C      1  0.4739220000000  0.5260800000000  0.5070600000000 1.0
C      1  0.4476150000000  0.4261870000000  0.4270200000000 1.0
C      1  0.4815920000000  0.4575500000000  0.5760830000000 1.0
C      1  0.5701880000000  0.3925390000000  0.5122970000000 1.0
C      1  0.4259530000000  0.5503760000000  0.4833120000000 1.0
C      1  0.5754840000000  0.4566300000000  0.5636840000000 1.0
C      1  0.4801690000000  0.5548440000000  0.6172770000000 1.0
C      1  0.5844940000000  0.4989620000000  0.6140830000000 1.0
C      1  0.4963200000000  0.3800930000000  0.5257890000000 1.0
C      1  0.4608100000000  0.4709260000000  0.5341830000000 1.0
C      1  0.5271180000000  0.4606120000000  0.5572610000000 1.0
C      1  0.5889450000000  0.4611970000000  0.4546310000000 1.0
C      1  0.4699370000000  0.3933420000000  0.4544680000000 1.0
C      1  0.5688990000000  0.4566540000000  0.6361150000000 1.0
C      1  0.4235860000000  0.4747270000000  0.5738090000000 1.0
C      1  0.4868420000000  0.5156510000000  0.5861590000000 1.0
C      1  0.5105130000000  0.5001120000000  0.4643300000000 1.0
C      1  0.4524380000000  0.5996490000000  0.4787600000000 1.0
C      1  0.5447100000000  0.5582310000000  0.5551870000000 1.0
C      1  0.5469370000000  0.5196420000000  0.5058580000000 1.0
C      1  0.5192060000000  0.5941500000000  0.6109520000000 1.0
C      1  0.4976120000000  0.3987050000000  0.5721110000000 1.0
C      1  0.4907770000000  0.4454990000000  0.4400270000000 1.0
C      1  0.5344920000000  0.5953820000000  0.6334370000000 1.0
C      1  0.3661750000000  0.5230580000000  0.4807280000000 1.0
C      1  0.5330690000000  0.4190310000000  0.3885320000000 1.0
C      1  0.4773420000000  0.4870430000000  0.4166790000000 1.0
C      1  0.4013840000000  0.4990490000000  0.4294720000000 1.0
C      1  0.4465040000000  0.5690170000000  0.3891090000000 1.0
C      1  0.4269400000000  0.4446270000000  0.4196830000000 1.0
C      1  0.5262330000000  0.4800880000000  0.5357910000000 1.0
C      1  0.3893520000000  0.5211350000000  0.4951070000000 1.0
C      1  0.5079850000000  0.4466840000000  0.5736100000000 1.0
C      1  0.4504570000000  0.4690490000000  0.3820800000000 1.0
C      1  0.5457520000000  0.4273380000000  0.5308490000000 1.0
C      1  0.5600480000000  0.6209040000000  0.5287670000000 1.0
C      1  0.5460330000000  0.4935620000000  0.4940430000000 1.0
C      1  0.4104460000000  0.4867120000000  0.4045540000000 1.0
C      1  0.4800380000000  0.4910620000000  0.5452440000000 1.0
C      1  0.4126000000000  0.5535610000000  0.4222820000000 1.0
C      1  0.5781730000000  0.6335710000000  0.5425560000000 1.0
C      1  0.4500030000000  0.5242280000000  0.4507860000000 1.0
C      1  0.4964320000000  0.5809330000000  0.3802010000000 1.0
C      1  0.6067870000000  0.4221810000000  0.5153040000000 1.0
C      1  0.5010910000000  0.5218790000000  0.5136240000000 1.0
C      1  0.4055500000000  0.4841090000000  0.5531360000000 1.0
C      1  0.4742640000000  0.4829120000000  0.3880470000000 1.0
END
