TITL C-599892-9790-1416 -32513.7788796722 125000 -1085.24256452345 0 0 180 (C1) n - 1
REM
REM in /home/nfs/bkarasulu/CARBON/AIRSS/Generating-Clusters/TERSOFF/Only-C1/FIRE-HFTN
REM
REM
REM
REM
REM
REM ./C.cell (11c1c37f851c82e70ff6c80c92926a4b)
REM AIRSS Version 0.9.1 bugfix July 2018 build 013d7b7c2542+ Fri, 06 Jul 2018 19:26:36 +0100
REM compiler GCC version 9.2.1 20190827 (Red Hat 9.2.1-1)
REM options -cpp -mtune=generic -march=x86-64 -g -O0 -fpre-include=/usr/include/finclude/math-vector-fortran.h
REM seed -1259722490 -447130638 1810233478 2035093408 777127526 -1894656496 1255912646 -607526591 393811887 1410749638 -1370937601 -36726706 -391824829 1800681233 1645923632 1595328761 415101388 1884187850 1772688098 2135213844 -570250339 332273261 990241661 826952965 1194679528 -2035014251 787157568 1371451356 -1960763246 -506239273 -1961854494 -760207326 206555726
REM
CELL 1.54180   50.00000   50.00000   50.00000   90.00000   90.00000   90.00000
LATT -1
SFAC C  
C      1  0.4079040000000  0.5399260000000  0.4776410000000 1.0
C      1  0.4944590000000  0.6112530000000  0.5515810000000 1.0
C      1  0.6115110000000  0.4722880000000  0.4711580000000 1.0
C      1  0.4694530000000  0.4459300000000  0.5769490000000 1.0
C      1  0.4392410000000  0.4645430000000  0.5450560000000 1.0
C      1  0.6210190000000  0.5400840000000  0.4765080000000 1.0
C      1  0.5791630000000  0.5115260000000  0.5348520000000 1.0
C      1  0.5858130000000  0.5676950000000  0.4576720000000 1.0
C      1  0.5222370000000  0.5469180000000  0.4496020000000 1.0
C      1  0.5958450000000  0.5541870000000  0.5372980000000 1.0
C      1  0.4697420000000  0.5159730000000  0.5170240000000 1.0
C      1  0.5033030000000  0.4661030000000  0.3736900000000 1.0
C      1  0.5289370000000  0.4777590000000  0.5462770000000 1.0
C      1  0.4885540000000  0.4281290000000  0.4655810000000 1.0
C      1  0.5119200000000  0.4418440000000  0.3820460000000 1.0
C      1  0.4911380000000  0.5975730000000  0.5759810000000 1.0
C      1  0.5731380000000  0.5041910000000  0.4779360000000 1.0
C      1  0.4584870000000  0.5889160000000  0.4877310000000 1.0
C      1  0.5060730000000  0.4145690000000  0.5665240000000 1.0
C      1  0.4230080000000  0.5114950000000  0.4350800000000 1.0
C      1  0.4941010000000  0.3931640000000  0.5404350000000 1.0
C      1  0.5498950000000  0.4443880000000  0.4372240000000 1.0
C      1  0.5127430000000  0.5836410000000  0.5871140000000 1.0
C      1  0.5399970000000  0.5010480000000  0.4114240000000 1.0
C      1  0.4816620000000  0.4764110000000  0.4964140000000 1.0
C      1  0.5091700000000  0.5387170000000  0.3944730000000 1.0
C      1  0.5182900000000  0.6044760000000  0.4644580000000 1.0
C      1  0.3828330000000  0.4572130000000  0.5145780000000 1.0
C      1  0.4146940000000  0.4753810000000  0.4670160000000 1.0
C      1  0.5969460000000  0.5667370000000  0.5107300000000 1.0
C      1  0.5095190000000  0.4800110000000  0.4924410000000 1.0
C      1  0.5142760000000  0.4113370000000  0.4972430000000 1.0
C      1  0.4624580000000  0.4175880000000  0.5083550000000 1.0
C      1  0.4054280000000  0.5118780000000  0.5656750000000 1.0
C      1  0.4833580000000  0.3771910000000  0.5094710000000 1.0
C      1  0.4967920000000  0.5386140000000  0.4580710000000 1.0
C      1  0.5740440000000  0.3939050000000  0.4895200000000 1.0
C      1  0.5718190000000  0.5133070000000  0.5958300000000 1.0
C      1  0.5713630000000  0.4492120000000  0.4191870000000 1.0
C      1  0.6194260000000  0.5160040000000  0.4919180000000 1.0
C      1  0.5593920000000  0.5590410000000  0.4101020000000 1.0
C      1  0.4894380000000  0.3505640000000  0.5090380000000 1.0
C      1  0.5187550000000  0.5335620000000  0.5168360000000 1.0
C      1  0.4928280000000  0.4420730000000  0.6141250000000 1.0
C      1  0.4930740000000  0.4900430000000  0.3849010000000 1.0
C      1  0.5765580000000  0.4216820000000  0.4911060000000 1.0
C      1  0.5077600000000  0.4289020000000  0.4069710000000 1.0
C      1  0.5680180000000  0.5475540000000  0.5601590000000 1.0
C      1  0.6470280000000  0.4493200000000  0.4953380000000 1.0
C      1  0.4861510000000  0.5953000000000  0.5026240000000 1.0
C      1  0.4645790000000  0.4929350000000  0.3970170000000 1.0
C      1  0.4907030000000  0.4538420000000  0.5348040000000 1.0
C      1  0.5212000000000  0.5688100000000  0.4312400000000 1.0
C      1  0.4533690000000  0.4767080000000  0.6067320000000 1.0
C      1  0.3951890000000  0.5747280000000  0.5681920000000 1.0
C      1  0.4761120000000  0.4028440000000  0.4545170000000 1.0
C      1  0.6236630000000  0.5129610000000  0.5201860000000 1.0
C      1  0.4298080000000  0.5291420000000  0.4124620000000 1.0
C      1  0.5946680000000  0.4653840000000  0.4202190000000 1.0
C      1  0.4225640000000  0.5711840000000  0.5715690000000 1.0
C      1  0.6011410000000  0.4972650000000  0.4805370000000 1.0
C      1  0.5956180000000  0.4597590000000  0.5600430000000 1.0
C      1  0.4338020000000  0.5465400000000  0.5248600000000 1.0
C      1  0.4787700000000  0.5407690000000  0.3933330000000 1.0
C      1  0.4455490000000  0.4049130000000  0.4875190000000 1.0
C      1  0.4630840000000  0.6035470000000  0.4610190000000 1.0
C      1  0.4036920000000  0.4985540000000  0.4536860000000 1.0
C      1  0.5373760000000  0.5458200000000  0.4986280000000 1.0
C      1  0.4025450000000  0.5812620000000  0.4618310000000 1.0
C      1  0.5008830000000  0.4534140000000  0.4488780000000 1.0
C      1  0.5075940000000  0.5914710000000  0.4413530000000 1.0
C      1  0.4146260000000  0.4561700000000  0.5830840000000 1.0
C      1  0.4629720000000  0.5144290000000  0.5457110000000 1.0
C      1  0.5695720000000  0.3679200000000  0.4921270000000 1.0
C      1  0.4547200000000  0.5439910000000  0.5474300000000 1.0
C      1  0.5431590000000  0.5288720000000  0.4533280000000 1.0
C      1  0.5299040000000  0.5256420000000  0.5412850000000 1.0
C      1  0.6036900000000  0.5267400000000  0.5344930000000 1.0
C      1  0.4430170000000  0.5240750000000  0.5083530000000 1.0
C      1  0.4797220000000  0.5555830000000  0.5367460000000 1.0
C      1  0.4383150000000  0.5916890000000  0.5105630000000 1.0
C      1  0.5570490000000  0.6307750000000  0.4820310000000 1.0
C      1  0.5581330000000  0.5371270000000  0.5865770000000 1.0
C      1  0.5553500000000  0.5913740000000  0.5102230000000 1.0
C      1  0.4053670000000  0.4368150000000  0.4896570000000 1.0
C      1  0.6014080000000  0.4874600000000  0.4040600000000 1.0
C      1  0.4364630000000  0.4285700000000  0.4408300000000 1.0
C      1  0.5166690000000  0.5155270000000  0.6138450000000 1.0
C      1  0.6014010000000  0.4332250000000  0.4962370000000 1.0
C      1  0.4800940000000  0.5858520000000  0.4450730000000 1.0
C      1  0.4770920000000  0.4649410000000  0.6202430000000 1.0
C      1  0.4898580000000  0.4285920000000  0.5879390000000 1.0
C      1  0.5230410000000  0.4393690000000  0.4304500000000 1.0
C      1  0.4652680000000  0.5860800000000  0.5811380000000 1.0
C      1  0.4613710000000  0.4834790000000  0.4787580000000 1.0
C      1  0.4278000000000  0.5201360000000  0.5832260000000 1.0
C      1  0.4787690000000  0.6056390000000  0.5291150000000 1.0
C      1  0.4610650000000  0.5605120000000  0.5958810000000 1.0
C      1  0.5532820000000  0.4383420000000  0.4875630000000 1.0
C      1  0.4433220000000  0.5901860000000  0.5619430000000 1.0
C      1  0.4431010000000  0.4534400000000  0.5909210000000 1.0
C      1  0.4259700000000  0.5030280000000  0.5035690000000 1.0
C      1  0.3923090000000  0.5163280000000  0.4745300000000 1.0
C      1  0.5447330000000  0.4564400000000  0.5610600000000 1.0
C      1  0.4651210000000  0.5030200000000  0.4601270000000 1.0
C      1  0.4881800000000  0.4217830000000  0.4936760000000 1.0
C      1  0.6010570000000  0.5607190000000  0.4819130000000 1.0
C      1  0.5120690000000  0.5907980000000  0.4898140000000 1.0
C      1  0.4358700000000  0.5406540000000  0.4694180000000 1.0
C      1  0.4952640000000  0.3251750000000  0.5082360000000 1.0
C      1  0.4204720000000  0.5694850000000  0.5113860000000 1.0
C      1  0.5126040000000  0.5080830000000  0.4006860000000 1.0
C      1  0.6305700000000  0.4883870000000  0.5331210000000 1.0
C      1  0.5481380000000  0.5037540000000  0.4388520000000 1.0
C      1  0.4832130000000  0.4705200000000  0.5611710000000 1.0
C      1  0.4563480000000  0.4182020000000  0.5363930000000 1.0
C      1  0.4575140000000  0.4879290000000  0.5588440000000 1.0
C      1  0.5316080000000  0.4314680000000  0.5063720000000 1.0
C      1  0.5347680000000  0.5750050000000  0.4996820000000 1.0
C      1  0.4562990000000  0.4712220000000  0.4160150000000 1.0
C      1  0.4721470000000  0.4591050000000  0.5147070000000 1.0
C      1  0.6178700000000  0.4696140000000  0.5481420000000 1.0
C      1  0.3802810000000  0.5046450000000  0.4982470000000 1.0
C      1  0.5573650000000  0.5269820000000  0.5433820000000 1.0
C      1  0.3832320000000  0.4866960000000  0.5206030000000 1.0
C      1  0.5557160000000  0.4772720000000  0.5094630000000 1.0
C      1  0.5542690000000  0.5284910000000  0.4804940000000 1.0
C      1  0.5756570000000  0.5646680000000  0.4321120000000 1.0
C      1  0.4343310000000  0.4783860000000  0.4899300000000 1.0
C      1  0.4215030000000  0.4378370000000  0.5108240000000 1.0
C      1  0.5707260000000  0.4867940000000  0.5906000000000 1.0
C      1  0.4843070000000  0.5487650000000  0.6070210000000 1.0
C      1  0.4475220000000  0.4981990000000  0.5871910000000 1.0
C      1  0.6206760000000  0.4520290000000  0.4888250000000 1.0
C      1  0.5650690000000  0.6154290000000  0.5027570000000 1.0
C      1  0.4770020000000  0.5588940000000  0.4564820000000 1.0
C      1  0.4909460000000  0.5366390000000  0.5171730000000 1.0
C      1  0.4795930000000  0.4288360000000  0.4151880000000 1.0
C      1  0.4258110000000  0.4215280000000  0.4688390000000 1.0
C      1  0.5539620000000  0.4565170000000  0.4634400000000 1.0
C      1  0.3925760000000  0.4910060000000  0.5500790000000 1.0
C      1  0.5282190000000  0.4799360000000  0.5157180000000 1.0
C      1  0.5587580000000  0.4852940000000  0.4599240000000 1.0
C      1  0.4558580000000  0.5220060000000  0.3988140000000 1.0
C      1  0.4922910000000  0.5094510000000  0.4537210000000 1.0
C      1  0.4613180000000  0.4134810000000  0.4320870000000 1.0
C      1  0.4916720000000  0.5250260000000  0.6216710000000 1.0
C      1  0.5765010000000  0.4871850000000  0.5224490000000 1.0
C      1  0.4438130000000  0.5190550000000  0.4535890000000 1.0
C      1  0.6091260000000  0.4647350000000  0.4443430000000 1.0
C      1  0.6306970000000  0.5375710000000  0.4500190000000 1.0
C      1  0.4122680000000  0.4281250000000  0.5365750000000 1.0
C      1  0.3893770000000  0.4443580000000  0.5410800000000 1.0
C      1  0.4785300000000  0.4566640000000  0.4270300000000 1.0
C      1  0.4555630000000  0.5598430000000  0.4754230000000 1.0
C      1  0.5101190000000  0.5569520000000  0.5945370000000 1.0
C      1  0.5165320000000  0.4396290000000  0.5302520000000 1.0
C      1  0.5272720000000  0.5322640000000  0.5898480000000 1.0
C      1  0.4038320000000  0.5665110000000  0.4872610000000 1.0
C      1  0.3947470000000  0.4637380000000  0.5625120000000 1.0
C      1  0.4192990000000  0.5559110000000  0.4173770000000 1.0
C      1  0.6146230000000  0.5104790000000  0.4084480000000 1.0
C      1  0.5701680000000  0.4650590000000  0.5720380000000 1.0
C      1  0.5367330000000  0.6256630000000  0.4650210000000 1.0
C      1  0.5643560000000  0.3427910000000  0.4967000000000 1.0
C      1  0.4976530000000  0.5069720000000  0.4262340000000 1.0
C      1  0.5280250000000  0.4322160000000  0.5561310000000 1.0
C      1  0.5102400000000  0.4798280000000  0.4640720000000 1.0
C      1  0.4417730000000  0.4608370000000  0.5144130000000 1.0
C      1  0.5077570000000  0.4893430000000  0.5626030000000 1.0
C      1  0.4505180000000  0.5998840000000  0.5353650000000 1.0
C      1  0.4337220000000  0.4541560000000  0.4255160000000 1.0
C      1  0.5299950000000  0.5576740000000  0.4059810000000 1.0
C      1  0.6264490000000  0.5272150000000  0.4256770000000 1.0
C      1  0.3696770000000  0.5767980000000  0.5633110000000 1.0
C      1  0.4093380000000  0.5734410000000  0.4360950000000 1.0
C      1  0.4349190000000  0.5486180000000  0.5874000000000 1.0
C      1  0.4659620000000  0.3867220000000  0.4773460000000 1.0
C      1  0.4366970000000  0.4338360000000  0.5513880000000 1.0
C      1  0.5166600000000  0.5168240000000  0.5652490000000 1.0
END
