TITL C-599896-8500-1084 0.00475809779241232 125000 -608.308516351076 0 0 100 (C1) n - 1
REM
REM in /home/nfs/bkarasulu/CARBON/AIRSS/Generating-Clusters/TERSOFF/Only-C1/FIRE-HFTN
REM
REM
REM
REM
REM
REM ./C.cell (11c1c37f851c82e70ff6c80c92926a4b)
REM AIRSS Version 0.9.1 bugfix July 2018 build 013d7b7c2542+ Fri, 06 Jul 2018 19:26:36 +0100
REM compiler GCC version 9.2.1 20190827 (Red Hat 9.2.1-1)
REM options -cpp -mtune=generic -march=x86-64 -g -O0 -fpre-include=/usr/include/finclude/math-vector-fortran.h
REM seed -1584487791 67821208 -1977111603 -1046676759 -405268169 -1355066932 -715567243 -1721927668 121080164 -1825155202 -1072731071 225658697 2093969889 -2118909284 1092041809 -810678372 -2139507764 -308414920 -50574239 -448507726 -519362648 -307594829 -422425027 754230649 -1971981803 -1945328954 -1495156730 262042770 -1889415808 2130883801 445236497 510272129 -1941032688
REM
CELL 1.54180   50.00000   50.00000   50.00000   90.00000   90.00000   90.00000
LATT -1
SFAC C  
C      1  0.5388790000000  0.5206510000000  0.5624370000000 1.0
C      1  0.5878280000000  0.4980140000000  0.5172630000000 1.0
C      1  0.4909220000000  0.4951720000000  0.4943590000000 1.0
C      1  0.5215250000000  0.4633600000000  0.3645440000000 1.0
C      1  0.4112380000000  0.5039640000000  0.5686420000000 1.0
C      1  0.5240230000000  0.4226700000000  0.5200410000000 1.0
C      1  0.5749390000000  0.5520800000000  0.5143120000000 1.0
C      1  0.4701820000000  0.4710090000000  0.5685990000000 1.0
C      1  0.4578920000000  0.4438780000000  0.5273220000000 1.0
C      1  0.5121760000000  0.5346000000000  0.4531400000000 1.0
C      1  0.4807870000000  0.4713890000000  0.5945530000000 1.0
C      1  0.4701680000000  0.4398330000000  0.4271190000000 1.0
C      1  0.4956430000000  0.5216180000000  0.5416770000000 1.0
C      1  0.5292410000000  0.4943310000000  0.4438250000000 1.0
C      1  0.5362940000000  0.5353750000000  0.5862900000000 1.0
C      1  0.5468360000000  0.5266010000000  0.4830860000000 1.0
C      1  0.4540910000000  0.5446480000000  0.4876550000000 1.0
C      1  0.5186840000000  0.4582700000000  0.4832170000000 1.0
C      1  0.4729520000000  0.4188980000000  0.4432830000000 1.0
C      1  0.4600170000000  0.4175600000000  0.5157900000000 1.0
C      1  0.5493770000000  0.4394080000000  0.5582170000000 1.0
C      1  0.5861480000000  0.5329800000000  0.4496820000000 1.0
C      1  0.5366430000000  0.5715970000000  0.4466780000000 1.0
C      1  0.5226810000000  0.5867770000000  0.5790690000000 1.0
C      1  0.4753620000000  0.4668890000000  0.4208500000000 1.0
C      1  0.4652690000000  0.5883900000000  0.5437020000000 1.0
C      1  0.4756300000000  0.4089280000000  0.4691190000000 1.0
C      1  0.5504660000000  0.5772690000000  0.4725000000000 1.0
C      1  0.4546740000000  0.4132160000000  0.4881420000000 1.0
C      1  0.4554540000000  0.5435050000000  0.5594170000000 1.0
C      1  0.5625570000000  0.5705790000000  0.4970480000000 1.0
C      1  0.5232070000000  0.4663190000000  0.3918160000000 1.0
C      1  0.4405440000000  0.4658910000000  0.4836440000000 1.0
C      1  0.5245590000000  0.4270820000000  0.5489080000000 1.0
C      1  0.5230200000000  0.5111430000000  0.5411490000000 1.0
C      1  0.5711110000000  0.5365160000000  0.4717690000000 1.0
C      1  0.4412200000000  0.4631340000000  0.5124720000000 1.0
C      1  0.6005570000000  0.4501780000000  0.5195440000000 1.0
C      1  0.4761310000000  0.5051910000000  0.4530860000000 1.0
C      1  0.4661730000000  0.5499030000000  0.5131410000000 1.0
C      1  0.4935340000000  0.4700060000000  0.4859530000000 1.0
C      1  0.3602900000000  0.4472850000000  0.5121040000000 1.0
C      1  0.5467770000000  0.5167420000000  0.4307850000000 1.0
C      1  0.4991610000000  0.4715770000000  0.4060200000000 1.0
C      1  0.5029960000000  0.5084140000000  0.4461970000000 1.0
C      1  0.5006100000000  0.5215700000000  0.4963570000000 1.0
C      1  0.5353120000000  0.4950500000000  0.5195260000000 1.0
C      1  0.4748370000000  0.4490750000000  0.5510620000000 1.0
C      1  0.5641810000000  0.4578280000000  0.4655850000000 1.0
C      1  0.5487110000000  0.4981180000000  0.4911510000000 1.0
C      1  0.5754000000000  0.5141700000000  0.4317620000000 1.0
C      1  0.4968610000000  0.4823550000000  0.6127070000000 1.0
C      1  0.5847190000000  0.5271360000000  0.5227030000000 1.0
C      1  0.4228980000000  0.4799670000000  0.5268210000000 1.0
C      1  0.4836830000000  0.6034320000000  0.5556900000000 1.0
C      1  0.4863180000000  0.5755990000000  0.4300480000000 1.0
C      1  0.4420650000000  0.5705390000000  0.4497030000000 1.0
C      1  0.5488650000000  0.4639420000000  0.4037980000000 1.0
C      1  0.4575600000000  0.4942240000000  0.5590080000000 1.0
C      1  0.5862760000000  0.4716350000000  0.5323670000000 1.0
C      1  0.5383200000000  0.4754760000000  0.4682620000000 1.0
C      1  0.5843560000000  0.4792000000000  0.4631740000000 1.0
C      1  0.5608070000000  0.4614640000000  0.5429940000000 1.0
C      1  0.4578310000000  0.5621380000000  0.5375230000000 1.0
C      1  0.5005480000000  0.4013910000000  0.4811500000000 1.0
C      1  0.3920390000000  0.5122340000000  0.5062060000000 1.0
C      1  0.3974530000000  0.4862990000000  0.5154420000000 1.0
C      1  0.5150460000000  0.5008760000000  0.6186830000000 1.0
C      1  0.5148760000000  0.6341070000000  0.5756390000000 1.0
C      1  0.5723520000000  0.4695980000000  0.4158570000000 1.0
C      1  0.5346810000000  0.5433850000000  0.4370840000000 1.0
C      1  0.4481180000000  0.5103800000000  0.4175230000000 1.0
C      1  0.4715260000000  0.5191420000000  0.5572860000000 1.0
C      1  0.5798670000000  0.4929040000000  0.4892640000000 1.0
C      1  0.5300100000000  0.5209380000000  0.6094900000000 1.0
C      1  0.4542960000000  0.5372090000000  0.4168420000000 1.0
C      1  0.4899460000000  0.5352250000000  0.5175340000000 1.0
C      1  0.4080320000000  0.5559930000000  0.4835930000000 1.0
C      1  0.5291450000000  0.4474670000000  0.5072830000000 1.0
C      1  0.4300660000000  0.4916990000000  0.5515460000000 1.0
C      1  0.5838000000000  0.4872880000000  0.4352270000000 1.0
C      1  0.4623960000000  0.5225070000000  0.4714400000000 1.0
C      1  0.5395600000000  0.4676580000000  0.5248810000000 1.0
C      1  0.4609300000000  0.5620650000000  0.4299980000000 1.0
C      1  0.5196030000000  0.5340180000000  0.4802790000000 1.0
C      1  0.3940990000000  0.5364780000000  0.4954150000000 1.0
C      1  0.4134970000000  0.5278770000000  0.5809130000000 1.0
C      1  0.4985070000000  0.4342090000000  0.5579010000000 1.0
C      1  0.5058390000000  0.4038010000000  0.5091850000000 1.0
C      1  0.5742430000000  0.4352250000000  0.4790790000000 1.0
C      1  0.4816260000000  0.4009820000000  0.5244190000000 1.0
C      1  0.5071710000000  0.6084390000000  0.5702020000000 1.0
C      1  0.5920850000000  0.4340040000000  0.4994540000000 1.0
C      1  0.5112910000000  0.5833580000000  0.4381110000000 1.0
C      1  0.3778460000000  0.4664730000000  0.5137620000000 1.0
C      1  0.4588640000000  0.4879260000000  0.4356360000000 1.0
C      1  0.4342550000000  0.5606700000000  0.4749580000000 1.0
C      1  0.4415960000000  0.4741990000000  0.4577100000000 1.0
C      1  0.4340010000000  0.5450470000000  0.5775380000000 1.0
C      1  0.5333190000000  0.5631730000000  0.5850670000000 1.0
END
