TITL C-599892-9790-869 0.0433535052525171 125000 -494.267753953363 0 0 82 (C1) n - 1
REM
REM in /home/nfs/bkarasulu/CARBON/AIRSS/Generating-Clusters/TERSOFF/Only-C1/FIRE-HFTN
REM
REM
REM
REM
REM
REM ./C.cell (11c1c37f851c82e70ff6c80c92926a4b)
REM AIRSS Version 0.9.1 bugfix July 2018 build 013d7b7c2542+ Fri, 06 Jul 2018 19:26:36 +0100
REM compiler GCC version 9.2.1 20190827 (Red Hat 9.2.1-1)
REM options -cpp -mtune=generic -march=x86-64 -g -O0 -fpre-include=/usr/include/finclude/math-vector-fortran.h
REM seed 509514119 -1096713034 -557376546 2134016651 -2134881251 935747334 -2010171480 1099409954 1314454470 1594801248 -388673914 1391316469 -2135372594 -2131152732 -1656334840 1243994445 -1688391956 542947069 -375389584 428296231 -1711279879 -1415235419 255320960 1349498420 2015169714 -1382949663 1357528759 1952461365 -825527692 484795966 -2031005462 1156378280 -1343575302
REM
CELL 1.54180   50.00000   50.00000   50.00000   90.00000   90.00000   90.00000
LATT -1
SFAC C  
C      1  0.5321530000000  0.5784440000000  0.4311660000000 1.0
C      1  0.4720960000000  0.4942760000000  0.4153450000000 1.0
C      1  0.5291290000000  0.4639800000000  0.5414000000000 1.0
C      1  0.4587930000000  0.5766720000000  0.5921130000000 1.0
C      1  0.5499990000000  0.5575790000000  0.4389530000000 1.0
C      1  0.4774280000000  0.4936900000000  0.4758490000000 1.0
C      1  0.5213240000000  0.4907390000000  0.4696450000000 1.0
C      1  0.5334200000000  0.5361750000000  0.5494390000000 1.0
C      1  0.4724900000000  0.5198280000000  0.4864530000000 1.0
C      1  0.5499960000000  0.4356210000000  0.4617680000000 1.0
C      1  0.4689540000000  0.4145670000000  0.5108980000000 1.0
C      1  0.4450360000000  0.5304190000000  0.5780720000000 1.0
C      1  0.4559330000000  0.5070620000000  0.5650450000000 1.0
C      1  0.5053650000000  0.5845720000000  0.4392560000000 1.0
C      1  0.4890440000000  0.5432300000000  0.5699050000000 1.0
C      1  0.4897010000000  0.4222350000000  0.4905740000000 1.0
C      1  0.4315230000000  0.4762830000000  0.4959190000000 1.0
C      1  0.4335670000000  0.4865110000000  0.4656990000000 1.0
C      1  0.5149210000000  0.4074050000000  0.4977840000000 1.0
C      1  0.5642810000000  0.5021670000000  0.5620430000000 1.0
C      1  0.5113400000000  0.4167300000000  0.4339350000000 1.0
C      1  0.4847130000000  0.4583690000000  0.5630430000000 1.0
C      1  0.5303790000000  0.5654800000000  0.4900450000000 1.0
C      1  0.5737860000000  0.4707080000000  0.5238640000000 1.0
C      1  0.4379580000000  0.4605410000000  0.4513740000000 1.0
C      1  0.5750720000000  0.4948390000000  0.4505180000000 1.0
C      1  0.4852310000000  0.5382420000000  0.4271840000000 1.0
C      1  0.5120630000000  0.4979150000000  0.5709100000000 1.0
C      1  0.5153130000000  0.5430400000000  0.4782430000000 1.0
C      1  0.5528100000000  0.4244670000000  0.5293570000000 1.0
C      1  0.4628980000000  0.5180480000000  0.4290130000000 1.0
C      1  0.5500530000000  0.4535570000000  0.4833810000000 1.0
C      1  0.4373940000000  0.4464540000000  0.4949720000000 1.0
C      1  0.5778670000000  0.5519370000000  0.5141850000000 1.0
C      1  0.4855160000000  0.4163270000000  0.4412560000000 1.0
C      1  0.4862360000000  0.5137570000000  0.5617420000000 1.0
C      1  0.5356900000000  0.4236010000000  0.4426530000000 1.0
C      1  0.5847230000000  0.5226630000000  0.5191900000000 1.0
C      1  0.5222520000000  0.4787410000000  0.5180220000000 1.0
C      1  0.5738960000000  0.5124710000000  0.4944040000000 1.0
C      1  0.4847060000000  0.5666070000000  0.4307910000000 1.0
C      1  0.5126110000000  0.5045830000000  0.5221130000000 1.0
C      1  0.4971870000000  0.4885760000000  0.4551760000000 1.0
C      1  0.4873690000000  0.5415870000000  0.4767930000000 1.0
C      1  0.4439920000000  0.4384400000000  0.5432860000000 1.0
C      1  0.5240480000000  0.4670960000000  0.4903320000000 1.0
C      1  0.4639650000000  0.5519650000000  0.5808620000000 1.0
C      1  0.4878300000000  0.5123890000000  0.5318100000000 1.0
C      1  0.4078070000000  0.5071720000000  0.5254380000000 1.0
C      1  0.5596430000000  0.5095920000000  0.4338040000000 1.0
C      1  0.5364400000000  0.4092530000000  0.5140720000000 1.0
C      1  0.4680880000000  0.5209590000000  0.5140950000000 1.0
C      1  0.5131100000000  0.5287570000000  0.4236720000000 1.0
C      1  0.4907680000000  0.4802200000000  0.4292340000000 1.0
C      1  0.5414620000000  0.5311750000000  0.4299160000000 1.0
C      1  0.4421210000000  0.5102520000000  0.4493520000000 1.0
C      1  0.4542400000000  0.6000840000000  0.6026170000000 1.0
C      1  0.3892670000000  0.5258080000000  0.5286440000000 1.0
C      1  0.4769720000000  0.4708550000000  0.4925150000000 1.0
C      1  0.5791200000000  0.4982990000000  0.5372800000000 1.0
C      1  0.5289220000000  0.5175120000000  0.4767690000000 1.0
C      1  0.4462680000000  0.4860310000000  0.5474820000000 1.0
C      1  0.5174530000000  0.5905510000000  0.4866670000000 1.0
C      1  0.3712510000000  0.5448990000000  0.5323140000000 1.0
C      1  0.3535670000000  0.5637020000000  0.5359710000000 1.0
C      1  0.4578270000000  0.4604110000000  0.5537770000000 1.0
C      1  0.4461150000000  0.4301110000000  0.5167260000000 1.0
C      1  0.5548140000000  0.4518130000000  0.5372040000000 1.0
C      1  0.4716420000000  0.4229240000000  0.4647930000000 1.0
C      1  0.5602370000000  0.5625980000000  0.4909840000000 1.0
C      1  0.4979300000000  0.4514660000000  0.4910510000000 1.0
C      1  0.5108880000000  0.4697830000000  0.5628640000000 1.0
C      1  0.5468190000000  0.5192530000000  0.4980430000000 1.0
C      1  0.5136760000000  0.5537780000000  0.5601060000000 1.0
C      1  0.4470900000000  0.4385900000000  0.4678140000000 1.0
C      1  0.5040870000000  0.5980960000000  0.4642120000000 1.0
C      1  0.5379830000000  0.5125510000000  0.5667020000000 1.0
C      1  0.4295120000000  0.4892330000000  0.5227070000000 1.0
C      1  0.5729930000000  0.4673900000000  0.4940280000000 1.0
C      1  0.5331030000000  0.5246660000000  0.5228430000000 1.0
C      1  0.5797940000000  0.4905390000000  0.4782270000000 1.0
C      1  0.5669380000000  0.5610890000000  0.4622940000000 1.0
END
