TITL C-599892-9790-1441 6.82015979656575e-05 125000 -247.786331710382 0 0 42 (C1) n - 1
REM
REM in /home/nfs/bkarasulu/CARBON/AIRSS/Generating-Clusters/TERSOFF/Only-C1/FIRE-HFTN
REM
REM
REM
REM
REM
REM ./C.cell (11c1c37f851c82e70ff6c80c92926a4b)
REM AIRSS Version 0.9.1 bugfix July 2018 build 013d7b7c2542+ Fri, 06 Jul 2018 19:26:36 +0100
REM compiler GCC version 9.2.1 20190827 (Red Hat 9.2.1-1)
REM options -cpp -mtune=generic -march=x86-64 -g -O0 -fpre-include=/usr/include/finclude/math-vector-fortran.h
REM seed -1524605881 1292021991 -1707876010 106581072 -815497142 -163656532 1406725118 -1832909891 1133352300 13692947 -2118875774 361008240 144103370 -1995628398 359914295 120038460 1907801519 -519822466 -1408445607 1468197492 -367734218 816968948 -2062012315 1906775060 -1776531903 -215970954 -319590472 1211256825 -1541428290 2014182005 -574753281 -893344856 -854165893
REM
CELL 1.54180   50.00000   50.00000   50.00000   90.00000   90.00000   90.00000
LATT -1
SFAC C  
C      1  0.5175810000000  0.4844740000000  0.4444360000000 1.0
C      1  0.4792850000000  0.5609650000000  0.4774780000000 1.0
C      1  0.5514480000000  0.4548980000000  0.5002460000000 1.0
C      1  0.4823240000000  0.4887090000000  0.4958300000000 1.0
C      1  0.5187110000000  0.5509780000000  0.5033520000000 1.0
C      1  0.4880690000000  0.5325410000000  0.4373550000000 1.0
C      1  0.5174920000000  0.5057990000000  0.4630810000000 1.0
C      1  0.4708720000000  0.4750940000000  0.4431060000000 1.0
C      1  0.4546150000000  0.5259220000000  0.5494950000000 1.0
C      1  0.5140040000000  0.4945580000000  0.5346830000000 1.0
C      1  0.4958020000000  0.5452110000000  0.5762670000000 1.0
C      1  0.5092100000000  0.4974910000000  0.4889000000000 1.0
C      1  0.4447740000000  0.5271660000000  0.5238920000000 1.0
C      1  0.5153940000000  0.4449010000000  0.5296620000000 1.0
C      1  0.4537210000000  0.4963180000000  0.4847110000000 1.0
C      1  0.4797930000000  0.5621310000000  0.5273570000000 1.0
C      1  0.5003440000000  0.4684530000000  0.5351190000000 1.0
C      1  0.4581510000000  0.5418890000000  0.4737540000000 1.0
C      1  0.4485670000000  0.5247060000000  0.4955860000000 1.0
C      1  0.5103410000000  0.3727770000000  0.4824670000000 1.0
C      1  0.5349570000000  0.5652040000000  0.5481390000000 1.0
C      1  0.5381290000000  0.5628180000000  0.5209290000000 1.0
C      1  0.4576910000000  0.4975210000000  0.4546310000000 1.0
C      1  0.5073490000000  0.5522650000000  0.4770170000000 1.0
C      1  0.5536010000000  0.4827240000000  0.5050470000000 1.0
C      1  0.4972270000000  0.4644790000000  0.4462110000000 1.0
C      1  0.5147270000000  0.4266100000000  0.4829660000000 1.0
C      1  0.4773830000000  0.4703930000000  0.5187180000000 1.0
C      1  0.4983620000000  0.5420740000000  0.5218150000000 1.0
C      1  0.5182620000000  0.5591740000000  0.5688470000000 1.0
C      1  0.5104950000000  0.5324570000000  0.4557670000000 1.0
C      1  0.5287470000000  0.4953660000000  0.5098160000000 1.0
C      1  0.5034330000000  0.4417170000000  0.4617700000000 1.0
C      1  0.5777540000000  0.4963870000000  0.5049970000000 1.0
C      1  0.5995830000000  0.5106210000000  0.5050510000000 1.0
C      1  0.4999080000000  0.5187880000000  0.5393430000000 1.0
C      1  0.5124840000000  0.3987500000000  0.4825320000000 1.0
C      1  0.4503780000000  0.4617520000000  0.5174590000000 1.0
C      1  0.5284130000000  0.4390530000000  0.5048590000000 1.0
C      1  0.4628350000000  0.5257060000000  0.4492070000000 1.0
C      1  0.4366110000000  0.4752200000000  0.4976060000000 1.0
C      1  0.4811730000000  0.5259390000000  0.5604950000000 1.0
END
