TITL C-599891-72-528 0.0239872029130738 125000 -732.667958613061 0 0 120 (C1) n - 1
REM
REM in /home/nfs/bkarasulu/CARBON/AIRSS/Generating-Clusters/TERSOFF/Only-C1/FIRE-HFTN
REM
REM
REM
REM
REM
REM ./C.cell (11c1c37f851c82e70ff6c80c92926a4b)
REM AIRSS Version 0.9.1 bugfix July 2018 build 013d7b7c2542+ Fri, 06 Jul 2018 19:26:36 +0100
REM compiler GCC version 9.2.1 20190827 (Red Hat 9.2.1-1)
REM options -cpp -mtune=generic -march=x86-64 -g -O0 -fpre-include=/usr/include/finclude/math-vector-fortran.h
REM seed 1342391881 683170146 -1122199819 -1028879067 -928574580 -1007077784 1534608138 -1158790774 2014750014 1301612194 -720544270 -1283142666 1001746388 1054663522 -789241185 562212451 -872750506 342233234 -321785004 -2106493886 2087141680 1364699212 -770098303 -1441946254 2056054192 829545344 297652800 1043216227 -1430827015 1676850716 1830545148 1768191828 -228016154
REM
CELL 1.54180   50.00000   50.00000   50.00000   90.00000   90.00000   90.00000
LATT -1
SFAC C  
C      1  0.5564600000000  0.5843330000000  0.5006030000000 1.0
C      1  0.4808670000000  0.4802120000000  0.4631130000000 1.0
C      1  0.4140430000000  0.4525870000000  0.4778190000000 1.0
C      1  0.4931830000000  0.5678490000000  0.4324760000000 1.0
C      1  0.5328720000000  0.5100120000000  0.5380840000000 1.0
C      1  0.4909750000000  0.4525760000000  0.5238580000000 1.0
C      1  0.5554040000000  0.4541570000000  0.4875870000000 1.0
C      1  0.5226920000000  0.5460390000000  0.4680290000000 1.0
C      1  0.4680340000000  0.5606150000000  0.4446980000000 1.0
C      1  0.4890810000000  0.4005060000000  0.4832420000000 1.0
C      1  0.5499240000000  0.5401640000000  0.4688020000000 1.0
C      1  0.5960220000000  0.5529770000000  0.5064730000000 1.0
C      1  0.6126980000000  0.4899780000000  0.4384090000000 1.0
C      1  0.5128960000000  0.5680510000000  0.4524160000000 1.0
C      1  0.4469870000000  0.5122740000000  0.4729710000000 1.0
C      1  0.5728090000000  0.5662140000000  0.5176640000000 1.0
C      1  0.5116700000000  0.4502520000000  0.4836690000000 1.0
C      1  0.5492120000000  0.4821290000000  0.4810150000000 1.0
C      1  0.5014720000000  0.4982230000000  0.4543250000000 1.0
C      1  0.4627990000000  0.4265520000000  0.4492890000000 1.0
C      1  0.5073010000000  0.5101510000000  0.4970190000000 1.0
C      1  0.5578040000000  0.4483940000000  0.5167360000000 1.0
C      1  0.5085250000000  0.5382610000000  0.4926990000000 1.0
C      1  0.4242980000000  0.4802020000000  0.5264730000000 1.0
C      1  0.4914110000000  0.4985000000000  0.5182410000000 1.0
C      1  0.5968790000000  0.5464770000000  0.4593810000000 1.0
C      1  0.4950180000000  0.5589500000000  0.5076820000000 1.0
C      1  0.5087530000000  0.4283140000000  0.5718470000000 1.0
C      1  0.5574850000000  0.5258160000000  0.4913540000000 1.0
C      1  0.3953800000000  0.4674600000000  0.4661620000000 1.0
C      1  0.5956750000000  0.5546050000000  0.5763380000000 1.0
C      1  0.6120970000000  0.4911200000000  0.4652130000000 1.0
C      1  0.4645330000000  0.4139410000000  0.4760290000000 1.0
C      1  0.5354370000000  0.4790050000000  0.5918190000000 1.0
C      1  0.5083460000000  0.4759900000000  0.5814400000000 1.0
C      1  0.4949230000000  0.4574840000000  0.4169300000000 1.0
C      1  0.5081530000000  0.5083260000000  0.3975300000000 1.0
C      1  0.4647780000000  0.5631250000000  0.4733780000000 1.0
C      1  0.4359400000000  0.5292770000000  0.4285700000000 1.0
C      1  0.4690270000000  0.5984430000000  0.5547820000000 1.0
C      1  0.4566400000000  0.4216520000000  0.5276110000000 1.0
C      1  0.5078450000000  0.5351770000000  0.5993840000000 1.0
C      1  0.5615110000000  0.5524410000000  0.5408700000000 1.0
C      1  0.4030440000000  0.4155260000000  0.5778330000000 1.0
C      1  0.3851630000000  0.5356630000000  0.4801860000000 1.0
C      1  0.5218140000000  0.4956320000000  0.4756480000000 1.0
C      1  0.4701090000000  0.5698900000000  0.5496810000000 1.0
C      1  0.4912290000000  0.4844500000000  0.4030960000000 1.0
C      1  0.5560910000000  0.5809970000000  0.4273690000000 1.0
C      1  0.5143850000000  0.4561690000000  0.5095080000000 1.0
C      1  0.4869000000000  0.5180850000000  0.4395810000000 1.0
C      1  0.3931100000000  0.5190550000000  0.4583060000000 1.0
C      1  0.5309970000000  0.4270700000000  0.5538370000000 1.0
C      1  0.5441010000000  0.4655580000000  0.6146020000000 1.0
C      1  0.5613310000000  0.5525240000000  0.4239440000000 1.0
C      1  0.5025780000000  0.4063450000000  0.5870780000000 1.0
C      1  0.5428990000000  0.4257160000000  0.5278010000000 1.0
C      1  0.4452870000000  0.4703150000000  0.5117950000000 1.0
C      1  0.4253190000000  0.4237320000000  0.5660760000000 1.0
C      1  0.4885080000000  0.5210110000000  0.5845640000000 1.0
C      1  0.4481780000000  0.4333950000000  0.5531510000000 1.0
C      1  0.5347530000000  0.5367100000000  0.5987680000000 1.0
C      1  0.4871790000000  0.5787120000000  0.4876790000000 1.0
C      1  0.4527510000000  0.5379070000000  0.4870550000000 1.0
C      1  0.4109530000000  0.5276680000000  0.4382100000000 1.0
C      1  0.5515830000000  0.4518250000000  0.6354460000000 1.0
C      1  0.4096340000000  0.5255980000000  0.5274950000000 1.0
C      1  0.4513450000000  0.4745210000000  0.4307240000000 1.0
C      1  0.4629020000000  0.5341350000000  0.4350820000000 1.0
C      1  0.4680480000000  0.4483500000000  0.4303780000000 1.0
C      1  0.6023410000000  0.4996910000000  0.4157420000000 1.0
C      1  0.3869290000000  0.4917190000000  0.4593200000000 1.0
C      1  0.4901750000000  0.4553900000000  0.4694820000000 1.0
C      1  0.4368770000000  0.5239450000000  0.5350360000000 1.0
C      1  0.4479320000000  0.5112490000000  0.5594840000000 1.0
C      1  0.4541560000000  0.5377280000000  0.5165170000000 1.0
C      1  0.4543560000000  0.4886070000000  0.4568730000000 1.0
C      1  0.5001600000000  0.4064630000000  0.5102800000000 1.0
C      1  0.4483540000000  0.4240810000000  0.4989740000000 1.0
C      1  0.5111670000000  0.5887500000000  0.4735740000000 1.0
C      1  0.5485840000000  0.4328740000000  0.4684630000000 1.0
C      1  0.5718740000000  0.5447510000000  0.5669820000000 1.0
C      1  0.4510100000000  0.5789970000000  0.5915130000000 1.0
C      1  0.4574210000000  0.6032630000000  0.5795860000000 1.0
C      1  0.4986240000000  0.4995710000000  0.5692510000000 1.0
C      1  0.5700250000000  0.5008950000000  0.4884060000000 1.0
C      1  0.3693510000000  0.5575440000000  0.4755730000000 1.0
C      1  0.4626390000000  0.5295540000000  0.5766730000000 1.0
C      1  0.4639770000000  0.4555950000000  0.5659040000000 1.0
C      1  0.5202390000000  0.4470710000000  0.4248930000000 1.0
C      1  0.5130500000000  0.3970910000000  0.4671780000000 1.0
C      1  0.4620780000000  0.4882930000000  0.4069410000000 1.0
C      1  0.5531030000000  0.4971290000000  0.5770350000000 1.0
C      1  0.5399180000000  0.4398930000000  0.4419960000000 1.0
C      1  0.4928810000000  0.4523630000000  0.5747510000000 1.0
C      1  0.6032140000000  0.5353370000000  0.4849780000000 1.0
C      1  0.4363590000000  0.4493700000000  0.4941920000000 1.0
C      1  0.5980850000000  0.5061670000000  0.4844810000000 1.0
C      1  0.5367780000000  0.4089220000000  0.4797720000000 1.0
C      1  0.4732590000000  0.4752040000000  0.5183440000000 1.0
C      1  0.3810600000000  0.4075360000000  0.5893430000000 1.0
C      1  0.5628340000000  0.4701540000000  0.5344840000000 1.0
C      1  0.5360370000000  0.5125660000000  0.4025040000000 1.0
C      1  0.5593180000000  0.5287460000000  0.4070980000000 1.0
C      1  0.5525850000000  0.4920790000000  0.5486550000000 1.0
C      1  0.4847630000000  0.4247830000000  0.5256840000000 1.0
C      1  0.3934260000000  0.5295570000000  0.5065080000000 1.0
C      1  0.5560630000000  0.5258850000000  0.5832960000000 1.0
C      1  0.5390470000000  0.5369010000000  0.5344360000000 1.0
C      1  0.4519260000000  0.4826450000000  0.5653050000000 1.0
C      1  0.5702800000000  0.5454060000000  0.4501070000000 1.0
C      1  0.4960400000000  0.5341630000000  0.3931360000000 1.0
C      1  0.4749000000000  0.5545780000000  0.5268140000000 1.0
C      1  0.4589560000000  0.5572130000000  0.5742540000000 1.0
C      1  0.5405900000000  0.5941380000000  0.4775890000000 1.0
C      1  0.5838900000000  0.5148370000000  0.4036600000000 1.0
C      1  0.5056620000000  0.5032500000000  0.5423890000000 1.0
C      1  0.4966000000000  0.5581460000000  0.4059740000000 1.0
C      1  0.5295300000000  0.4091190000000  0.5086390000000 1.0
C      1  0.5535250000000  0.5954180000000  0.4510090000000 1.0
END
