TITL C-599893-4344-1174 1.40325107468987 125000 -492.072415209445 0 0 83 (C1) n - 1
REM
REM in /home/nfs/bkarasulu/CARBON/AIRSS/Generating-Clusters/TERSOFF/Only-C1/FIRE-HFTN
REM
REM
REM
REM
REM
REM ./C.cell (11c1c37f851c82e70ff6c80c92926a4b)
REM AIRSS Version 0.9.1 bugfix July 2018 build 013d7b7c2542+ Fri, 06 Jul 2018 19:26:36 +0100
REM compiler GCC version 9.2.1 20190827 (Red Hat 9.2.1-1)
REM options -cpp -mtune=generic -march=x86-64 -g -O0 -fpre-include=/usr/include/finclude/math-vector-fortran.h
REM seed -765139581 579353865 1190964000 -280904710 1004572919 2059283567 -1446864361 -862589424 -2080689769 255316697 852061807 2138988286 1650876158 346873084 -916581128 2045400060 -555633607 1371066969 -355021714 -898154587 -1515626516 -564051314 619077353 -1831911026 -140828711 -1402467499 -1074456074 827692085 495041313 -1067110144 -1532809502 -1658719349 2003197035
REM
CELL 1.54180   50.00000   50.00000   50.00000   90.00000   90.00000   90.00000
LATT -1
SFAC C  
C      1  0.5461920000000  0.5150580000000  0.4637960000000 1.0
C      1  0.5074710000000  0.3908230000000  0.4425760000000 1.0
C      1  0.5498450000000  0.4933740000000  0.5354770000000 1.0
C      1  0.4988750000000  0.4742320000000  0.4294010000000 1.0
C      1  0.4905760000000  0.6069320000000  0.5611210000000 1.0
C      1  0.4361300000000  0.5450230000000  0.4174310000000 1.0
C      1  0.4337280000000  0.4652120000000  0.4595220000000 1.0
C      1  0.5216450000000  0.4166130000000  0.5011120000000 1.0
C      1  0.4673800000000  0.5253530000000  0.5147690000000 1.0
C      1  0.4580150000000  0.4961470000000  0.4108580000000 1.0
C      1  0.5190550000000  0.4619650000000  0.4715400000000 1.0
C      1  0.6034850000000  0.4655090000000  0.5461480000000 1.0
C      1  0.3991620000000  0.4797200000000  0.4936410000000 1.0
C      1  0.6124520000000  0.4745650000000  0.4734720000000 1.0
C      1  0.5649350000000  0.4452690000000  0.4468040000000 1.0
C      1  0.5912010000000  0.4713590000000  0.5690620000000 1.0
C      1  0.4839910000000  0.3506520000000  0.4181250000000 1.0
C      1  0.5341520000000  0.5589220000000  0.5263250000000 1.0
C      1  0.4439190000000  0.4893670000000  0.4710190000000 1.0
C      1  0.4369830000000  0.5797310000000  0.4880760000000 1.0
C      1  0.4702430000000  0.4735200000000  0.4230900000000 1.0
C      1  0.5217970000000  0.4564440000000  0.4263370000000 1.0
C      1  0.4480310000000  0.5636290000000  0.3996570000000 1.0
C      1  0.5493720000000  0.4671680000000  0.4341020000000 1.0
C      1  0.4422490000000  0.5178130000000  0.4126310000000 1.0
C      1  0.5377920000000  0.4120960000000  0.4776370000000 1.0
C      1  0.4271250000000  0.5549890000000  0.4422460000000 1.0
C      1  0.5328590000000  0.4777460000000  0.5181280000000 1.0
C      1  0.5192180000000  0.4122710000000  0.4551930000000 1.0
C      1  0.5126400000000  0.4658440000000  0.5346500000000 1.0
C      1  0.4540650000000  0.5472000000000  0.5675960000000 1.0
C      1  0.4986860000000  0.5965370000000  0.4774100000000 1.0
C      1  0.5103240000000  0.5727050000000  0.4740680000000 1.0
C      1  0.4636900000000  0.5801480000000  0.5310410000000 1.0
C      1  0.4646320000000  0.5222220000000  0.5762650000000 1.0
C      1  0.4488220000000  0.5580970000000  0.5419310000000 1.0
C      1  0.4878680000000  0.5016130000000  0.4675230000000 1.0
C      1  0.5455390000000  0.4832960000000  0.5623790000000 1.0
C      1  0.4773290000000  0.6049190000000  0.4913180000000 1.0
C      1  0.4258980000000  0.5103880000000  0.4744150000000 1.0
C      1  0.4089820000000  0.5071550000000  0.4973130000000 1.0
C      1  0.4572330000000  0.5902720000000  0.5047810000000 1.0
C      1  0.5467900000000  0.5378640000000  0.5116000000000 1.0
C      1  0.5389880000000  0.4687140000000  0.4920480000000 1.0
C      1  0.4988960000000  0.4303150000000  0.5084900000000 1.0
C      1  0.5614900000000  0.4252020000000  0.4659720000000 1.0
C      1  0.4710180000000  0.5176250000000  0.6029640000000 1.0
C      1  0.4716530000000  0.5003720000000  0.5284820000000 1.0
C      1  0.5946360000000  0.4687950000000  0.4934060000000 1.0
C      1  0.5647350000000  0.4867870000000  0.6077760000000 1.0
C      1  0.5649600000000  0.5130170000000  0.6156500000000 1.0
C      1  0.4859460000000  0.5249510000000  0.4519600000000 1.0
C      1  0.5131280000000  0.5726920000000  0.5359040000000 1.0
C      1  0.5104980000000  0.5464020000000  0.4841380000000 1.0
C      1  0.4893090000000  0.5865850000000  0.5427390000000 1.0
C      1  0.4745200000000  0.4784130000000  0.5099940000000 1.0
C      1  0.4508710000000  0.4572130000000  0.4379510000000 1.0
C      1  0.4940120000000  0.5588480000000  0.4128620000000 1.0
C      1  0.5076370000000  0.4580830000000  0.5837540000000 1.0
C      1  0.5670410000000  0.4677730000000  0.4881040000000 1.0
C      1  0.5359130000000  0.5322970000000  0.4850920000000 1.0
C      1  0.4912450000000  0.4561120000000  0.5187690000000 1.0
C      1  0.4819750000000  0.5116340000000  0.6263280000000 1.0
C      1  0.4881450000000  0.5374880000000  0.4997710000000 1.0
C      1  0.5102130000000  0.4974780000000  0.6683410000000 1.0
C      1  0.6037230000000  0.4644460000000  0.5195810000000 1.0
C      1  0.4282710000000  0.5678950000000  0.4656800000000 1.0
C      1  0.4743120000000  0.5694390000000  0.3979540000000 1.0
C      1  0.5595220000000  0.5176390000000  0.5261590000000 1.0
C      1  0.4426100000000  0.5377640000000  0.5228020000000 1.0
C      1  0.5671040000000  0.4804500000000  0.5802790000000 1.0
C      1  0.4951810000000  0.5412780000000  0.4329500000000 1.0
C      1  0.4957450000000  0.5046040000000  0.6478590000000 1.0
C      1  0.5169650000000  0.4397580000000  0.4505320000000 1.0
C      1  0.5205780000000  0.4682280000000  0.5621780000000 1.0
C      1  0.5621680000000  0.4666260000000  0.6261340000000 1.0
C      1  0.4177210000000  0.5244960000000  0.5179730000000 1.0
C      1  0.4685790000000  0.4889840000000  0.4836130000000 1.0
C      1  0.4091850000000  0.4613100000000  0.4749580000000 1.0
C      1  0.4698090000000  0.5025010000000  0.5564550000000 1.0
C      1  0.4956680000000  0.3705520000000  0.4302620000000 1.0
C      1  0.5511110000000  0.4947180000000  0.4454610000000 1.0
C      1  0.5045480000000  0.4827530000000  0.4570880000000 1.0
END
