TITL C-599890-3321-519 0.00309096934825279 125000 -233.168793953221 0 0 40 (C1) n - 1
REM
REM in /home/nfs/bkarasulu/CARBON/AIRSS/Generating-Clusters/TERSOFF/Only-C1/FIRE-HFTN
REM
REM
REM
REM
REM
REM ./C.cell (11c1c37f851c82e70ff6c80c92926a4b)
REM AIRSS Version 0.9.1 bugfix July 2018 build 013d7b7c2542+ Fri, 06 Jul 2018 19:26:36 +0100
REM compiler GCC version 9.2.1 20190827 (Red Hat 9.2.1-1)
REM options -cpp -mtune=generic -march=x86-64 -g -O0 -fpre-include=/usr/include/finclude/math-vector-fortran.h
REM seed -1394415163 208394014 -1345248688 -36302022 13433561 277339298 640887481 -430488631 376885606 -685588523 -525556176 -1747982023 -1569811601 1868503033 -23928683 -1512129130 -1636205971 658499550 1795764137 982689793 1058800339 534156110 1154096836 709186702 1272644523 389642720 -933482006 2066152921 -1829130073 939644077 -2136547254 -497657956 -506326357
REM
CELL 1.54180   50.00000   50.00000   50.00000   90.00000   90.00000   90.00000
LATT -1
SFAC C  
C      1  0.5169090000000  0.4660510000000  0.4797640000000 1.0
C      1  0.5084470000000  0.5458380000000  0.5157850000000 1.0
C      1  0.6120040000000  0.5176270000000  0.5263530000000 1.0
C      1  0.4667820000000  0.5009680000000  0.4807380000000 1.0
C      1  0.5033840000000  0.5181540000000  0.5155760000000 1.0
C      1  0.4901770000000  0.3996440000000  0.5355750000000 1.0
C      1  0.4153330000000  0.5044170000000  0.4238710000000 1.0
C      1  0.4528800000000  0.4985470000000  0.5287990000000 1.0
C      1  0.4395460000000  0.5117030000000  0.4154440000000 1.0
C      1  0.5395610000000  0.4547410000000  0.5365620000000 1.0
C      1  0.4896500000000  0.5023130000000  0.5657510000000 1.0
C      1  0.5052360000000  0.4654740000000  0.5059490000000 1.0
C      1  0.5384750000000  0.4974720000000  0.5577710000000 1.0
C      1  0.5571960000000  0.4877550000000  0.4890690000000 1.0
C      1  0.4012160000000  0.4980510000000  0.4455980000000 1.0
C      1  0.5137470000000  0.4930610000000  0.4671460000000 1.0
C      1  0.4645880000000  0.5179590000000  0.4219030000000 1.0
C      1  0.5151600000000  0.5582840000000  0.5405480000000 1.0
C      1  0.5504030000000  0.4809400000000  0.5381380000000 1.0
C      1  0.4034610000000  0.4947450000000  0.4719730000000 1.0
C      1  0.5395750000000  0.5057840000000  0.4738160000000 1.0
C      1  0.4778500000000  0.3772650000000  0.5407550000000 1.0
C      1  0.5660590000000  0.4912460000000  0.5160440000000 1.0
C      1  0.5182610000000  0.5408040000000  0.5624280000000 1.0
C      1  0.5026870000000  0.4223900000000  0.5302810000000 1.0
C      1  0.5039730000000  0.5600990000000  0.4651920000000 1.0
C      1  0.5160490000000  0.5128390000000  0.5655900000000 1.0
C      1  0.4883210000000  0.5048680000000  0.4625130000000 1.0
C      1  0.5001790000000  0.4915780000000  0.5156780000000 1.0
C      1  0.5900060000000  0.5046370000000  0.5212050000000 1.0
C      1  0.4990080000000  0.5476340000000  0.4405700000000 1.0
C      1  0.4205200000000  0.4951160000000  0.4924380000000 1.0
C      1  0.4470550000000  0.4982610000000  0.5010760000000 1.0
C      1  0.5153460000000  0.4463710000000  0.5245280000000 1.0
C      1  0.5081200000000  0.5584530000000  0.4171860000000 1.0
C      1  0.5459190000000  0.4617850000000  0.4811620000000 1.0
C      1  0.4845920000000  0.5230540000000  0.4408120000000 1.0
C      1  0.5183180000000  0.5852590000000  0.5430720000000 1.0
C      1  0.4668420000000  0.4991070000000  0.5517720000000 1.0
C      1  0.5071670000000  0.5597060000000  0.4915690000000 1.0
END
