TITL C-599890-3321-1053 53.2984625889282 125000 -1159.07939530499 0 0 189 (C1) n - 1
REM
REM in /home/nfs/bkarasulu/CARBON/AIRSS/Generating-Clusters/TERSOFF/Only-C1/FIRE-HFTN
REM
REM
REM
REM
REM
REM ./C.cell (11c1c37f851c82e70ff6c80c92926a4b)
REM AIRSS Version 0.9.1 bugfix July 2018 build 013d7b7c2542+ Fri, 06 Jul 2018 19:26:36 +0100
REM compiler GCC version 9.2.1 20190827 (Red Hat 9.2.1-1)
REM options -cpp -mtune=generic -march=x86-64 -g -O0 -fpre-include=/usr/include/finclude/math-vector-fortran.h
REM seed -2081600203 956644234 -368937360 749649982 -1271698023 1009064871 -1103725786 296136569 1931117361 1628077670 433226336 560311522 2045921934 -1236358328 -167049034 1539270581 1500605840 -1590498194 781608507 -472465398 271802273 -1146478580 423630075 -1111761521 156906656 -255838500 -1864631365 511614932 -1008697612 -714490954 -1836028222 1267423647 -850763726
REM
CELL 1.54180   50.00000   50.00000   50.00000   90.00000   90.00000   90.00000
LATT -1
SFAC C  
C      1  0.5464560000000  0.5664610000000  0.5077760000000 1.0
C      1  0.4616480000000  0.4884020000000  0.5770140000000 1.0
C      1  0.5929120000000  0.4712650000000  0.3982990000000 1.0
C      1  0.4542510000000  0.4394380000000  0.4235830000000 1.0
C      1  0.3693110000000  0.5110270000000  0.4911300000000 1.0
C      1  0.4634150000000  0.5537220000000  0.5868580000000 1.0
C      1  0.6224950000000  0.4781790000000  0.4374150000000 1.0
C      1  0.4465000000000  0.4120170000000  0.4692370000000 1.0
C      1  0.4353090000000  0.4951870000000  0.4797900000000 1.0
C      1  0.4040370000000  0.5399710000000  0.5510280000000 1.0
C      1  0.6146650000000  0.4490740000000  0.5293320000000 1.0
C      1  0.5241840000000  0.4881230000000  0.5642600000000 1.0
C      1  0.5269460000000  0.4398990000000  0.5501220000000 1.0
C      1  0.5057190000000  0.4108610000000  0.4306790000000 1.0
C      1  0.6485790000000  0.5728850000000  0.4258240000000 1.0
C      1  0.5333530000000  0.4250590000000  0.5739980000000 1.0
C      1  0.5545370000000  0.4791150000000  0.5275410000000 1.0
C      1  0.6096540000000  0.4967920000000  0.6050350000000 1.0
C      1  0.5364660000000  0.4678220000000  0.5478530000000 1.0
C      1  0.5008860000000  0.3670770000000  0.4522190000000 1.0
C      1  0.6111200000000  0.4484470000000  0.5558230000000 1.0
C      1  0.6277350000000  0.5311220000000  0.4380730000000 1.0
C      1  0.4337650000000  0.5861870000000  0.3955470000000 1.0
C      1  0.4450410000000  0.5607360000000  0.5648380000000 1.0
C      1  0.4704430000000  0.5260420000000  0.5474980000000 1.0
C      1  0.4005230000000  0.4235500000000  0.5312860000000 1.0
C      1  0.5590230000000  0.4478920000000  0.6079910000000 1.0
C      1  0.4606280000000  0.4548400000000  0.4901630000000 1.0
C      1  0.4186410000000  0.5494300000000  0.5732690000000 1.0
C      1  0.4557230000000  0.5021580000000  0.5531130000000 1.0
C      1  0.6700630000000  0.5871140000000  0.4219300000000 1.0
C      1  0.4501200000000  0.5332110000000  0.6046090000000 1.0
C      1  0.4150520000000  0.5144650000000  0.4818930000000 1.0
C      1  0.4329410000000  0.5038410000000  0.5365300000000 1.0
C      1  0.6308690000000  0.5048040000000  0.4410980000000 1.0
C      1  0.3828810000000  0.5211850000000  0.5427150000000 1.0
C      1  0.4719530000000  0.4576470000000  0.4355760000000 1.0
C      1  0.4211160000000  0.4140660000000  0.5478900000000 1.0
C      1  0.5349990000000  0.5973240000000  0.4490380000000 1.0
C      1  0.5672700000000  0.4791450000000  0.4069500000000 1.0
C      1  0.4893960000000  0.3909460000000  0.4429930000000 1.0
C      1  0.6066430000000  0.4653980000000  0.4575660000000 1.0
C      1  0.4201850000000  0.4196400000000  0.4621420000000 1.0
C      1  0.6050420000000  0.4509940000000  0.5831140000000 1.0
C      1  0.4950700000000  0.5298070000000  0.5613070000000 1.0
C      1  0.4698010000000  0.5150780000000  0.6162690000000 1.0
C      1  0.4942120000000  0.4063460000000  0.5226160000000 1.0
C      1  0.5007900000000  0.3792650000000  0.5172690000000 1.0
C      1  0.3988540000000  0.4385290000000  0.4628890000000 1.0
C      1  0.3992410000000  0.4993640000000  0.4181280000000 1.0
C      1  0.5496950000000  0.4968230000000  0.6040870000000 1.0
C      1  0.5858410000000  0.5182500000000  0.5132130000000 1.0
C      1  0.4117890000000  0.4851590000000  0.5349180000000 1.0
C      1  0.5817380000000  0.5799910000000  0.4461890000000 1.0
C      1  0.3850920000000  0.4397250000000  0.4873740000000 1.0
C      1  0.5060800000000  0.5466380000000  0.6078150000000 1.0
C      1  0.4685660000000  0.4671810000000  0.4621570000000 1.0
C      1  0.5317600000000  0.4576100000000  0.3818970000000 1.0
C      1  0.4655270000000  0.6141140000000  0.4657100000000 1.0
C      1  0.4180030000000  0.6058360000000  0.5280160000000 1.0
C      1  0.4520300000000  0.5407580000000  0.4602160000000 1.0
C      1  0.4067080000000  0.4530870000000  0.4164850000000 1.0
C      1  0.5094000000000  0.5281530000000  0.4829130000000 1.0
C      1  0.4777280000000  0.4640170000000  0.5132130000000 1.0
C      1  0.5663020000000  0.5171640000000  0.5920290000000 1.0
C      1  0.4724670000000  0.4428300000000  0.5625260000000 1.0
C      1  0.5451030000000  0.4812490000000  0.3893040000000 1.0
C      1  0.3964710000000  0.4591580000000  0.4435060000000 1.0
C      1  0.4889950000000  0.5709760000000  0.5012790000000 1.0
C      1  0.5295340000000  0.5891540000000  0.5052080000000 1.0
C      1  0.3875880000000  0.5100860000000  0.4667950000000 1.0
C      1  0.4586410000000  0.5749230000000  0.3933330000000 1.0
C      1  0.4413990000000  0.5993440000000  0.4704360000000 1.0
C      1  0.4589970000000  0.4947790000000  0.4629530000000 1.0
C      1  0.5205550000000  0.6045750000000  0.4738550000000 1.0
C      1  0.4546800000000  0.5444500000000  0.4882610000000 1.0
C      1  0.4261560000000  0.5332830000000  0.5292820000000 1.0
C      1  0.4993830000000  0.5282330000000  0.4547400000000 1.0
C      1  0.4095680000000  0.5367930000000  0.5033330000000 1.0
C      1  0.3913440000000  0.4885670000000  0.4452860000000 1.0
C      1  0.4341630000000  0.4705800000000  0.4950900000000 1.0
C      1  0.5085300000000  0.5054990000000  0.5231680000000 1.0
C      1  0.5674230000000  0.4832850000000  0.4804100000000 1.0
C      1  0.3968720000000  0.4437670000000  0.5124760000000 1.0
C      1  0.4240400000000  0.5764950000000  0.4699940000000 1.0
C      1  0.5827850000000  0.4388330000000  0.5955610000000 1.0
C      1  0.6167140000000  0.4700810000000  0.4108860000000 1.0
C      1  0.5093010000000  0.4158930000000  0.4032380000000 1.0
C      1  0.6092870000000  0.5342170000000  0.5757130000000 1.0
C      1  0.3993650000000  0.4604780000000  0.5857040000000 1.0
C      1  0.5819970000000  0.5748690000000  0.4733770000000 1.0
C      1  0.5791750000000  0.4724790000000  0.4563080000000 1.0
C      1  0.4111920000000  0.3903140000000  0.5885700000000 1.0
C      1  0.5189820000000  0.4288730000000  0.4476080000000 1.0
C      1  0.4080830000000  0.5440990000000  0.4362550000000 1.0
C      1  0.5051620000000  0.3599290000000  0.4994990000000 1.0
C      1  0.6252750000000  0.5579120000000  0.4299060000000 1.0
C      1  0.4635780000000  0.3972770000000  0.4524600000000 1.0
C      1  0.4405770000000  0.6190500000000  0.5334170000000 1.0
C      1  0.4099950000000  0.5253230000000  0.4152400000000 1.0
C      1  0.4103180000000  0.5668190000000  0.4941780000000 1.0
C      1  0.5950150000000  0.5179890000000  0.5939370000000 1.0
C      1  0.6105880000000  0.4085380000000  0.5053790000000 1.0
C      1  0.5173600000000  0.4239120000000  0.5276110000000 1.0
C      1  0.4663910000000  0.4125650000000  0.5165680000000 1.0
C      1  0.6157560000000  0.4502260000000  0.4795030000000 1.0
C      1  0.5659450000000  0.5059940000000  0.5305520000000 1.0
C      1  0.4162570000000  0.4141690000000  0.5759540000000 1.0
C      1  0.5175010000000  0.3248630000000  0.4687050000000 1.0
C      1  0.4139580000000  0.4661480000000  0.5145450000000 1.0
C      1  0.4034220000000  0.4769300000000  0.4010630000000 1.0
C      1  0.3853680000000  0.5369940000000  0.4524420000000 1.0
C      1  0.4656800000000  0.5384390000000  0.3542390000000 1.0
C      1  0.4159600000000  0.4383570000000  0.5913280000000 1.0
C      1  0.4798980000000  0.5838350000000  0.4100950000000 1.0
C      1  0.5737740000000  0.5300970000000  0.4898190000000 1.0
C      1  0.5080510000000  0.3500470000000  0.4733700000000 1.0
C      1  0.5371730000000  0.4224540000000  0.5070810000000 1.0
C      1  0.4964160000000  0.4841760000000  0.5105560000000 1.0
C      1  0.4847120000000  0.4905130000000  0.3968760000000 1.0
C      1  0.4917430000000  0.5478910000000  0.5830720000000 1.0
C      1  0.5280080000000  0.5622550000000  0.6142720000000 1.0
C      1  0.4869870000000  0.6169820000000  0.4836840000000 1.0
C      1  0.4928950000000  0.5290570000000  0.6260920000000 1.0
C      1  0.6145810000000  0.4364170000000  0.5040700000000 1.0
C      1  0.4725430000000  0.4544240000000  0.5391290000000 1.0
C      1  0.4665360000000  0.6228000000000  0.5282900000000 1.0
C      1  0.4853070000000  0.4742980000000  0.4173230000000 1.0
C      1  0.4708630000000  0.6210580000000  0.4390240000000 1.0
C      1  0.5521190000000  0.5290100000000  0.5425420000000 1.0
C      1  0.5599470000000  0.4745030000000  0.6181390000000 1.0
C      1  0.5681420000000  0.5582960000000  0.4907580000000 1.0
C      1  0.4326790000000  0.4399900000000  0.6131000000000 1.0
C      1  0.4632960000000  0.5553000000000  0.3739700000000 1.0
C      1  0.5644000000000  0.4855520000000  0.4343470000000 1.0
C      1  0.4700010000000  0.5192180000000  0.4534870000000 1.0
C      1  0.5551090000000  0.4684300000000  0.5008480000000 1.0
C      1  0.4759080000000  0.4906000000000  0.6017090000000 1.0
C      1  0.5331850000000  0.4380170000000  0.5994710000000 1.0
C      1  0.5501410000000  0.3993960000000  0.5004630000000 1.0
C      1  0.4984010000000  0.5653600000000  0.4213610000000 1.0
C      1  0.5626210000000  0.5889240000000  0.4055290000000 1.0
C      1  0.5106740000000  0.5084620000000  0.5510450000000 1.0
C      1  0.5179390000000  0.5273690000000  0.5089130000000 1.0
C      1  0.6003580000000  0.5702810000000  0.4258110000000 1.0
C      1  0.5035900000000  0.5906290000000  0.5172430000000 1.0
C      1  0.5870910000000  0.5768010000000  0.4008620000000 1.0
C      1  0.4057140000000  0.5081300000000  0.5961070000000 1.0
C      1  0.4295430000000  0.4372960000000  0.4135640000000 1.0
C      1  0.6008660000000  0.3893010000000  0.5211990000000 1.0
C      1  0.5243300000000  0.4907770000000  0.5922000000000 1.0
C      1  0.3802860000000  0.5253310000000  0.5137440000000 1.0
C      1  0.6166100000000  0.5353370000000  0.5499950000000 1.0
C      1  0.4457310000000  0.4075440000000  0.5355160000000 1.0
C      1  0.4876940000000  0.6146050000000  0.5120790000000 1.0
C      1  0.5150100000000  0.5510970000000  0.4034160000000 1.0
C      1  0.5491520000000  0.5077440000000  0.4462420000000 1.0
C      1  0.5356030000000  0.5070880000000  0.3833760000000 1.0
C      1  0.5610770000000  0.5111250000000  0.4730810000000 1.0
C      1  0.5296910000000  0.4443520000000  0.4661890000000 1.0
C      1  0.4058070000000  0.5866400000000  0.5139420000000 1.0
C      1  0.5018260000000  0.4776040000000  0.6046870000000 1.0
C      1  0.4583650000000  0.4249930000000  0.4916980000000 1.0
C      1  0.5222500000000  0.5145310000000  0.4409510000000 1.0
C      1  0.4986160000000  0.5585070000000  0.4493450000000 1.0
C      1  0.5091680000000  0.4503780000000  0.6094890000000 1.0
C      1  0.5196620000000  0.4342500000000  0.3866710000000 1.0
C      1  0.4225420000000  0.5308880000000  0.5957280000000 1.0
C      1  0.5367980000000  0.5437900000000  0.5228630000000 1.0
C      1  0.5655370000000  0.3857910000000  0.5589990000000 1.0
C      1  0.5263560000000  0.5314490000000  0.3893200000000 1.0
C      1  0.5464900000000  0.4004010000000  0.5706110000000 1.0
C      1  0.6166440000000  0.4719980000000  0.5978480000000 1.0
C      1  0.5723900000000  0.5882040000000  0.6250030000000 1.0
C      1  0.5341370000000  0.6319110000000  0.4795660000000 1.0
C      1  0.4980850000000  0.5738590000000  0.4731120000000 1.0
C      1  0.5573730000000  0.5909230000000  0.4338230000000 1.0
C      1  0.4951250000000  0.6283700000000  0.3978660000000 1.0
C      1  0.5851520000000  0.3817480000000  0.5413990000000 1.0
C      1  0.4660550000000  0.5572130000000  0.5103730000000 1.0
C      1  0.3901600000000  0.4942670000000  0.5516820000000 1.0
C      1  0.4822120000000  0.6117280000000  0.4152230000000 1.0
C      1  0.6093320000000  0.5273230000000  0.5254890000000 1.0
C      1  0.5408000000000  0.4457270000000  0.4917890000000 1.0
C      1  0.5553890000000  0.5320070000000  0.5702760000000 1.0
C      1  0.4297950000000  0.5557210000000  0.4504230000000 1.0
C      1  0.3947460000000  0.4876540000000  0.5794560000000 1.0
C      1  0.4533640000000  0.5488140000000  0.5367620000000 1.0
C      1  0.5498080000000  0.5760890000000  0.6202220000000 1.0
END
