TITL C-599895-9959-78 0.263713147491003 125000 -967.659879654176 0 0 155 (C1) n - 1
REM
REM in /home/nfs/bkarasulu/CARBON/AIRSS/Generating-Clusters/TERSOFF/Only-C1/FIRE-HFTN
REM
REM
REM
REM
REM
REM ./C.cell (11c1c37f851c82e70ff6c80c92926a4b)
REM AIRSS Version 0.9.1 bugfix July 2018 build 013d7b7c2542+ Fri, 06 Jul 2018 19:26:36 +0100
REM compiler GCC version 9.2.1 20190827 (Red Hat 9.2.1-1)
REM options -cpp -mtune=generic -march=x86-64 -g -O0 -fpre-include=/usr/include/finclude/math-vector-fortran.h
REM seed 1718047117 1187784325 315479018 2114477435 -851397082 -1278078009 -1454121464 598773996 -1909871590 830237799 312552657 357833114 294279894 1429008461 1570614002 1285537169 -516920833 -1931792879 -1158980741 -349326629 2052491806 1499545231 1128999368 -634935470 797994331 -314584495 663153179 923900135 -1322505701 1428982198 866996473 -1433752991 -614078614
REM
CELL 1.54180   50.00000   50.00000   50.00000   90.00000   90.00000   90.00000
LATT -1
SFAC C  
C      1  0.6128800000000  0.4890430000000  0.5067650000000 1.0
C      1  0.4291270000000  0.5501860000000  0.5253190000000 1.0
C      1  0.5167030000000  0.4224300000000  0.5914950000000 1.0
C      1  0.4391980000000  0.4039580000000  0.4765740000000 1.0
C      1  0.5817030000000  0.5020760000000  0.4692780000000 1.0
C      1  0.4549590000000  0.5317980000000  0.4053090000000 1.0
C      1  0.5662360000000  0.5780820000000  0.4470450000000 1.0
C      1  0.4892420000000  0.6134600000000  0.4407100000000 1.0
C      1  0.5423050000000  0.5268960000000  0.4534960000000 1.0
C      1  0.4905300000000  0.5646870000000  0.5970200000000 1.0
C      1  0.3923480000000  0.4906650000000  0.4666040000000 1.0
C      1  0.5438360000000  0.4235070000000  0.4949220000000 1.0
C      1  0.4470830000000  0.5457920000000  0.5493300000000 1.0
C      1  0.4769850000000  0.4465220000000  0.4687780000000 1.0
C      1  0.4317920000000  0.5405920000000  0.4208780000000 1.0
C      1  0.5596400000000  0.4472570000000  0.4921980000000 1.0
C      1  0.4285750000000  0.4554160000000  0.5101290000000 1.0
C      1  0.4966230000000  0.3425910000000  0.5183490000000 1.0
C      1  0.4724040000000  0.5335040000000  0.5424460000000 1.0
C      1  0.5740130000000  0.4375200000000  0.5628580000000 1.0
C      1  0.5789100000000  0.5358150000000  0.5744190000000 1.0
C      1  0.4019590000000  0.5348670000000  0.4753630000000 1.0
C      1  0.4908680000000  0.4829160000000  0.4946000000000 1.0
C      1  0.4875300000000  0.5329820000000  0.4888660000000 1.0
C      1  0.5910020000000  0.4273030000000  0.5417850000000 1.0
C      1  0.5226930000000  0.5712330000000  0.4383820000000 1.0
C      1  0.4401190000000  0.5310190000000  0.5753720000000 1.0
C      1  0.4751200000000  0.4118220000000  0.5154820000000 1.0
C      1  0.4629960000000  0.4501120000000  0.5446710000000 1.0
C      1  0.3912980000000  0.4457770000000  0.4820750000000 1.0
C      1  0.5657530000000  0.4634860000000  0.4466600000000 1.0
C      1  0.4764250000000  0.5434210000000  0.4197540000000 1.0
C      1  0.4616440000000  0.5240170000000  0.5945720000000 1.0
C      1  0.4631760000000  0.5097520000000  0.3890000000000 1.0
C      1  0.5400760000000  0.4945620000000  0.4944010000000 1.0
C      1  0.5074190000000  0.6021560000000  0.5638010000000 1.0
C      1  0.5165530000000  0.4368490000000  0.6140400000000 1.0
C      1  0.6157220000000  0.4606500000000  0.5059640000000 1.0
C      1  0.4758190000000  0.6413950000000  0.5610990000000 1.0
C      1  0.4906580000000  0.5417430000000  0.4626800000000 1.0
C      1  0.5263990000000  0.4608220000000  0.6210760000000 1.0
C      1  0.5253660000000  0.4235230000000  0.5647440000000 1.0
C      1  0.5964520000000  0.4017640000000  0.4806540000000 1.0
C      1  0.5744020000000  0.4456920000000  0.4671400000000 1.0
C      1  0.5120160000000  0.5181400000000  0.3977280000000 1.0
C      1  0.5330490000000  0.4075930000000  0.4753280000000 1.0
C      1  0.5295280000000  0.5168210000000  0.5445040000000 1.0
C      1  0.5033460000000  0.4400160000000  0.4607520000000 1.0
C      1  0.4332480000000  0.5635380000000  0.4994640000000 1.0
C      1  0.5573940000000  0.4708440000000  0.3886340000000 1.0
C      1  0.5164140000000  0.4814800000000  0.4833660000000 1.0
C      1  0.4946270000000  0.3956160000000  0.5282210000000 1.0
C      1  0.5829610000000  0.4978890000000  0.5434730000000 1.0
C      1  0.3758680000000  0.4510560000000  0.5057670000000 1.0
C      1  0.4381110000000  0.6166770000000  0.4982110000000 1.0
C      1  0.4423420000000  0.6762810000000  0.5817140000000 1.0
C      1  0.5032300000000  0.5345690000000  0.4191260000000 1.0
C      1  0.4745910000000  0.5066880000000  0.4931380000000 1.0
C      1  0.4214320000000  0.5086290000000  0.5696070000000 1.0
C      1  0.5223780000000  0.4924480000000  0.5610670000000 1.0
C      1  0.5412890000000  0.4699830000000  0.5516560000000 1.0
C      1  0.3877820000000  0.5238730000000  0.4283070000000 1.0
C      1  0.5405070000000  0.5222140000000  0.3927370000000 1.0
C      1  0.3939430000000  0.5164000000000  0.4542750000000 1.0
C      1  0.5201860000000  0.4134370000000  0.4243690000000 1.0
C      1  0.4870630000000  0.5368900000000  0.5984620000000 1.0
C      1  0.5679550000000  0.4717000000000  0.5997000000000 1.0
C      1  0.4925330000000  0.4754800000000  0.4113560000000 1.0
C      1  0.6082720000000  0.4436050000000  0.5258530000000 1.0
C      1  0.4396990000000  0.5494980000000  0.4487080000000 1.0
C      1  0.4308790000000  0.4479990000000  0.4516560000000 1.0
C      1  0.4094460000000  0.5287530000000  0.5239760000000 1.0
C      1  0.5256700000000  0.4982750000000  0.5905660000000 1.0
C      1  0.4505260000000  0.4744050000000  0.5892840000000 1.0
C      1  0.5789480000000  0.5417310000000  0.5251630000000 1.0
C      1  0.5931560000000  0.3924560000000  0.5056790000000 1.0
C      1  0.4926150000000  0.6226880000000  0.5495290000000 1.0
C      1  0.4915320000000  0.6380740000000  0.5018860000000 1.0
C      1  0.5474300000000  0.5689740000000  0.4959030000000 1.0
C      1  0.4751200000000  0.4401770000000  0.5201340000000 1.0
C      1  0.4054210000000  0.5366760000000  0.4127200000000 1.0
C      1  0.5151420000000  0.5972570000000  0.5174990000000 1.0
C      1  0.5068780000000  0.5937180000000  0.4417390000000 1.0
C      1  0.4113620000000  0.4663400000000  0.4677720000000 1.0
C      1  0.5526430000000  0.4447210000000  0.3945060000000 1.0
C      1  0.5196200000000  0.4714060000000  0.4196120000000 1.0
C      1  0.5619340000000  0.5283490000000  0.4316980000000 1.0
C      1  0.4955530000000  0.5467500000000  0.5345040000000 1.0
C      1  0.4474510000000  0.4976370000000  0.4996860000000 1.0
C      1  0.5454860000000  0.4423680000000  0.5582780000000 1.0
C      1  0.4589880000000  0.6589880000000  0.5715420000000 1.0
C      1  0.4708770000000  0.5044770000000  0.5427660000000 1.0
C      1  0.5204850000000  0.5431650000000  0.5482730000000 1.0
C      1  0.5809510000000  0.4874570000000  0.4440950000000 1.0
C      1  0.4707680000000  0.6315860000000  0.4375800000000 1.0
C      1  0.4192740000000  0.5081580000000  0.5406550000000 1.0
C      1  0.4279920000000  0.4200240000000  0.4580230000000 1.0
C      1  0.5626790000000  0.4792340000000  0.5342960000000 1.0
C      1  0.5577660000000  0.5608210000000  0.5227370000000 1.0
C      1  0.5733250000000  0.5038280000000  0.4222380000000 1.0
C      1  0.4399960000000  0.5907030000000  0.4992190000000 1.0
C      1  0.4954880000000  0.3681050000000  0.5235320000000 1.0
C      1  0.4590740000000  0.4544390000000  0.4467750000000 1.0
C      1  0.5412420000000  0.4796860000000  0.6060620000000 1.0
C      1  0.5997150000000  0.5089220000000  0.4904130000000 1.0
C      1  0.5589280000000  0.4980410000000  0.3969870000000 1.0
C      1  0.5523630000000  0.5451150000000  0.4100120000000 1.0
C      1  0.4780470000000  0.4568660000000  0.4962530000000 1.0
C      1  0.5820210000000  0.4530930000000  0.5855620000000 1.0
C      1  0.4952750000000  0.4120740000000  0.4105880000000 1.0
C      1  0.4307600000000  0.4756220000000  0.4896850000000 1.0
C      1  0.5132620000000  0.4074340000000  0.5454600000000 1.0
C      1  0.4724890000000  0.4560540000000  0.4204710000000 1.0
C      1  0.4375220000000  0.4640330000000  0.5367180000000 1.0
C      1  0.5678930000000  0.5705120000000  0.4747500000000 1.0
C      1  0.5538200000000  0.5106900000000  0.4740640000000 1.0
C      1  0.4254300000000  0.5508830000000  0.4738880000000 1.0
C      1  0.4982370000000  0.6201220000000  0.5211130000000 1.0
C      1  0.5789660000000  0.5254690000000  0.5485930000000 1.0
C      1  0.4164500000000  0.4619810000000  0.5582590000000 1.0
C      1  0.5159030000000  0.5422660000000  0.4460370000000 1.0
C      1  0.5417690000000  0.4244040000000  0.4089210000000 1.0
C      1  0.5175540000000  0.4164440000000  0.4531650000000 1.0
C      1  0.3815330000000  0.4980780000000  0.4936780000000 1.0
C      1  0.5912230000000  0.4231500000000  0.4651140000000 1.0
C      1  0.4562060000000  0.4015090000000  0.4971570000000 1.0
C      1  0.4992640000000  0.5522710000000  0.5066910000000 1.0
C      1  0.4756250000000  0.4304620000000  0.4080490000000 1.0
C      1  0.5920820000000  0.5569910000000  0.4820910000000 1.0
C      1  0.4613660000000  0.4964940000000  0.6030280000000 1.0
C      1  0.3942210000000  0.4459280000000  0.5526400000000 1.0
C      1  0.3936820000000  0.5234630000000  0.5011670000000 1.0
C      1  0.5338060000000  0.5112510000000  0.5174570000000 1.0
C      1  0.4930390000000  0.4897180000000  0.5530300000000 1.0
C      1  0.5574760000000  0.4723280000000  0.5065530000000 1.0
C      1  0.4242650000000  0.4808060000000  0.5785660000000 1.0
C      1  0.6094370000000  0.4939020000000  0.5347660000000 1.0
C      1  0.5374040000000  0.4663740000000  0.4411830000000 1.0
C      1  0.5386050000000  0.5651070000000  0.5443730000000 1.0
C      1  0.5883940000000  0.4013020000000  0.5307520000000 1.0
C      1  0.5484380000000  0.5705740000000  0.4251860000000 1.0
C      1  0.5943530000000  0.5359100000000  0.5011180000000 1.0
C      1  0.4895800000000  0.4988760000000  0.3948450000000 1.0
C      1  0.5253820000000  0.5902300000000  0.5445650000000 1.0
C      1  0.3670770000000  0.4780680000000  0.5067310000000 1.0
C      1  0.3800540000000  0.4389590000000  0.5308180000000 1.0
C      1  0.4984630000000  0.5876230000000  0.5858870000000 1.0
C      1  0.4654610000000  0.4550240000000  0.5732510000000 1.0
C      1  0.4682580000000  0.5495390000000  0.4470130000000 1.0
C      1  0.4475240000000  0.4995450000000  0.3690890000000 1.0
C      1  0.5780170000000  0.5453420000000  0.5986580000000 1.0
C      1  0.5184250000000  0.5744150000000  0.5000240000000 1.0
C      1  0.4445330000000  0.4941140000000  0.5304890000000 1.0
C      1  0.5205280000000  0.4624560000000  0.4633640000000 1.0
C      1  0.5098500000000  0.5197170000000  0.6005180000000 1.0
END
