TITL C-599890-3321-718 251.631191011782 125000 -1049.57623893245 0 0 171 (C1) n - 1
REM
REM in /home/nfs/bkarasulu/CARBON/AIRSS/Generating-Clusters/TERSOFF/Only-C1/FIRE-HFTN
REM
REM
REM
REM
REM
REM ./C.cell (11c1c37f851c82e70ff6c80c92926a4b)
REM AIRSS Version 0.9.1 bugfix July 2018 build 013d7b7c2542+ Fri, 06 Jul 2018 19:26:36 +0100
REM compiler GCC version 9.2.1 20190827 (Red Hat 9.2.1-1)
REM options -cpp -mtune=generic -march=x86-64 -g -O0 -fpre-include=/usr/include/finclude/math-vector-fortran.h
REM seed -134931230 512979345 1505879659 -1149225368 -220311877 449638324 588895443 460495921 624816458 -218844706 -27062931 -1085714900 -1252318130 1077486344 221234053 -1107318494 1727594876 943642766 -1733385011 -932853174 -340928308 -689243339 297102644 1623582057 -119196482 350540214 1245543096 1434976810 -1978317736 -1236783939 -1422609067 2007881607 1681556777
REM
CELL 1.54180   50.00000   50.00000   50.00000   90.00000   90.00000   90.00000
LATT -1
SFAC C  
C      1  0.5847740000000  0.5480130000000  0.4180540000000 1.0
C      1  0.4969980000000  0.4507340000000  0.5923920000000 1.0
C      1  0.4516980000000  0.5337800000000  0.5148670000000 1.0
C      1  0.4492270000000  0.5628100000000  0.3795320000000 1.0
C      1  0.5914580000000  0.5868320000000  0.5499380000000 1.0
C      1  0.3942690000000  0.3601920000000  0.4305420000000 1.0
C      1  0.5046670000000  0.5530110000000  0.5606390000000 1.0
C      1  0.5943110000000  0.4276880000000  0.4224550000000 1.0
C      1  0.4232900000000  0.4495660000000  0.5652300000000 1.0
C      1  0.4522000000000  0.5520880000000  0.4909760000000 1.0
C      1  0.4654110000000  0.5212310000000  0.5584220000000 1.0
C      1  0.3974900000000  0.4440680000000  0.5593750000000 1.0
C      1  0.5678740000000  0.4272440000000  0.4131500000000 1.0
C      1  0.5348690000000  0.5184050000000  0.5479060000000 1.0
C      1  0.5478640000000  0.4851500000000  0.4982550000000 1.0
C      1  0.4990620000000  0.5021850000000  0.4801330000000 1.0
C      1  0.5551090000000  0.5831140000000  0.4331560000000 1.0
C      1  0.5491560000000  0.4663160000000  0.3677090000000 1.0
C      1  0.5779220000000  0.5876730000000  0.5734900000000 1.0
C      1  0.4859440000000  0.5706310000000  0.6009210000000 1.0
C      1  0.4452120000000  0.3884120000000  0.4719050000000 1.0
C      1  0.5687830000000  0.4293860000000  0.4875440000000 1.0
C      1  0.4773590000000  0.5332930000000  0.4063560000000 1.0
C      1  0.5128330000000  0.5999950000000  0.4080270000000 1.0
C      1  0.5543320000000  0.5887440000000  0.5872140000000 1.0
C      1  0.5083570000000  0.3768340000000  0.5003710000000 1.0
C      1  0.4839970000000  0.5941760000000  0.4586080000000 1.0
C      1  0.5026750000000  0.4307900000000  0.5217720000000 1.0
C      1  0.5256670000000  0.4201510000000  0.5091000000000 1.0
C      1  0.4053130000000  0.5508260000000  0.5105040000000 1.0
C      1  0.5148920000000  0.5494600000000  0.4277360000000 1.0
C      1  0.5440970000000  0.4517090000000  0.5976870000000 1.0
C      1  0.5579790000000  0.5013270000000  0.4556210000000 1.0
C      1  0.5568140000000  0.5984970000000  0.4915750000000 1.0
C      1  0.5135800000000  0.5993340000000  0.4574720000000 1.0
C      1  0.4814370000000  0.3715530000000  0.5099420000000 1.0
C      1  0.4886770000000  0.3826570000000  0.5587200000000 1.0
C      1  0.5421830000000  0.5903170000000  0.5379270000000 1.0
C      1  0.4345810000000  0.5400300000000  0.3831120000000 1.0
C      1  0.6050770000000  0.4600130000000  0.4935420000000 1.0
C      1  0.4952000000000  0.4539150000000  0.5643830000000 1.0
C      1  0.5482390000000  0.5643780000000  0.5351520000000 1.0
C      1  0.5169380000000  0.4877920000000  0.4981730000000 1.0
C      1  0.3973510000000  0.5311010000000  0.5522820000000 1.0
C      1  0.4419310000000  0.5226910000000  0.5755260000000 1.0
C      1  0.5204040000000  0.4354770000000  0.5991860000000 1.0
C      1  0.4784040000000  0.3697250000000  0.5377090000000 1.0
C      1  0.4030810000000  0.4486980000000  0.6733230000000 1.0
C      1  0.5431360000000  0.4352040000000  0.4188360000000 1.0
C      1  0.5071280000000  0.3851390000000  0.4730560000000 1.0
C      1  0.4292920000000  0.3969370000000  0.4495730000000 1.0
C      1  0.5716080000000  0.4877730000000  0.4352190000000 1.0
C      1  0.4418810000000  0.4695000000000  0.6417160000000 1.0
C      1  0.4882470000000  0.4785470000000  0.5480820000000 1.0
C      1  0.4892080000000  0.5064270000000  0.5622490000000 1.0
C      1  0.4572340000000  0.4502240000000  0.5183730000000 1.0
C      1  0.5628670000000  0.5691940000000  0.4578980000000 1.0
C      1  0.5725590000000  0.4828480000000  0.4088900000000 1.0
C      1  0.5569450000000  0.5295150000000  0.5037340000000 1.0
C      1  0.5121630000000  0.5252070000000  0.5632110000000 1.0
C      1  0.5376730000000  0.5611740000000  0.4695040000000 1.0
C      1  0.5254360000000  0.4663900000000  0.3550080000000 1.0
C      1  0.5701260000000  0.4117650000000  0.5373920000000 1.0
C      1  0.5353600000000  0.5150060000000  0.4483230000000 1.0
C      1  0.4261820000000  0.4975380000000  0.5690830000000 1.0
C      1  0.5998640000000  0.4754020000000  0.5521060000000 1.0
C      1  0.5011350000000  0.4586410000000  0.4309910000000 1.0
C      1  0.4794460000000  0.4268440000000  0.4792730000000 1.0
C      1  0.4903600000000  0.4584200000000  0.4050710000000 1.0
C      1  0.5183300000000  0.4090740000000  0.5892150000000 1.0
C      1  0.5648890000000  0.4411960000000  0.5810620000000 1.0
C      1  0.5476570000000  0.5370620000000  0.5295890000000 1.0
C      1  0.4694280000000  0.5808290000000  0.3827460000000 1.0
C      1  0.4667550000000  0.5387130000000  0.5372310000000 1.0
C      1  0.6002260000000  0.4479370000000  0.5463470000000 1.0
C      1  0.4464790000000  0.4972350000000  0.6383470000000 1.0
C      1  0.5003160000000  0.4296750000000  0.5498220000000 1.0
C      1  0.5016660000000  0.6109870000000  0.5139150000000 1.0
C      1  0.5645740000000  0.5065390000000  0.4843920000000 1.0
C      1  0.4596340000000  0.3768850000000  0.4918370000000 1.0
C      1  0.4280290000000  0.4889860000000  0.3937850000000 1.0
C      1  0.4677500000000  0.6018990000000  0.4825480000000 1.0
C      1  0.5385710000000  0.4787700000000  0.6065530000000 1.0
C      1  0.4201290000000  0.5475830000000  0.5567740000000 1.0
C      1  0.4207180000000  0.5650460000000  0.5328010000000 1.0
C      1  0.5288660000000  0.3915890000000  0.5154220000000 1.0
C      1  0.4784120000000  0.6218160000000  0.5004280000000 1.0
C      1  0.4514870000000  0.5826010000000  0.4970170000000 1.0
C      1  0.5986570000000  0.5381960000000  0.4674420000000 1.0
C      1  0.4383370000000  0.4730350000000  0.5593930000000 1.0
C      1  0.4646500000000  0.5085070000000  0.6194200000000 1.0
C      1  0.4999080000000  0.5304990000000  0.4743450000000 1.0
C      1  0.6151300000000  0.4182400000000  0.4076230000000 1.0
C      1  0.4110800000000  0.3778610000000  0.4397290000000 1.0
C      1  0.4397300000000  0.5150100000000  0.4491580000000 1.0
C      1  0.4211840000000  0.5493860000000  0.4856110000000 1.0
C      1  0.5510870000000  0.3906740000000  0.5336100000000 1.0
C      1  0.5242510000000  0.4287620000000  0.4624300000000 1.0
C      1  0.3762110000000  0.5057070000000  0.5206210000000 1.0
C      1  0.5602020000000  0.5624230000000  0.4138210000000 1.0
C      1  0.4646550000000  0.5552670000000  0.6064450000000 1.0
C      1  0.4822590000000  0.4658040000000  0.4511840000000 1.0
C      1  0.5012540000000  0.4121630000000  0.4675110000000 1.0
C      1  0.5170510000000  0.4947540000000  0.6131150000000 1.0
C      1  0.4870460000000  0.5527770000000  0.4239750000000 1.0
C      1  0.3842980000000  0.4386880000000  0.6883790000000 1.0
C      1  0.6095930000000  0.4879970000000  0.4887250000000 1.0
C      1  0.4673090000000  0.4441200000000  0.4610600000000 1.0
C      1  0.5949420000000  0.5119970000000  0.4817010000000 1.0
C      1  0.5239900000000  0.4427110000000  0.4377450000000 1.0
C      1  0.4658160000000  0.4590930000000  0.3944360000000 1.0
C      1  0.5031430000000  0.4055160000000  0.5654530000000 1.0
C      1  0.4792970000000  0.4358330000000  0.5066140000000 1.0
C      1  0.5371660000000  0.5323860000000  0.3851230000000 1.0
C      1  0.4890880000000  0.5009010000000  0.3657330000000 1.0
C      1  0.4598450000000  0.4539660000000  0.6263150000000 1.0
C      1  0.5932380000000  0.5849190000000  0.5229060000000 1.0
C      1  0.6025840000000  0.4428450000000  0.5178410000000 1.0
C      1  0.3822020000000  0.4879000000000  0.5427650000000 1.0
C      1  0.5291070000000  0.5878550000000  0.4817310000000 1.0
C      1  0.4293180000000  0.4221860000000  0.4358720000000 1.0
C      1  0.4352740000000  0.4900520000000  0.4889580000000 1.0
C      1  0.4967380000000  0.5631420000000  0.5100830000000 1.0
C      1  0.4485260000000  0.6600140000000  0.5135660000000 1.0
C      1  0.4511920000000  0.4984210000000  0.4683880000000 1.0
C      1  0.4883770000000  0.4919180000000  0.6148030000000 1.0
C      1  0.4387590000000  0.4634500000000  0.4014180000000 1.0
C      1  0.5978810000000  0.4386100000000  0.4480260000000 1.0
C      1  0.5066720000000  0.5720320000000  0.5820280000000 1.0
C      1  0.5267610000000  0.5923590000000  0.5797570000000 1.0
C      1  0.5526560000000  0.5123740000000  0.3769160000000 1.0
C      1  0.5819200000000  0.4898420000000  0.5382480000000 1.0
C      1  0.5216930000000  0.5400530000000  0.4556470000000 1.0
C      1  0.5576110000000  0.4832820000000  0.5259200000000 1.0
C      1  0.4280770000000  0.4435620000000  0.4191470000000 1.0
C      1  0.5891560000000  0.4448880000000  0.4736610000000 1.0
C      1  0.5099200000000  0.4831320000000  0.5269440000000 1.0
C      1  0.4754450000000  0.5738290000000  0.4397440000000 1.0
C      1  0.5813810000000  0.4224800000000  0.5127110000000 1.0
C      1  0.4272900000000  0.5224210000000  0.4269550000000 1.0
C      1  0.4781590000000  0.4893400000000  0.4658030000000 1.0
C      1  0.4221390000000  0.4588760000000  0.6579880000000 1.0
C      1  0.4811540000000  0.4640460000000  0.6109610000000 1.0
C      1  0.4835600000000  0.5495600000000  0.4874210000000 1.0
C      1  0.4916850000000  0.5934750000000  0.3920910000000 1.0
C      1  0.5856270000000  0.5635380000000  0.4754870000000 1.0
C      1  0.5287970000000  0.5978130000000  0.4320980000000 1.0
C      1  0.4854400000000  0.6415140000000  0.5422730000000 1.0
C      1  0.5251430000000  0.6064010000000  0.5545270000000 1.0
C      1  0.3994700000000  0.5036320000000  0.5604900000000 1.0
C      1  0.5406290000000  0.4291290000000  0.4857570000000 1.0
C      1  0.5357230000000  0.5489560000000  0.4073830000000 1.0
C      1  0.4597160000000  0.4703050000000  0.5395060000000 1.0
C      1  0.4277710000000  0.5171880000000  0.3992600000000 1.0
C      1  0.5609330000000  0.4863650000000  0.3835680000000 1.0
C      1  0.5789540000000  0.4309850000000  0.5583650000000 1.0
C      1  0.5107660000000  0.5865010000000  0.5043640000000 1.0
C      1  0.5059650000000  0.6213180000000  0.5406430000000 1.0
C      1  0.5816300000000  0.5831920000000  0.4969830000000 1.0
C      1  0.3878780000000  0.5319810000000  0.5237580000000 1.0
C      1  0.5034540000000  0.4816560000000  0.3540690000000 1.0
C      1  0.4540600000000  0.5293020000000  0.6025090000000 1.0
C      1  0.4892070000000  0.5559040000000  0.5365090000000 1.0
C      1  0.4688900000000  0.6427070000000  0.5182470000000 1.0
C      1  0.4814090000000  0.5167090000000  0.3857640000000 1.0
C      1  0.4370980000000  0.5859480000000  0.5220760000000 1.0
C      1  0.3794590000000  0.4605970000000  0.5479190000000 1.0
C      1  0.6000020000000  0.5378100000000  0.4383740000000 1.0
C      1  0.5347010000000  0.4912440000000  0.5403520000000 1.0
C      1  0.4315390000000  0.4422940000000  0.5101630000000 1.0
C      1  0.4093300000000  0.4337460000000  0.4995070000000 1.0
END
