TITL C-599892-9790-846 -765.555472282302 125000 -456.719846247821 0 0 76 (C1) n - 1
REM
REM in /home/nfs/bkarasulu/CARBON/AIRSS/Generating-Clusters/TERSOFF/Only-C1/FIRE-HFTN
REM
REM
REM
REM
REM
REM ./C.cell (11c1c37f851c82e70ff6c80c92926a4b)
REM AIRSS Version 0.9.1 bugfix July 2018 build 013d7b7c2542+ Fri, 06 Jul 2018 19:26:36 +0100
REM compiler GCC version 9.2.1 20190827 (Red Hat 9.2.1-1)
REM options -cpp -mtune=generic -march=x86-64 -g -O0 -fpre-include=/usr/include/finclude/math-vector-fortran.h
REM seed -1716564410 -231704873 -2122451767 643907314 1390654867 1118762402 -1418164210 -1812220382 1300013487 -1175838418 59374899 -517997495 -884719124 -831787228 -1635927328 2122772801 -1328339558 606118088 1444144838 1899545515 -197826852 -44519663 172363764 -1119153413 1876837101 596353577 2119780023 1459718019 1973274233 525548639 1489002026 316116133 1323554346
REM
CELL 1.54180   50.00000   50.00000   50.00000   90.00000   90.00000   90.00000
LATT -1
SFAC C  
C      1  0.4561630000000  0.5285100000000  0.4946210000000 1.0
C      1  0.4371070000000  0.4930270000000  0.5470930000000 1.0
C      1  0.5525940000000  0.4504100000000  0.4469610000000 1.0
C      1  0.5186570000000  0.4833170000000  0.4496720000000 1.0
C      1  0.5816300000000  0.4075940000000  0.3855140000000 1.0
C      1  0.4931650000000  0.5915060000000  0.5143840000000 1.0
C      1  0.4702680000000  0.4425520000000  0.5102380000000 1.0
C      1  0.4991370000000  0.5488120000000  0.4523580000000 1.0
C      1  0.5654050000000  0.5468910000000  0.5037410000000 1.0
C      1  0.5106290000000  0.5816380000000  0.5329940000000 1.0
C      1  0.4351140000000  0.4531960000000  0.4756610000000 1.0
C      1  0.4845450000000  0.5872770000000  0.4872190000000 1.0
C      1  0.4214710000000  0.4757210000000  0.4890610000000 1.0
C      1  0.4660940000000  0.4706260000000  0.5104540000000 1.0
C      1  0.5007580000000  0.4522230000000  0.5755060000000 1.0
C      1  0.4820730000000  0.5644850000000  0.5731080000000 1.0
C      1  0.5263830000000  0.5452630000000  0.4379700000000 1.0
C      1  0.4587250000000  0.4282310000000  0.5720950000000 1.0
C      1  0.5524870000000  0.4477990000000  0.5089620000000 1.0
C      1  0.4838600000000  0.4929710000000  0.5465210000000 1.0
C      1  0.4676570000000  0.5370780000000  0.5192890000000 1.0
C      1  0.5234900000000  0.5599110000000  0.5477170000000 1.0
C      1  0.6345580000000  0.4883580000000  0.5090810000000 1.0
C      1  0.5313950000000  0.4290180000000  0.5064790000000 1.0
C      1  0.4788390000000  0.4345510000000  0.4607560000000 1.0
C      1  0.5687570000000  0.4622080000000  0.4669730000000 1.0
C      1  0.4267060000000  0.5468100000000  0.4660330000000 1.0
C      1  0.4286720000000  0.5263530000000  0.4860560000000 1.0
C      1  0.5158710000000  0.4976340000000  0.4742290000000 1.0
C      1  0.5222150000000  0.4999900000000  0.5754330000000 1.0
C      1  0.5215260000000  0.4979900000000  0.4258000000000 1.0
C      1  0.5163710000000  0.4893860000000  0.5022950000000 1.0
C      1  0.4200860000000  0.5084760000000  0.5299130000000 1.0
C      1  0.4230050000000  0.5365580000000  0.5366190000000 1.0
C      1  0.5500640000000  0.5519150000000  0.4537110000000 1.0
C      1  0.5723800000000  0.4211230000000  0.4057880000000 1.0
C      1  0.5681270000000  0.5139760000000  0.5157110000000 1.0
C      1  0.5070640000000  0.5018470000000  0.5294620000000 1.0
C      1  0.5629790000000  0.4351300000000  0.4262160000000 1.0
C      1  0.5059220000000  0.5488970000000  0.5696110000000 1.0
C      1  0.4708080000000  0.5533360000000  0.4424480000000 1.0
C      1  0.5805120000000  0.4905400000000  0.5060710000000 1.0
C      1  0.5269520000000  0.5236280000000  0.4198820000000 1.0
C      1  0.5240960000000  0.5612200000000  0.4897230000000 1.0
C      1  0.4183130000000  0.5027700000000  0.5006790000000 1.0
C      1  0.4617790000000  0.4415430000000  0.4384620000000 1.0
C      1  0.5074560000000  0.4359120000000  0.4615940000000 1.0
C      1  0.4360620000000  0.4517730000000  0.4462310000000 1.0
C      1  0.4582560000000  0.5842710000000  0.4766610000000 1.0
C      1  0.5243860000000  0.4557310000000  0.4495000000000 1.0
C      1  0.4728550000000  0.5121300000000  0.4791860000000 1.0
C      1  0.5519880000000  0.5184830000000  0.5397660000000 1.0
C      1  0.4706340000000  0.4851890000000  0.4866940000000 1.0
C      1  0.6085560000000  0.4894380000000  0.5077150000000 1.0
C      1  0.4483180000000  0.5046250000000  0.5722300000000 1.0
C      1  0.4958210000000  0.5295620000000  0.5203980000000 1.0
C      1  0.4995730000000  0.5235580000000  0.4725740000000 1.0
C      1  0.4589140000000  0.5638060000000  0.5593000000000 1.0
C      1  0.4600020000000  0.4363980000000  0.4840350000000 1.0
C      1  0.5158240000000  0.4733210000000  0.5831950000000 1.0
C      1  0.5507830000000  0.5561260000000  0.4822240000000 1.0
C      1  0.5098740000000  0.5379750000000  0.4976100000000 1.0
C      1  0.5020850000000  0.5213000000000  0.5790510000000 1.0
C      1  0.4814940000000  0.4377100000000  0.5602010000000 1.0
C      1  0.5675160000000  0.4673530000000  0.4948360000000 1.0
C      1  0.5128160000000  0.4246930000000  0.5267720000000 1.0
C      1  0.5046540000000  0.5734610000000  0.4721430000000 1.0
C      1  0.4491100000000  0.5483450000000  0.5380550000000 1.0
C      1  0.4607310000000  0.4823850000000  0.5345290000000 1.0
C      1  0.5216630000000  0.4212000000000  0.4811360000000 1.0
C      1  0.4864140000000  0.4327030000000  0.5322290000000 1.0
C      1  0.4491080000000  0.5636780000000  0.4586550000000 1.0
C      1  0.4772020000000  0.5081300000000  0.5711340000000 1.0
C      1  0.4159280000000  0.4588640000000  0.4294270000000 1.0
C      1  0.5307750000000  0.5028630000000  0.5482270000000 1.0
C      1  0.5467950000000  0.5467220000000  0.5361230000000 1.0
END
