TITL C-612604-1799-1188 0.000127763127126848 125000 -1016.10724913217 0 0 163 (C1) n - 1
REM
REM in /home/nfs/bkarasulu/CARBON/AIRSS/Generating-Clusters/TERSOFF/Only-C1/FIRE-HFTN
REM
REM
REM
REM
REM
REM ./C.cell (11c1c37f851c82e70ff6c80c92926a4b)
REM AIRSS Version 0.9.1 bugfix July 2018 build 013d7b7c2542+ Fri, 06 Jul 2018 19:26:36 +0100
REM compiler GCC version 9.2.1 20190827 (Red Hat 9.2.1-1)
REM options -cpp -mtune=generic -march=x86-64 -g -O0 -fpre-include=/usr/include/finclude/math-vector-fortran.h
REM seed 1781514576 1611253687 -799427438 1528016641 410404242 -1568451782 -1968054902 1306290278 -1979294320 -1277998909 -1672588400 357266594 -13782816 2112912289 -82636420 -1333016458 -366992957 -833535176 -478563994 1043255537 -2089140362 -529612883 -2094882842 -1758683249 1738183736 -52426376 -1401482322 -1354937142 -1558649906 111957247 241286037 903567294 229665703
REM
CELL 1.54180   50.00000   50.00000   50.00000   90.00000   90.00000   90.00000
LATT -1
SFAC C  
C      1  0.5718060000000  0.4946730000000  0.5189880000000 1.0
C      1  0.3816630000000  0.5834470000000  0.5509090000000 1.0
C      1  0.5032360000000  0.5085580000000  0.5748900000000 1.0
C      1  0.6129670000000  0.5471890000000  0.4678760000000 1.0
C      1  0.6080870000000  0.5684330000000  0.4286180000000 1.0
C      1  0.4189080000000  0.5037420000000  0.4147320000000 1.0
C      1  0.5594660000000  0.4198490000000  0.4881530000000 1.0
C      1  0.4470470000000  0.5129980000000  0.5071290000000 1.0
C      1  0.4324230000000  0.4050740000000  0.4460120000000 1.0
C      1  0.4664050000000  0.4689500000000  0.4088750000000 1.0
C      1  0.5301990000000  0.4646740000000  0.4694520000000 1.0
C      1  0.5696440000000  0.4337890000000  0.5446640000000 1.0
C      1  0.3906360000000  0.4748560000000  0.5686720000000 1.0
C      1  0.6165130000000  0.5258380000000  0.4856210000000 1.0
C      1  0.3756620000000  0.4887100000000  0.4951830000000 1.0
C      1  0.6163200000000  0.5429500000000  0.4394120000000 1.0
C      1  0.6258990000000  0.4592470000000  0.5756670000000 1.0
C      1  0.4536420000000  0.5077600000000  0.3815510000000 1.0
C      1  0.4115040000000  0.5573100000000  0.4524430000000 1.0
C      1  0.5762420000000  0.5312510000000  0.3943490000000 1.0
C      1  0.5597240000000  0.5804660000000  0.5381220000000 1.0
C      1  0.3805360000000  0.4435600000000  0.4329220000000 1.0
C      1  0.4400540000000  0.4672120000000  0.5106200000000 1.0
C      1  0.4328350000000  0.5837370000000  0.5529030000000 1.0
C      1  0.4098160000000  0.5238160000000  0.5605130000000 1.0
C      1  0.4342310000000  0.4027510000000  0.5164900000000 1.0
C      1  0.5574350000000  0.5026270000000  0.4956090000000 1.0
C      1  0.4325840000000  0.4932870000000  0.4376690000000 1.0
C      1  0.5234600000000  0.4528050000000  0.5534930000000 1.0
C      1  0.4849980000000  0.5511740000000  0.5293750000000 1.0
C      1  0.5348860000000  0.4655250000000  0.6198150000000 1.0
C      1  0.3925020000000  0.4495620000000  0.5590830000000 1.0
C      1  0.4935310000000  0.5561510000000  0.4336420000000 1.0
C      1  0.5287790000000  0.4794160000000  0.5431280000000 1.0
C      1  0.4322590000000  0.5085140000000  0.4613540000000 1.0
C      1  0.5046520000000  0.5013500000000  0.5422030000000 1.0
C      1  0.4529890000000  0.5138990000000  0.4796490000000 1.0
C      1  0.5450960000000  0.4780490000000  0.4283530000000 1.0
C      1  0.4846320000000  0.5118400000000  0.4176100000000 1.0
C      1  0.5166270000000  0.4458880000000  0.6105710000000 1.0
C      1  0.4091080000000  0.4415250000000  0.5376800000000 1.0
C      1  0.4475730000000  0.4679780000000  0.5897480000000 1.0
C      1  0.4885510000000  0.5302310000000  0.5862590000000 1.0
C      1  0.4942510000000  0.4879650000000  0.4921510000000 1.0
C      1  0.6021110000000  0.4688350000000  0.4444970000000 1.0
C      1  0.4884520000000  0.4256070000000  0.4166550000000 1.0
C      1  0.4354090000000  0.5214280000000  0.3990560000000 1.0
C      1  0.6266810000000  0.4839900000000  0.5653490000000 1.0
C      1  0.5914630000000  0.4468660000000  0.4555720000000 1.0
C      1  0.4746230000000  0.4941130000000  0.3954660000000 1.0
C      1  0.4942860000000  0.4519170000000  0.5933450000000 1.0
C      1  0.4976870000000  0.5340870000000  0.4724740000000 1.0
C      1  0.4672600000000  0.4409120000000  0.4059850000000 1.0
C      1  0.4755690000000  0.4940210000000  0.6172360000000 1.0
C      1  0.6126320000000  0.4374860000000  0.5670280000000 1.0
C      1  0.5722150000000  0.4024180000000  0.4064650000000 1.0
C      1  0.5961380000000  0.5707090000000  0.4729040000000 1.0
C      1  0.4807500000000  0.4290610000000  0.5487220000000 1.0
C      1  0.5661150000000  0.4944740000000  0.5918970000000 1.0
C      1  0.5368690000000  0.4132470000000  0.5008720000000 1.0
C      1  0.5779730000000  0.4308110000000  0.4722260000000 1.0
C      1  0.5709310000000  0.4860870000000  0.5657020000000 1.0
C      1  0.5814450000000  0.5615340000000  0.5432040000000 1.0
C      1  0.5871510000000  0.5741060000000  0.4993050000000 1.0
C      1  0.5473990000000  0.4884740000000  0.4733950000000 1.0
C      1  0.3929270000000  0.4984530000000  0.4085390000000 1.0
C      1  0.5377200000000  0.4091510000000  0.5692360000000 1.0
C      1  0.4380610000000  0.4577200000000  0.4828560000000 1.0
C      1  0.5023060000000  0.3985980000000  0.4567860000000 1.0
C      1  0.5538410000000  0.4152490000000  0.4197680000000 1.0
C      1  0.5266580000000  0.6187430000000  0.4256960000000 1.0
C      1  0.5354210000000  0.4546700000000  0.4422510000000 1.0
C      1  0.5039330000000  0.4639060000000  0.4801590000000 1.0
C      1  0.4322860000000  0.4920270000000  0.5872160000000 1.0
C      1  0.6223720000000  0.5001950000000  0.4746180000000 1.0
C      1  0.6113840000000  0.4398100000000  0.5194070000000 1.0
C      1  0.5367390000000  0.5793790000000  0.5544240000000 1.0
C      1  0.3715180000000  0.5655490000000  0.5336240000000 1.0
C      1  0.4799680000000  0.4975270000000  0.4432470000000 1.0
C      1  0.4851130000000  0.4886190000000  0.5202770000000 1.0
C      1  0.4304260000000  0.4104990000000  0.4199020000000 1.0
C      1  0.4577220000000  0.4795720000000  0.4348250000000 1.0
C      1  0.5976030000000  0.4343780000000  0.5432980000000 1.0
C      1  0.3652250000000  0.5134320000000  0.4867080000000 1.0
C      1  0.5132120000000  0.5394760000000  0.4483090000000 1.0
C      1  0.5461300000000  0.6095360000000  0.4448180000000 1.0
C      1  0.4563260000000  0.4888350000000  0.5191390000000 1.0
C      1  0.4756520000000  0.5596690000000  0.5551930000000 1.0
C      1  0.4436020000000  0.5185580000000  0.5917430000000 1.0
C      1  0.6128400000000  0.4947190000000  0.4479180000000 1.0
C      1  0.3831770000000  0.5437260000000  0.5203910000000 1.0
C      1  0.4329460000000  0.5379550000000  0.5731110000000 1.0
C      1  0.6255250000000  0.4560360000000  0.5036690000000 1.0
C      1  0.4688830000000  0.5219920000000  0.6074300000000 1.0
C      1  0.3798520000000  0.5372900000000  0.4926060000000 1.0
C      1  0.5330100000000  0.4284030000000  0.4328400000000 1.0
C      1  0.4062550000000  0.5893280000000  0.5598440000000 1.0
C      1  0.5247540000000  0.5619060000000  0.5735760000000 1.0
C      1  0.5364640000000  0.5256300000000  0.4421270000000 1.0
C      1  0.6054100000000  0.5293360000000  0.5113550000000 1.0
C      1  0.4472240000000  0.5606510000000  0.5622820000000 1.0
C      1  0.5061280000000  0.5314150000000  0.5296200000000 1.0
C      1  0.5897430000000  0.5826230000000  0.4469180000000 1.0
C      1  0.4473050000000  0.5431930000000  0.4145570000000 1.0
C      1  0.5976810000000  0.5061120000000  0.5253970000000 1.0
C      1  0.4938710000000  0.4156120000000  0.5272140000000 1.0
C      1  0.4305850000000  0.4218200000000  0.5369900000000 1.0
C      1  0.5566180000000  0.4862510000000  0.5414290000000 1.0
C      1  0.4102390000000  0.4595630000000  0.4742280000000 1.0
C      1  0.6104300000000  0.5167520000000  0.4296270000000 1.0
C      1  0.6308520000000  0.4784020000000  0.4901530000000 1.0
C      1  0.4666730000000  0.5416270000000  0.6298030000000 1.0
C      1  0.5097690000000  0.4068270000000  0.5051450000000 1.0
C      1  0.5437600000000  0.4322520000000  0.5554350000000 1.0
C      1  0.4847050000000  0.5591570000000  0.4799050000000 1.0
C      1  0.5368810000000  0.6115360000000  0.4721870000000 1.0
C      1  0.5650410000000  0.5904950000000  0.4354700000000 1.0
C      1  0.4438420000000  0.5962280000000  0.5301340000000 1.0
C      1  0.5958290000000  0.5545430000000  0.5193760000000 1.0
C      1  0.4731520000000  0.4698860000000  0.6024030000000 1.0
C      1  0.5471400000000  0.5286600000000  0.4984260000000 1.0
C      1  0.4835970000000  0.4453100000000  0.4738460000000 1.0
C      1  0.4524050000000  0.4287980000000  0.5543370000000 1.0
C      1  0.4959200000000  0.5556210000000  0.5754220000000 1.0
C      1  0.4474100000000  0.3956150000000  0.4925230000000 1.0
C      1  0.5523430000000  0.6081440000000  0.4949740000000 1.0
C      1  0.4979280000000  0.4456920000000  0.5652070000000 1.0
C      1  0.4963610000000  0.3926670000000  0.4839640000000 1.0
C      1  0.4127220000000  0.4626430000000  0.5192510000000 1.0
C      1  0.5657400000000  0.5899460000000  0.5109380000000 1.0
C      1  0.3415300000000  0.5147150000000  0.4731160000000 1.0
C      1  0.5223800000000  0.5041010000000  0.5955530000000 1.0
C      1  0.4437400000000  0.4437690000000  0.5766410000000 1.0
C      1  0.6150160000000  0.4981540000000  0.5459970000000 1.0
C      1  0.4604830000000  0.5882310000000  0.5107410000000 1.0
C      1  0.5623440000000  0.5539670000000  0.3971030000000 1.0
C      1  0.5439770000000  0.5443590000000  0.5863610000000 1.0
C      1  0.5579240000000  0.5755590000000  0.4122660000000 1.0
C      1  0.4279770000000  0.5291750000000  0.5179540000000 1.0
C      1  0.4843890000000  0.5747920000000  0.4547440000000 1.0
C      1  0.4821830000000  0.5083720000000  0.4723290000000 1.0
C      1  0.3950060000000  0.4689280000000  0.4972920000000 1.0
C      1  0.5290690000000  0.5380410000000  0.5154020000000 1.0
C      1  0.4715560000000  0.3809920000000  0.4913400000000 1.0
C      1  0.5075140000000  0.4159050000000  0.4349300000000 1.0
C      1  0.4050660000000  0.5311910000000  0.5336010000000 1.0
C      1  0.4432390000000  0.4264810000000  0.4025210000000 1.0
C      1  0.4772140000000  0.5660710000000  0.5060350000000 1.0
C      1  0.4446130000000  0.4127640000000  0.4699310000000 1.0
C      1  0.4917750000000  0.6019870000000  0.4535880000000 1.0
C      1  0.4078770000000  0.4967660000000  0.5718490000000 1.0
C      1  0.5476700000000  0.5171330000000  0.5925190000000 1.0
C      1  0.4760040000000  0.5399040000000  0.4182740000000 1.0
C      1  0.4561930000000  0.4386840000000  0.4732480000000 1.0
C      1  0.4301570000000  0.5564490000000  0.4329830000000 1.0
C      1  0.5206780000000  0.4903810000000  0.6199760000000 1.0
C      1  0.5480840000000  0.5005350000000  0.4462080000000 1.0
C      1  0.4999400000000  0.6138040000000  0.4289080000000 1.0
C      1  0.5948550000000  0.5159710000000  0.4061800000000 1.0
C      1  0.3943320000000  0.5507010000000  0.4721130000000 1.0
C      1  0.3976820000000  0.4512960000000  0.4509780000000 1.0
C      1  0.5613770000000  0.4728960000000  0.6108950000000 1.0
C      1  0.5084680000000  0.6112040000000  0.4748480000000 1.0
END
