TITL C-612600-6631-813 -4.46204149838508e-05 125000 -347.411696087394 0 0 58 (C1) n - 1
REM
REM in /home/nfs/bkarasulu/CARBON/AIRSS/Generating-Clusters/TERSOFF/Only-C1/FIRE-HFTN
REM
REM
REM
REM
REM
REM ./C.cell (11c1c37f851c82e70ff6c80c92926a4b)
REM AIRSS Version 0.9.1 bugfix July 2018 build 013d7b7c2542+ Fri, 06 Jul 2018 19:26:36 +0100
REM compiler GCC version 9.2.1 20190827 (Red Hat 9.2.1-1)
REM options -cpp -mtune=generic -march=x86-64 -g -O0 -fpre-include=/usr/include/finclude/math-vector-fortran.h
REM seed -2143316118 498674717 16605045 -634064832 865093936 -710064815 1837243834 746871159 874419230 535979129 1227438202 694744749 -2046460540 2044637634 -191430812 -2112582651 1892519155 1763653469 797025669 240066598 -237964757 239510315 348883244 -1269235027 -225858771 -1377914274 115866565 1169959009 -1431539667 -2038254762 -2130282152 1460567198 -7837355
REM
CELL 1.54180   50.00000   50.00000   50.00000   90.00000   90.00000   90.00000
LATT -1
SFAC C  
C      1  0.4878980000000  0.5398650000000  0.5547950000000 1.0
C      1  0.5145840000000  0.4749190000000  0.4172380000000 1.0
C      1  0.5683350000000  0.4630170000000  0.4932280000000 1.0
C      1  0.4307300000000  0.4856460000000  0.4463950000000 1.0
C      1  0.5156090000000  0.4502220000000  0.4858170000000 1.0
C      1  0.4729640000000  0.5687120000000  0.4757750000000 1.0
C      1  0.5267970000000  0.4727170000000  0.4737200000000 1.0
C      1  0.5184210000000  0.5612900000000  0.4942860000000 1.0
C      1  0.4902060000000  0.5126820000000  0.5136680000000 1.0
C      1  0.4788240000000  0.5177460000000  0.5388360000000 1.0
C      1  0.3905050000000  0.4409090000000  0.5197620000000 1.0
C      1  0.5598980000000  0.4715680000000  0.4412070000000 1.0
C      1  0.4943520000000  0.4315200000000  0.4795430000000 1.0
C      1  0.4884890000000  0.4734520000000  0.4281700000000 1.0
C      1  0.4551540000000  0.5547370000000  0.4590170000000 1.0
C      1  0.5546510000000  0.4702060000000  0.4689200000000 1.0
C      1  0.6052350000000  0.5279620000000  0.4912420000000 1.0
C      1  0.4499320000000  0.5053390000000  0.4402270000000 1.0
C      1  0.5511080000000  0.4602360000000  0.5169790000000 1.0
C      1  0.5327810000000  0.5689630000000  0.5396480000000 1.0
C      1  0.4833760000000  0.4429750000000  0.5374270000000 1.0
C      1  0.4786040000000  0.4484300000000  0.4373580000000 1.0
C      1  0.4733970000000  0.5638860000000  0.5473900000000 1.0
C      1  0.4724800000000  0.4400390000000  0.4638670000000 1.0
C      1  0.5164770000000  0.5137090000000  0.4998890000000 1.0
C      1  0.5547840000000  0.4780040000000  0.5386090000000 1.0
C      1  0.4275170000000  0.4600000000000  0.4579290000000 1.0
C      1  0.4451970000000  0.5603650000000  0.5509020000000 1.0
C      1  0.5568660000000  0.5386990000000  0.5120820000000 1.0
C      1  0.5952900000000  0.4586950000000  0.4943430000000 1.0
C      1  0.5052110000000  0.4295610000000  0.5252970000000 1.0
C      1  0.4724520000000  0.5063230000000  0.4914840000000 1.0
C      1  0.5124910000000  0.5740570000000  0.5198510000000 1.0
C      1  0.5730350000000  0.5444230000000  0.6083920000000 1.0
C      1  0.4150020000000  0.4442530000000  0.5115200000000 1.0
C      1  0.5581140000000  0.5284010000000  0.5591190000000 1.0
C      1  0.4841250000000  0.5775260000000  0.5248080000000 1.0
C      1  0.4056420000000  0.4448360000000  0.4513330000000 1.0
C      1  0.5325470000000  0.5367570000000  0.4978250000000 1.0
C      1  0.5142140000000  0.4972350000000  0.4761610000000 1.0
C      1  0.5029390000000  0.5374330000000  0.5773380000000 1.0
C      1  0.4767460000000  0.4955730000000  0.4421360000000 1.0
C      1  0.4606700000000  0.4504290000000  0.5247830000000 1.0
C      1  0.4476670000000  0.4490600000000  0.4756370000000 1.0
C      1  0.5263860000000  0.4460450000000  0.5130840000000 1.0
C      1  0.4674530000000  0.5799100000000  0.5014530000000 1.0
C      1  0.4467260000000  0.5330390000000  0.4454780000000 1.0
C      1  0.5411830000000  0.4736690000000  0.4216040000000 1.0
C      1  0.5519630000000  0.5475290000000  0.5389360000000 1.0
C      1  0.4345060000000  0.5352640000000  0.5482300000000 1.0
C      1  0.4871580000000  0.5000270000000  0.4676200000000 1.0
C      1  0.5661450000000  0.5364560000000  0.5845550000000 1.0
C      1  0.4505390000000  0.5137520000000  0.5425710000000 1.0
C      1  0.5010720000000  0.5656420000000  0.4724550000000 1.0
C      1  0.4417440000000  0.4481560000000  0.5038870000000 1.0
C      1  0.5819120000000  0.5335240000000  0.5014450000000 1.0
C      1  0.5566320000000  0.5008890000000  0.5523630000000 1.0
C      1  0.4952700000000  0.4137190000000  0.5023690000000 1.0
END
