TITL C-612605-9286-1348 -0.011179375176651 125000 -1092.7211147092 0 0 180 (C1) n - 1
REM
REM in /home/nfs/bkarasulu/CARBON/AIRSS/Generating-Clusters/TERSOFF/Only-C1/FIRE-HFTN
REM
REM
REM
REM
REM
REM ./C.cell (11c1c37f851c82e70ff6c80c92926a4b)
REM AIRSS Version 0.9.1 bugfix July 2018 build 013d7b7c2542+ Fri, 06 Jul 2018 19:26:36 +0100
REM compiler GCC version 9.2.1 20190827 (Red Hat 9.2.1-1)
REM options -cpp -mtune=generic -march=x86-64 -g -O0 -fpre-include=/usr/include/finclude/math-vector-fortran.h
REM seed -1990400814 -2076692023 1781551125 1257905098 -2124125168 -1680407259 -2092859044 -191166659 2019024814 267599754 666267453 -1799042117 -1104069366 463119561 -2147149400 1184511432 -2137110158 -240780090 -1405007365 166929582 1283533762 -1404470236 544619454 -1487516794 1191756991 91535576 -1005435877 186514580 1186161460 1773359879 74305135 -170317078 -462532565
REM
CELL 1.54180   50.00000   50.00000   50.00000   90.00000   90.00000   90.00000
LATT -1
SFAC C  
C      1  0.5051090000000  0.4853250000000  0.4336220000000 1.0
C      1  0.5271240000000  0.3971500000000  0.5699730000000 1.0
C      1  0.4777990000000  0.3749520000000  0.4465000000000 1.0
C      1  0.4611560000000  0.4997660000000  0.3639220000000 1.0
C      1  0.4918610000000  0.6453280000000  0.4828290000000 1.0
C      1  0.5430550000000  0.4150770000000  0.5852310000000 1.0
C      1  0.4591970000000  0.4890640000000  0.6123580000000 1.0
C      1  0.4853500000000  0.3832780000000  0.5115600000000 1.0
C      1  0.5783160000000  0.5862680000000  0.4735610000000 1.0
C      1  0.5524270000000  0.5433770000000  0.5584960000000 1.0
C      1  0.5469850000000  0.4827810000000  0.5630990000000 1.0
C      1  0.4963140000000  0.5031990000000  0.5825760000000 1.0
C      1  0.5753430000000  0.4586670000000  0.4248630000000 1.0
C      1  0.6147610000000  0.4597740000000  0.5351840000000 1.0
C      1  0.5358470000000  0.4825240000000  0.6157510000000 1.0
C      1  0.4612340000000  0.5556510000000  0.5384640000000 1.0
C      1  0.6081190000000  0.4210680000000  0.4811640000000 1.0
C      1  0.5135670000000  0.4320710000000  0.4213190000000 1.0
C      1  0.4716950000000  0.4100900000000  0.4113650000000 1.0
C      1  0.4765580000000  0.5457190000000  0.6175470000000 1.0
C      1  0.5003920000000  0.5759440000000  0.3721100000000 1.0
C      1  0.5892170000000  0.4573020000000  0.5761090000000 1.0
C      1  0.3879710000000  0.4491530000000  0.5623360000000 1.0
C      1  0.4379180000000  0.4774840000000  0.4802620000000 1.0
C      1  0.4326880000000  0.4568630000000  0.5719780000000 1.0
C      1  0.5368600000000  0.4355270000000  0.6041130000000 1.0
C      1  0.5088610000000  0.4422850000000  0.6102000000000 1.0
C      1  0.4416780000000  0.4671680000000  0.4075620000000 1.0
C      1  0.5173320000000  0.5687840000000  0.5845450000000 1.0
C      1  0.4765750000000  0.5716660000000  0.4505420000000 1.0
C      1  0.5244170000000  0.5497550000000  0.6029870000000 1.0
C      1  0.4686280000000  0.4572500000000  0.4066680000000 1.0
C      1  0.4858860000000  0.4349630000000  0.4114740000000 1.0
C      1  0.5520160000000  0.5244350000000  0.3900790000000 1.0
C      1  0.4338820000000  0.4944990000000  0.4050250000000 1.0
C      1  0.4276210000000  0.5057850000000  0.4884230000000 1.0
C      1  0.4952210000000  0.4506420000000  0.5198570000000 1.0
C      1  0.5147520000000  0.4553410000000  0.4780160000000 1.0
C      1  0.4888140000000  0.3947810000000  0.5374330000000 1.0
C      1  0.6143840000000  0.4786710000000  0.4717120000000 1.0
C      1  0.5513040000000  0.4602990000000  0.6047320000000 1.0
C      1  0.5240830000000  0.3907750000000  0.4483870000000 1.0
C      1  0.4367210000000  0.5299170000000  0.5026720000000 1.0
C      1  0.5464480000000  0.4990730000000  0.4036950000000 1.0
C      1  0.4694860000000  0.4551800000000  0.5154450000000 1.0
C      1  0.6091770000000  0.4511190000000  0.5597450000000 1.0
C      1  0.3618070000000  0.4475600000000  0.5701600000000 1.0
C      1  0.5213600000000  0.4045090000000  0.4240320000000 1.0
C      1  0.4884290000000  0.5014340000000  0.4983430000000 1.0
C      1  0.3933400000000  0.4512820000000  0.4899040000000 1.0
C      1  0.4098090000000  0.5593500000000  0.4273100000000 1.0
C      1  0.4962420000000  0.5927010000000  0.5520380000000 1.0
C      1  0.5056390000000  0.3869520000000  0.5861350000000 1.0
C      1  0.4538490000000  0.5792500000000  0.4355690000000 1.0
C      1  0.6603240000000  0.4126190000000  0.4837120000000 1.0
C      1  0.5179070000000  0.4009620000000  0.5425680000000 1.0
C      1  0.4295140000000  0.6120170000000  0.5002090000000 1.0
C      1  0.4503540000000  0.4731130000000  0.5579510000000 1.0
C      1  0.5811300000000  0.4274720000000  0.4825010000000 1.0
C      1  0.5041340000000  0.5551210000000  0.5102790000000 1.0
C      1  0.4543170000000  0.6218110000000  0.5008610000000 1.0
C      1  0.5015120000000  0.5347620000000  0.3968810000000 1.0
C      1  0.6340770000000  0.4158670000000  0.4819850000000 1.0
C      1  0.5107720000000  0.5458810000000  0.4221720000000 1.0
C      1  0.5287580000000  0.4848880000000  0.5197880000000 1.0
C      1  0.4724380000000  0.5755020000000  0.3697070000000 1.0
C      1  0.4113310000000  0.4928850000000  0.5871480000000 1.0
C      1  0.5281060000000  0.6172680000000  0.5079090000000 1.0
C      1  0.5688270000000  0.4380380000000  0.5055480000000 1.0
C      1  0.5296160000000  0.3955000000000  0.4945260000000 1.0
C      1  0.4718440000000  0.6260440000000  0.5697950000000 1.0
C      1  0.4415650000000  0.4105540000000  0.5592700000000 1.0
C      1  0.5163540000000  0.6134290000000  0.5588820000000 1.0
C      1  0.4631550000000  0.5404650000000  0.5929650000000 1.0
C      1  0.5030600000000  0.5671350000000  0.5608960000000 1.0
C      1  0.5884170000000  0.5842040000000  0.5006910000000 1.0
C      1  0.5638640000000  0.4675510000000  0.5805990000000 1.0
C      1  0.4159440000000  0.5919360000000  0.4888050000000 1.0
C      1  0.4682170000000  0.5991260000000  0.5595850000000 1.0
C      1  0.5669350000000  0.4808160000000  0.4113570000000 1.0
C      1  0.5324460000000  0.4097400000000  0.5192430000000 1.0
C      1  0.4765710000000  0.4692950000000  0.5574890000000 1.0
C      1  0.5486640000000  0.5868090000000  0.4732750000000 1.0
C      1  0.5723070000000  0.5165570000000  0.4659030000000 1.0
C      1  0.5413150000000  0.5906560000000  0.5034380000000 1.0
C      1  0.4374350000000  0.5382910000000  0.3859970000000 1.0
C      1  0.5458260000000  0.5082780000000  0.6073170000000 1.0
C      1  0.4308930000000  0.4035920000000  0.4952400000000 1.0
C      1  0.4184580000000  0.4102870000000  0.5416690000000 1.0
C      1  0.4524390000000  0.5750420000000  0.5595370000000 1.0
C      1  0.5628790000000  0.4211580000000  0.4614760000000 1.0
C      1  0.5424180000000  0.4362440000000  0.5152260000000 1.0
C      1  0.4862740000000  0.5704710000000  0.4958260000000 1.0
C      1  0.5036190000000  0.5452410000000  0.6219770000000 1.0
C      1  0.5753400000000  0.5616510000000  0.5543740000000 1.0
C      1  0.5503390000000  0.5137890000000  0.4834950000000 1.0
C      1  0.4101370000000  0.4640050000000  0.4728770000000 1.0
C      1  0.4870670000000  0.4882380000000  0.6059980000000 1.0
C      1  0.4690440000000  0.4007970000000  0.5585790000000 1.0
C      1  0.5296430000000  0.5656300000000  0.5155390000000 1.0
C      1  0.5554740000000  0.5265210000000  0.5095850000000 1.0
C      1  0.3577960000000  0.5104170000000  0.5046740000000 1.0
C      1  0.5426330000000  0.4013630000000  0.4683090000000 1.0
C      1  0.5124660000000  0.5495470000000  0.3746830000000 1.0
C      1  0.4016600000000  0.5167140000000  0.4464280000000 1.0
C      1  0.5196670000000  0.5923290000000  0.3865100000000 1.0
C      1  0.5283030000000  0.5829530000000  0.4522890000000 1.0
C      1  0.4987330000000  0.6341220000000  0.5694040000000 1.0
C      1  0.4478190000000  0.4543460000000  0.4985360000000 1.0
C      1  0.5002920000000  0.5885100000000  0.4570660000000 1.0
C      1  0.4205740000000  0.3944290000000  0.5183440000000 1.0
C      1  0.3785620000000  0.5100870000000  0.4889330000000 1.0
C      1  0.4610810000000  0.4770870000000  0.4589770000000 1.0
C      1  0.5942160000000  0.5912280000000  0.4519740000000 1.0
C      1  0.4428020000000  0.5515930000000  0.4838800000000 1.0
C      1  0.4401420000000  0.4281410000000  0.4900940000000 1.0
C      1  0.5441460000000  0.6051590000000  0.5590900000000 1.0
C      1  0.5806470000000  0.4940540000000  0.5276110000000 1.0
C      1  0.4510430000000  0.5598170000000  0.3742760000000 1.0
C      1  0.4096260000000  0.5157980000000  0.5706040000000 1.0
C      1  0.4702570000000  0.4495640000000  0.4575050000000 1.0
C      1  0.4871020000000  0.4967760000000  0.3700230000000 1.0
C      1  0.5424730000000  0.5434800000000  0.5292680000000 1.0
C      1  0.5065950000000  0.5049610000000  0.5197950000000 1.0
C      1  0.4669550000000  0.3879610000000  0.4256850000000 1.0
C      1  0.4241610000000  0.5705710000000  0.4726100000000 1.0
C      1  0.4896360000000  0.4491460000000  0.5686640000000 1.0
C      1  0.4421270000000  0.5099920000000  0.3815560000000 1.0
C      1  0.4803310000000  0.6216200000000  0.4902500000000 1.0
C      1  0.5245100000000  0.4723290000000  0.4543950000000 1.0
C      1  0.4260180000000  0.5354580000000  0.5589400000000 1.0
C      1  0.4693740000000  0.5579180000000  0.4761840000000 1.0
C      1  0.6861690000000  0.4097700000000  0.4855920000000 1.0
C      1  0.6043040000000  0.5644720000000  0.5133140000000 1.0
C      1  0.5402630000000  0.5758580000000  0.3994590000000 1.0
C      1  0.5348340000000  0.5651960000000  0.4284250000000 1.0
C      1  0.4905570000000  0.4319270000000  0.5908120000000 1.0
C      1  0.4415710000000  0.5543260000000  0.5783850000000 1.0
C      1  0.5595130000000  0.4403970000000  0.4400320000000 1.0
C      1  0.4223900000000  0.5397920000000  0.4102150000000 1.0
C      1  0.5078660000000  0.4715140000000  0.6169050000000 1.0
C      1  0.6191190000000  0.4888210000000  0.4966650000000 1.0
C      1  0.5762990000000  0.5328180000000  0.4452260000000 1.0
C      1  0.4872830000000  0.5431650000000  0.5509950000000 1.0
C      1  0.4920810000000  0.4397590000000  0.4701660000000 1.0
C      1  0.5413310000000  0.5503300000000  0.3825270000000 1.0
C      1  0.3902340000000  0.5431550000000  0.4411080000000 1.0
C      1  0.5036250000000  0.3823410000000  0.4899720000000 1.0
C      1  0.6390310000000  0.5072810000000  0.5005260000000 1.0
C      1  0.4023200000000  0.5101790000000  0.4740550000000 1.0
C      1  0.4829980000000  0.4950800000000  0.4510900000000 1.0
C      1  0.5180450000000  0.4933910000000  0.4093250000000 1.0
C      1  0.5219560000000  0.4571010000000  0.5078730000000 1.0
C      1  0.4391530000000  0.5371970000000  0.5314970000000 1.0
C      1  0.5004190000000  0.5317580000000  0.5273710000000 1.0
C      1  0.6039560000000  0.4799050000000  0.5190870000000 1.0
C      1  0.4809110000000  0.5258920000000  0.5744910000000 1.0
C      1  0.5815060000000  0.5222650000000  0.5226850000000 1.0
C      1  0.5007530000000  0.5071330000000  0.3920120000000 1.0
C      1  0.5009820000000  0.3787350000000  0.4616350000000 1.0
C      1  0.4270500000000  0.5741950000000  0.4439260000000 1.0
C      1  0.4381450000000  0.4305760000000  0.5789340000000 1.0
C      1  0.5435780000000  0.5321200000000  0.5914220000000 1.0
C      1  0.5534640000000  0.4855360000000  0.5355770000000 1.0
C      1  0.3901430000000  0.4405740000000  0.5143480000000 1.0
C      1  0.4984570000000  0.5066270000000  0.4728920000000 1.0
C      1  0.5604480000000  0.5505840000000  0.4335910000000 1.0
C      1  0.5657140000000  0.5892580000000  0.5471440000000 1.0
C      1  0.4215330000000  0.4486130000000  0.4104430000000 1.0
C      1  0.4328190000000  0.4928260000000  0.6067910000000 1.0
C      1  0.5926770000000  0.5472980000000  0.5333510000000 1.0
C      1  0.5323370000000  0.4488060000000  0.4362360000000 1.0
C      1  0.5679440000000  0.5936550000000  0.5186760000000 1.0
C      1  0.3982720000000  0.4323210000000  0.5405600000000 1.0
C      1  0.4064620000000  0.4668480000000  0.5750700000000 1.0
C      1  0.4926270000000  0.5967600000000  0.4844530000000 1.0
C      1  0.4194190000000  0.5122430000000  0.4231220000000 1.0
C      1  0.5278910000000  0.4998510000000  0.4710280000000 1.0
C      1  0.4832780000000  0.4045020000000  0.5844410000000 1.0
C      1  0.5208440000000  0.4936910000000  0.5703580000000 1.0
END
