TITL C-612600-6631-506 0.0223738889865708 125000 -606.067498057141 0 0 101 (C1) n - 1
REM
REM in /home/nfs/bkarasulu/CARBON/AIRSS/Generating-Clusters/TERSOFF/Only-C1/FIRE-HFTN
REM
REM
REM
REM
REM
REM ./C.cell (11c1c37f851c82e70ff6c80c92926a4b)
REM AIRSS Version 0.9.1 bugfix July 2018 build 013d7b7c2542+ Fri, 06 Jul 2018 19:26:36 +0100
REM compiler GCC version 9.2.1 20190827 (Red Hat 9.2.1-1)
REM options -cpp -mtune=generic -march=x86-64 -g -O0 -fpre-include=/usr/include/finclude/math-vector-fortran.h
REM seed 536175648 -779733520 -676150611 -1265546525 -1737056896 -1560722226 -1076928774 -2106978704 -1004500018 -1602529052 154773494 703019181 -284469221 -304270473 548496443 -2136480001 -133828638 1230613179 1337031611 -1728032543 -202251774 1570440864 1118995933 1509331853 -656017505 -1989636151 973801835 1964564046 628549719 -1728974538 -32654397 -690361905 1601113214
REM
CELL 1.54180   50.00000   50.00000   50.00000   90.00000   90.00000   90.00000
LATT -1
SFAC C  
C      1  0.4705440000000  0.5772780000000  0.4409440000000 1.0
C      1  0.4831170000000  0.5488740000000  0.5092490000000 1.0
C      1  0.5954030000000  0.5670590000000  0.4592970000000 1.0
C      1  0.5034810000000  0.4386770000000  0.5070680000000 1.0
C      1  0.5869610000000  0.5244120000000  0.5432720000000 1.0
C      1  0.5417630000000  0.4687260000000  0.6235990000000 1.0
C      1  0.5423070000000  0.5275410000000  0.5827710000000 1.0
C      1  0.4855440000000  0.5343090000000  0.5921400000000 1.0
C      1  0.4559120000000  0.5683340000000  0.5524430000000 1.0
C      1  0.5540330000000  0.5125130000000  0.6011920000000 1.0
C      1  0.4860900000000  0.5689660000000  0.5533700000000 1.0
C      1  0.5888870000000  0.4680120000000  0.4399590000000 1.0
C      1  0.5492260000000  0.5255470000000  0.4042530000000 1.0
C      1  0.5335550000000  0.5706670000000  0.5358800000000 1.0
C      1  0.4134490000000  0.4778180000000  0.4841450000000 1.0
C      1  0.4730250000000  0.4947100000000  0.5427850000000 1.0
C      1  0.4632790000000  0.5180390000000  0.5873500000000 1.0
C      1  0.5050380000000  0.4442710000000  0.4311850000000 1.0
C      1  0.5082580000000  0.5245870000000  0.4614060000000 1.0
C      1  0.4563360000000  0.5108900000000  0.5159220000000 1.0
C      1  0.4743370000000  0.4247880000000  0.5436420000000 1.0
C      1  0.4437770000000  0.5924340000000  0.5457020000000 1.0
C      1  0.4402460000000  0.5340120000000  0.5848200000000 1.0
C      1  0.5974310000000  0.5607220000000  0.4335480000000 1.0
C      1  0.4492770000000  0.5619350000000  0.4323860000000 1.0
C      1  0.5860680000000  0.5661940000000  0.4858170000000 1.0
C      1  0.4913420000000  0.4746370000000  0.5355940000000 1.0
C      1  0.5876170000000  0.5263450000000  0.5158920000000 1.0
C      1  0.5664080000000  0.4813240000000  0.4953310000000 1.0
C      1  0.5545560000000  0.4910310000000  0.6168140000000 1.0
C      1  0.5881510000000  0.5045320000000  0.3874920000000 1.0
C      1  0.5902060000000  0.4572670000000  0.3748640000000 1.0
C      1  0.4573980000000  0.4690800000000  0.5818940000000 1.0
C      1  0.4273760000000  0.5026100000000  0.5245260000000 1.0
C      1  0.4550640000000  0.5411930000000  0.5127180000000 1.0
C      1  0.4389740000000  0.4669130000000  0.4978380000000 1.0
C      1  0.5600270000000  0.4345540000000  0.4837640000000 1.0
C      1  0.4285680000000  0.5491000000000  0.5000880000000 1.0
C      1  0.5914830000000  0.5475500000000  0.4111850000000 1.0
C      1  0.5140010000000  0.5076450000000  0.5081250000000 1.0
C      1  0.4382930000000  0.4172700000000  0.4804700000000 1.0
C      1  0.4886270000000  0.5705900000000  0.4904430000000 1.0
C      1  0.4369680000000  0.5457210000000  0.5589960000000 1.0
C      1  0.4988310000000  0.5500060000000  0.5729590000000 1.0
C      1  0.4349570000000  0.3968530000000  0.5377050000000 1.0
C      1  0.6255320000000  0.5557700000000  0.5112590000000 1.0
C      1  0.4574120000000  0.4091130000000  0.5255150000000 1.0
C      1  0.4229480000000  0.4675960000000  0.4375590000000 1.0
C      1  0.4983450000000  0.4721960000000  0.4395340000000 1.0
C      1  0.4388880000000  0.4252280000000  0.5759920000000 1.0
C      1  0.5239690000000  0.4591490000000  0.5050280000000 1.0
C      1  0.4837450000000  0.5654510000000  0.4631380000000 1.0
C      1  0.4605840000000  0.5046510000000  0.4859140000000 1.0
C      1  0.4890530000000  0.4458780000000  0.5319150000000 1.0
C      1  0.5075460000000  0.5330140000000  0.5194210000000 1.0
C      1  0.4839080000000  0.5367670000000  0.4597940000000 1.0
C      1  0.4875270000000  0.4220820000000  0.4905710000000 1.0
C      1  0.5997060000000  0.5494700000000  0.5043470000000 1.0
C      1  0.5114200000000  0.5849830000000  0.4992960000000 1.0
C      1  0.4493960000000  0.4717710000000  0.4333320000000 1.0
C      1  0.5205020000000  0.4535080000000  0.6188920000000 1.0
C      1  0.4612420000000  0.4767180000000  0.4795930000000 1.0
C      1  0.5442520000000  0.4689860000000  0.4216040000000 1.0
C      1  0.4317750000000  0.4725090000000  0.5260510000000 1.0
C      1  0.5236820000000  0.4894140000000  0.4294220000000 1.0
C      1  0.5354520000000  0.5784930000000  0.4823940000000 1.0
C      1  0.5278860000000  0.5430280000000  0.5379850000000 1.0
C      1  0.5778180000000  0.5048140000000  0.5007190000000 1.0
C      1  0.5139550000000  0.4823580000000  0.5197110000000 1.0
C      1  0.4981870000000  0.4481120000000  0.6056510000000 1.0
C      1  0.4609100000000  0.4134650000000  0.4972710000000 1.0
C      1  0.5837890000000  0.4773150000000  0.3930580000000 1.0
C      1  0.4332420000000  0.4537910000000  0.5739030000000 1.0
C      1  0.5674430000000  0.4115250000000  0.4740750000000 1.0
C      1  0.5097800000000  0.5846720000000  0.5293640000000 1.0
C      1  0.5316100000000  0.4434860000000  0.4214450000000 1.0
C      1  0.4052460000000  0.5311900000000  0.4977190000000 1.0
C      1  0.5328570000000  0.5174940000000  0.4254470000000 1.0
C      1  0.4218090000000  0.5258000000000  0.5437020000000 1.0
C      1  0.5164290000000  0.5072180000000  0.4806940000000 1.0
C      1  0.5957620000000  0.4380520000000  0.3581590000000 1.0
C      1  0.5722200000000  0.4713300000000  0.4184640000000 1.0
C      1  0.5620790000000  0.5797310000000  0.4921630000000 1.0
C      1  0.4713280000000  0.4731870000000  0.4518220000000 1.0
C      1  0.4645970000000  0.4945420000000  0.5708150000000 1.0
C      1  0.5236430000000  0.5380610000000  0.5652560000000 1.0
C      1  0.4256220000000  0.4046270000000  0.5620560000000 1.0
C      1  0.4880170000000  0.4230690000000  0.4312820000000 1.0
C      1  0.4682700000000  0.4256730000000  0.5716340000000 1.0
C      1  0.5766040000000  0.5276970000000  0.3982810000000 1.0
C      1  0.4183410000000  0.4319170000000  0.4694030000000 1.0
C      1  0.4776060000000  0.4484190000000  0.5873020000000 1.0
C      1  0.5500920000000  0.4583510000000  0.4944820000000 1.0
C      1  0.4394750000000  0.5447210000000  0.4533580000000 1.0
C      1  0.4113350000000  0.4589690000000  0.4620070000000 1.0
C      1  0.5343820000000  0.5627800000000  0.4574410000000 1.0
C      1  0.4586810000000  0.5245100000000  0.4642950000000 1.0
C      1  0.4288620000000  0.5607940000000  0.4743790000000 1.0
C      1  0.4219450000000  0.4610070000000  0.5493170000000 1.0
C      1  0.5282970000000  0.5370460000000  0.4462180000000 1.0
C      1  0.4088040000000  0.5029650000000  0.4997140000000 1.0
END
