TITL C-612603-7354-672 0.0207071206537658 125000 -803.295704276384 0 0 131 (C1) n - 1
REM
REM in /home/nfs/bkarasulu/CARBON/AIRSS/Generating-Clusters/TERSOFF/Only-C1/FIRE-HFTN
REM
REM
REM
REM
REM
REM ./C.cell (11c1c37f851c82e70ff6c80c92926a4b)
REM AIRSS Version 0.9.1 bugfix July 2018 build 013d7b7c2542+ Fri, 06 Jul 2018 19:26:36 +0100
REM compiler GCC version 9.2.1 20190827 (Red Hat 9.2.1-1)
REM options -cpp -mtune=generic -march=x86-64 -g -O0 -fpre-include=/usr/include/finclude/math-vector-fortran.h
REM seed 1937901705 -513561023 9280463 349482366 -2072716528 1245473306 -1549251457 -86843311 -1317257327 -191791713 -358253444 696737350 259755671 1520763802 -816558312 2000509494 -1466935714 -664157990 -1987421228 -1447183615 -275740127 612789055 -1065514337 2033387561 -1069295791 -335282320 1793633028 1904890623 -1402110468 -16996550 539569912 37178465 -1723776423
REM
CELL 1.54180   50.00000   50.00000   50.00000   90.00000   90.00000   90.00000
LATT -1
SFAC C  
C      1  0.3948690000000  0.5411750000000  0.4725360000000 1.0
C      1  0.5270450000000  0.3918910000000  0.4641680000000 1.0
C      1  0.4133680000000  0.4992260000000  0.4538200000000 1.0
C      1  0.5333870000000  0.5292460000000  0.5248770000000 1.0
C      1  0.4667390000000  0.4430110000000  0.4322000000000 1.0
C      1  0.5181720000000  0.4893760000000  0.4432710000000 1.0
C      1  0.4717960000000  0.5596430000000  0.4164770000000 1.0
C      1  0.5358300000000  0.5971590000000  0.4954410000000 1.0
C      1  0.4748740000000  0.4970560000000  0.5705850000000 1.0
C      1  0.5858620000000  0.4414310000000  0.5310520000000 1.0
C      1  0.4106510000000  0.4708920000000  0.4553840000000 1.0
C      1  0.4907360000000  0.5287700000000  0.6057780000000 1.0
C      1  0.4360410000000  0.5103330000000  0.4394730000000 1.0
C      1  0.4716320000000  0.5282830000000  0.4700760000000 1.0
C      1  0.4851960000000  0.4012310000000  0.4210160000000 1.0
C      1  0.5095990000000  0.5099760000000  0.3716000000000 1.0
C      1  0.4433900000000  0.4107900000000  0.5165560000000 1.0
C      1  0.4253910000000  0.5542850000000  0.4212210000000 1.0
C      1  0.4472340000000  0.5731510000000  0.4270100000000 1.0
C      1  0.5400060000000  0.5022550000000  0.5192720000000 1.0
C      1  0.6555300000000  0.4535780000000  0.5349000000000 1.0
C      1  0.5430970000000  0.3823920000000  0.4840290000000 1.0
C      1  0.4429650000000  0.5197090000000  0.5973620000000 1.0
C      1  0.4764470000000  0.4839350000000  0.4914560000000 1.0
C      1  0.4563530000000  0.5289340000000  0.4951630000000 1.0
C      1  0.4199220000000  0.5423540000000  0.5262320000000 1.0
C      1  0.5738490000000  0.5112930000000  0.4143500000000 1.0
C      1  0.4140640000000  0.4930050000000  0.5250760000000 1.0
C      1  0.4170280000000  0.5871030000000  0.4622600000000 1.0
C      1  0.4591870000000  0.5019130000000  0.5066170000000 1.0
C      1  0.4905980000000  0.5908060000000  0.5063340000000 1.0
C      1  0.4427100000000  0.4927450000000  0.5275440000000 1.0
C      1  0.5997870000000  0.5214430000000  0.5183760000000 1.0
C      1  0.5306710000000  0.5415140000000  0.6374500000000 1.0
C      1  0.4760490000000  0.6126510000000  0.5492450000000 1.0
C      1  0.4019080000000  0.5011590000000  0.5008680000000 1.0
C      1  0.5207510000000  0.5153530000000  0.4587670000000 1.0
C      1  0.5668290000000  0.4960710000000  0.4607130000000 1.0
C      1  0.5833770000000  0.4658810000000  0.4245830000000 1.0
C      1  0.5306220000000  0.4652580000000  0.4550440000000 1.0
C      1  0.5157760000000  0.5770490000000  0.4386940000000 1.0
C      1  0.4151640000000  0.4475830000000  0.6222730000000 1.0
C      1  0.5732630000000  0.4557560000000  0.5520420000000 1.0
C      1  0.4451280000000  0.5583440000000  0.5633500000000 1.0
C      1  0.4366490000000  0.5967620000000  0.5257830000000 1.0
C      1  0.4562730000000  0.4591470000000  0.4523420000000 1.0
C      1  0.6281390000000  0.5218280000000  0.5197310000000 1.0
C      1  0.5417460000000  0.5777940000000  0.5156520000000 1.0
C      1  0.5252390000000  0.4134390000000  0.4456200000000 1.0
C      1  0.4705840000000  0.5232790000000  0.5849240000000 1.0
C      1  0.5667300000000  0.5414910000000  0.4757430000000 1.0
C      1  0.6566810000000  0.4797360000000  0.5298150000000 1.0
C      1  0.5438210000000  0.4921090000000  0.5463290000000 1.0
C      1  0.5313310000000  0.4850130000000  0.4989690000000 1.0
C      1  0.4408760000000  0.4063340000000  0.4466820000000 1.0
C      1  0.6234050000000  0.4130410000000  0.5373070000000 1.0
C      1  0.5395440000000  0.4371690000000  0.4520480000000 1.0
C      1  0.5003820000000  0.5599310000000  0.4212870000000 1.0
C      1  0.5500300000000  0.4759560000000  0.4770020000000 1.0
C      1  0.5207650000000  0.5030920000000  0.5603720000000 1.0
C      1  0.4002720000000  0.5672510000000  0.4693520000000 1.0
C      1  0.5739250000000  0.4904370000000  0.4323050000000 1.0
C      1  0.5692620000000  0.4544530000000  0.4834510000000 1.0
C      1  0.5150940000000  0.4627190000000  0.4027880000000 1.0
C      1  0.4363080000000  0.4446210000000  0.6065800000000 1.0
C      1  0.5075120000000  0.5488680000000  0.4949970000000 1.0
C      1  0.4219410000000  0.5514120000000  0.5515690000000 1.0
C      1  0.3723500000000  0.4578590000000  0.6509960000000 1.0
C      1  0.4359150000000  0.5279810000000  0.4173430000000 1.0
C      1  0.5105480000000  0.4177850000000  0.5508410000000 1.0
C      1  0.5815780000000  0.3951470000000  0.5160710000000 1.0
C      1  0.5138840000000  0.5292160000000  0.5468500000000 1.0
C      1  0.6446060000000  0.4294170000000  0.5379970000000 1.0
C      1  0.5091290000000  0.5971800000000  0.4852810000000 1.0
C      1  0.4782700000000  0.4413600000000  0.5724460000000 1.0
C      1  0.5884190000000  0.5035820000000  0.5380190000000 1.0
C      1  0.5028380000000  0.4575380000000  0.5730360000000 1.0
C      1  0.5334210000000  0.5512950000000  0.5080790000000 1.0
C      1  0.5785140000000  0.4091990000000  0.4703960000000 1.0
C      1  0.5690960000000  0.3917190000000  0.4908530000000 1.0
C      1  0.5037120000000  0.5936790000000  0.4580380000000 1.0
C      1  0.5034030000000  0.4786550000000  0.4982470000000 1.0
C      1  0.5161940000000  0.5119900000000  0.3990330000000 1.0
C      1  0.4620170000000  0.4110270000000  0.5356140000000 1.0
C      1  0.5851040000000  0.4536040000000  0.5058930000000 1.0
C      1  0.4185430000000  0.5096000000000  0.5931350000000 1.0
C      1  0.4391140000000  0.5490380000000  0.5060820000000 1.0
C      1  0.5631570000000  0.5653780000000  0.4607860000000 1.0
C      1  0.4654470000000  0.5269510000000  0.3766170000000 1.0
C      1  0.4302550000000  0.4150170000000  0.4937270000000 1.0
C      1  0.5145720000000  0.5377970000000  0.4103190000000 1.0
C      1  0.5003260000000  0.5319350000000  0.4728090000000 1.0
C      1  0.4702860000000  0.5455140000000  0.5638040000000 1.0
C      1  0.6479390000000  0.5043350000000  0.5242510000000 1.0
C      1  0.5518740000000  0.4431260000000  0.5654930000000 1.0
C      1  0.4846050000000  0.6128750000000  0.5222820000000 1.0
C      1  0.5706740000000  0.4842950000000  0.5495080000000 1.0
C      1  0.4020870000000  0.4985870000000  0.5751190000000 1.0
C      1  0.3936230000000  0.4524950000000  0.6369140000000 1.0
C      1  0.5243270000000  0.4396680000000  0.5640020000000 1.0
C      1  0.5220760000000  0.5962160000000  0.5612860000000 1.0
C      1  0.4298370000000  0.4509720000000  0.4602060000000 1.0
C      1  0.4604700000000  0.5349460000000  0.4029080000000 1.0
C      1  0.5438800000000  0.5733530000000  0.4432980000000 1.0
C      1  0.5105020000000  0.5351530000000  0.6222080000000 1.0
C      1  0.5960520000000  0.4146770000000  0.5309350000000 1.0
C      1  0.3997240000000  0.4916530000000  0.5493360000000 1.0
C      1  0.4817720000000  0.4199560000000  0.5529560000000 1.0
C      1  0.5651080000000  0.4331890000000  0.4652790000000 1.0
C      1  0.5488980000000  0.5210010000000  0.4640570000000 1.0
C      1  0.4675660000000  0.4816800000000  0.4640900000000 1.0
C      1  0.5156470000000  0.4883850000000  0.4147750000000 1.0
C      1  0.4407530000000  0.5776120000000  0.5069530000000 1.0
C      1  0.5915840000000  0.5036130000000  0.4756450000000 1.0
C      1  0.4905790000000  0.5471600000000  0.5428300000000 1.0
C      1  0.4973420000000  0.6060820000000  0.5665790000000 1.0
C      1  0.4290220000000  0.4230470000000  0.4668790000000 1.0
C      1  0.4626610000000  0.4148280000000  0.4305970000000 1.0
C      1  0.5390320000000  0.5863700000000  0.5426960000000 1.0
C      1  0.5149400000000  0.4359220000000  0.4041370000000 1.0
C      1  0.5106310000000  0.4136910000000  0.4212560000000 1.0
C      1  0.4480100000000  0.6082410000000  0.5477790000000 1.0
C      1  0.5008690000000  0.4857190000000  0.5705510000000 1.0
C      1  0.4554410000000  0.4886200000000  0.5521310000000 1.0
C      1  0.4015570000000  0.5139520000000  0.4754910000000 1.0
C      1  0.4903060000000  0.5624580000000  0.5156410000000 1.0
C      1  0.4854000000000  0.5167840000000  0.3618580000000 1.0
C      1  0.4391990000000  0.5910460000000  0.4471140000000 1.0
C      1  0.4569290000000  0.4433680000000  0.5900130000000 1.0
C      1  0.4611830000000  0.5074720000000  0.4531520000000 1.0
C      1  0.5878000000000  0.5270990000000  0.4922970000000 1.0
END
