TITL C-612604-1799-1026 -0.116577783211325 125000 -1167.75881837371 0 0 188 (C1) n - 1
REM
REM in /home/nfs/bkarasulu/CARBON/AIRSS/Generating-Clusters/TERSOFF/Only-C1/FIRE-HFTN
REM
REM
REM
REM
REM
REM ./C.cell (11c1c37f851c82e70ff6c80c92926a4b)
REM AIRSS Version 0.9.1 bugfix July 2018 build 013d7b7c2542+ Fri, 06 Jul 2018 19:26:36 +0100
REM compiler GCC version 9.2.1 20190827 (Red Hat 9.2.1-1)
REM options -cpp -mtune=generic -march=x86-64 -g -O0 -fpre-include=/usr/include/finclude/math-vector-fortran.h
REM seed 1233424929 -894436903 1731919120 -157489125 1839040039 -543354772 -586596779 730460792 -266125944 567942665 1797655673 -1108067906 -566107451 23941637 -20563756 -2013463195 -2038252108 -1378263263 912090731 -1001558230 1561756449 526828565 1527705249 110783222 -1236336033 483263934 1424507661 -2043928270 1402143430 1632261953 1361426044 -953217671 720352924
REM
CELL 1.54180   50.00000   50.00000   50.00000   90.00000   90.00000   90.00000
LATT -1
SFAC C  
C      1  0.4204570000000  0.4272350000000  0.4610020000000 1.0
C      1  0.5462350000000  0.4947720000000  0.4008870000000 1.0
C      1  0.5452360000000  0.5944180000000  0.5024710000000 1.0
C      1  0.3768420000000  0.5652130000000  0.5263860000000 1.0
C      1  0.4301280000000  0.5036970000000  0.4538510000000 1.0
C      1  0.4300390000000  0.4650830000000  0.6046180000000 1.0
C      1  0.6009120000000  0.4232840000000  0.5607650000000 1.0
C      1  0.4908570000000  0.4292760000000  0.5223810000000 1.0
C      1  0.5608890000000  0.4710220000000  0.4114980000000 1.0
C      1  0.4864920000000  0.3936590000000  0.5530280000000 1.0
C      1  0.5042160000000  0.4849400000000  0.5015270000000 1.0
C      1  0.5069460000000  0.5778680000000  0.5276780000000 1.0
C      1  0.4591800000000  0.4406910000000  0.4341760000000 1.0
C      1  0.4500080000000  0.4658740000000  0.4745180000000 1.0
C      1  0.6023680000000  0.5565210000000  0.5695910000000 1.0
C      1  0.4762120000000  0.5884940000000  0.4502420000000 1.0
C      1  0.6050690000000  0.4250870000000  0.5339830000000 1.0
C      1  0.4872070000000  0.5556620000000  0.4785880000000 1.0
C      1  0.6412550000000  0.4000720000000  0.4728920000000 1.0
C      1  0.5487190000000  0.5877860000000  0.4308680000000 1.0
C      1  0.3571710000000  0.5101310000000  0.4545360000000 1.0
C      1  0.4683400000000  0.5170350000000  0.4925960000000 1.0
C      1  0.4672950000000  0.5975440000000  0.4779650000000 1.0
C      1  0.4827660000000  0.4123510000000  0.5749510000000 1.0
C      1  0.4218540000000  0.5755850000000  0.5110290000000 1.0
C      1  0.5751450000000  0.4850050000000  0.4732190000000 1.0
C      1  0.5461110000000  0.5927890000000  0.5534850000000 1.0
C      1  0.5043500000000  0.4753990000000  0.6079530000000 1.0
C      1  0.3761120000000  0.5488720000000  0.5475450000000 1.0
C      1  0.4508300000000  0.4537440000000  0.5003110000000 1.0
C      1  0.5356660000000  0.4449090000000  0.4601250000000 1.0
C      1  0.4474510000000  0.4215800000000  0.6124720000000 1.0
C      1  0.4715360000000  0.5405590000000  0.6036630000000 1.0
C      1  0.4448140000000  0.4189310000000  0.4463140000000 1.0
C      1  0.5714420000000  0.5611060000000  0.4642270000000 1.0
C      1  0.5211240000000  0.5791750000000  0.5517840000000 1.0
C      1  0.3557280000000  0.5366860000000  0.4160000000000 1.0
C      1  0.6192050000000  0.4134290000000  0.4766920000000 1.0
C      1  0.4233110000000  0.5210370000000  0.4752020000000 1.0
C      1  0.5150490000000  0.5576210000000  0.4842850000000 1.0
C      1  0.4176290000000  0.4505770000000  0.5337260000000 1.0
C      1  0.4211350000000  0.5310440000000  0.5569580000000 1.0
C      1  0.5667790000000  0.5617450000000  0.5978050000000 1.0
C      1  0.6078610000000  0.5070310000000  0.3958690000000 1.0
C      1  0.4691210000000  0.5720320000000  0.4968140000000 1.0
C      1  0.5100920000000  0.5760160000000  0.6103040000000 1.0
C      1  0.5319930000000  0.4138850000000  0.5815330000000 1.0
C      1  0.4373150000000  0.5923760000000  0.5554910000000 1.0
C      1  0.5244760000000  0.4868260000000  0.5215080000000 1.0
C      1  0.4470150000000  0.5803970000000  0.5776590000000 1.0
C      1  0.6084200000000  0.4934520000000  0.4203790000000 1.0
C      1  0.5109310000000  0.4434840000000  0.3842530000000 1.0
C      1  0.4431680000000  0.5315250000000  0.4920470000000 1.0
C      1  0.4656440000000  0.4586390000000  0.6370200000000 1.0
C      1  0.4312060000000  0.5970590000000  0.5280830000000 1.0
C      1  0.3759640000000  0.4723960000000  0.5223500000000 1.0
C      1  0.4829580000000  0.3871130000000  0.5010720000000 1.0
C      1  0.5754810000000  0.4577240000000  0.5178570000000 1.0
C      1  0.5862540000000  0.5196840000000  0.3862020000000 1.0
C      1  0.5224140000000  0.5550920000000  0.5661770000000 1.0
C      1  0.4656560000000  0.4619120000000  0.5458520000000 1.0
C      1  0.4805340000000  0.5681650000000  0.5247410000000 1.0
C      1  0.3631900000000  0.5372490000000  0.4440880000000 1.0
C      1  0.5485820000000  0.6038090000000  0.4757020000000 1.0
C      1  0.4769390000000  0.4348410000000  0.4131190000000 1.0
C      1  0.5116530000000  0.5129100000000  0.3707220000000 1.0
C      1  0.5166180000000  0.4667530000000  0.5408850000000 1.0
C      1  0.5140490000000  0.6392830000000  0.4667910000000 1.0
C      1  0.5738220000000  0.4671470000000  0.5454430000000 1.0
C      1  0.4921960000000  0.4723160000000  0.5591220000000 1.0
C      1  0.5657660000000  0.5300730000000  0.5442070000000 1.0
C      1  0.4565900000000  0.5766910000000  0.4012510000000 1.0
C      1  0.3672010000000  0.4879370000000  0.5027160000000 1.0
C      1  0.5577770000000  0.5367100000000  0.4668480000000 1.0
C      1  0.5144490000000  0.5142570000000  0.4668420000000 1.0
C      1  0.5822370000000  0.4107740000000  0.5780570000000 1.0
C      1  0.5662100000000  0.4767600000000  0.4989860000000 1.0
C      1  0.5405710000000  0.5123710000000  0.6018220000000 1.0
C      1  0.5820140000000  0.4394660000000  0.4584300000000 1.0
C      1  0.3611190000000  0.5005770000000  0.4802030000000 1.0
C      1  0.4683020000000  0.4583430000000  0.4544680000000 1.0
C      1  0.3459230000000  0.5116000000000  0.4092870000000 1.0
C      1  0.5027510000000  0.4597320000000  0.4888180000000 1.0
C      1  0.5916820000000  0.5818450000000  0.5597990000000 1.0
C      1  0.4588490000000  0.4926740000000  0.3697250000000 1.0
C      1  0.5315970000000  0.3875960000000  0.5678330000000 1.0
C      1  0.5657760000000  0.4074040000000  0.5133730000000 1.0
C      1  0.5876970000000  0.5932950000000  0.5337770000000 1.0
C      1  0.4723820000000  0.5005090000000  0.4242390000000 1.0
C      1  0.5219820000000  0.5565990000000  0.5944440000000 1.0
C      1  0.5582410000000  0.3861080000000  0.5277650000000 1.0
C      1  0.4550320000000  0.5436670000000  0.4372130000000 1.0
C      1  0.4974570000000  0.5532700000000  0.3932630000000 1.0
C      1  0.3947410000000  0.5338940000000  0.5596050000000 1.0
C      1  0.5238910000000  0.5097160000000  0.3465340000000 1.0
C      1  0.5615710000000  0.4433700000000  0.6090170000000 1.0
C      1  0.5243080000000  0.4317550000000  0.4077160000000 1.0
C      1  0.4578850000000  0.5616650000000  0.5937960000000 1.0
C      1  0.4851360000000  0.5775660000000  0.4032940000000 1.0
C      1  0.5859100000000  0.4674660000000  0.4539330000000 1.0
C      1  0.4943120000000  0.6169400000000  0.6392590000000 1.0
C      1  0.5604360000000  0.5203670000000  0.3972550000000 1.0
C      1  0.5861650000000  0.4763940000000  0.4265800000000 1.0
C      1  0.4537320000000  0.6186260000000  0.4904770000000 1.0
C      1  0.5025660000000  0.5966550000000  0.6251200000000 1.0
C      1  0.5501500000000  0.4963720000000  0.5128180000000 1.0
C      1  0.4706110000000  0.5458720000000  0.5402800000000 1.0
C      1  0.4704810000000  0.4490090000000  0.5203720000000 1.0
C      1  0.5073740000000  0.3759520000000  0.5595920000000 1.0
C      1  0.6240850000000  0.5031800000000  0.4418130000000 1.0
C      1  0.5221330000000  0.6005600000000  0.4349760000000 1.0
C      1  0.5404620000000  0.5362890000000  0.5546090000000 1.0
C      1  0.5003940000000  0.4189200000000  0.4228080000000 1.0
C      1  0.5621360000000  0.5864930000000  0.4567580000000 1.0
C      1  0.4847550000000  0.4018400000000  0.5255910000000 1.0
C      1  0.4437630000000  0.5402040000000  0.5464040000000 1.0
C      1  0.4419960000000  0.5591420000000  0.4991000000000 1.0
C      1  0.5856810000000  0.4301540000000  0.5102080000000 1.0
C      1  0.4602070000000  0.3904360000000  0.4836850000000 1.0
C      1  0.4374390000000  0.4614820000000  0.5527340000000 1.0
C      1  0.4950900000000  0.5922420000000  0.4276330000000 1.0
C      1  0.5454590000000  0.5418600000000  0.6031080000000 1.0
C      1  0.4262380000000  0.4409220000000  0.5080280000000 1.0
C      1  0.5157400000000  0.4395850000000  0.5319240000000 1.0
C      1  0.5584020000000  0.4909040000000  0.5929430000000 1.0
C      1  0.4942420000000  0.4615850000000  0.4612160000000 1.0
C      1  0.5913990000000  0.5348970000000  0.5553190000000 1.0
C      1  0.5267720000000  0.6161310000000  0.4601470000000 1.0
C      1  0.4314070000000  0.6458300000000  0.5240520000000 1.0
C      1  0.5781150000000  0.3833680000000  0.5714370000000 1.0
C      1  0.4266730000000  0.4763140000000  0.4609340000000 1.0
C      1  0.3942200000000  0.5720770000000  0.5054130000000 1.0
C      1  0.4877010000000  0.5254440000000  0.5486090000000 1.0
C      1  0.5585470000000  0.4229390000000  0.5900890000000 1.0
C      1  0.5697660000000  0.5115060000000  0.4647690000000 1.0
C      1  0.5124490000000  0.5034630000000  0.6067080000000 1.0
C      1  0.4612080000000  0.4102190000000  0.5926140000000 1.0
C      1  0.4647230000000  0.3998820000000  0.4562280000000 1.0
C      1  0.4925980000000  0.4006550000000  0.4444740000000 1.0
C      1  0.6251940000000  0.5134240000000  0.4665540000000 1.0
C      1  0.5062030000000  0.4288310000000  0.5823790000000 1.0
C      1  0.4666150000000  0.4674700000000  0.3753190000000 1.0
C      1  0.5591320000000  0.5703980000000  0.4112180000000 1.0
C      1  0.5955070000000  0.4278580000000  0.4810920000000 1.0
C      1  0.5919550000000  0.5228140000000  0.5054440000000 1.0
C      1  0.6134100000000  0.5205850000000  0.4895340000000 1.0
C      1  0.4446850000000  0.4480780000000  0.6215600000000 1.0
C      1  0.5555390000000  0.3793080000000  0.5549980000000 1.0
C      1  0.3465240000000  0.4953620000000  0.4318030000000 1.0
C      1  0.3848340000000  0.5708160000000  0.4791490000000 1.0
C      1  0.4386960000000  0.6213080000000  0.5144670000000 1.0
C      1  0.5569290000000  0.4347320000000  0.4448470000000 1.0
C      1  0.5299990000000  0.5373050000000  0.4722020000000 1.0
C      1  0.4901890000000  0.5018180000000  0.5602770000000 1.0
C      1  0.5180120000000  0.4973380000000  0.3943420000000 1.0
C      1  0.4958490000000  0.4947770000000  0.4122050000000 1.0
C      1  0.5193150000000  0.4667780000000  0.4486140000000 1.0
C      1  0.5484320000000  0.5451670000000  0.4047790000000 1.0
C      1  0.4427130000000  0.5590480000000  0.4166230000000 1.0
C      1  0.4739870000000  0.5584250000000  0.4530360000000 1.0
C      1  0.4898030000000  0.5319020000000  0.3750790000000 1.0
C      1  0.3897820000000  0.4539470000000  0.5382890000000 1.0
C      1  0.4341400000000  0.3951170000000  0.4939530000000 1.0
C      1  0.4291750000000  0.4695480000000  0.5782950000000 1.0
C      1  0.3767820000000  0.4391500000000  0.5572390000000 1.0
C      1  0.5650270000000  0.5831870000000  0.5749420000000 1.0
C      1  0.5207200000000  0.5460290000000  0.4069960000000 1.0
C      1  0.5667270000000  0.4829970000000  0.5664690000000 1.0
C      1  0.4907880000000  0.5223180000000  0.6087930000000 1.0
C      1  0.5496370000000  0.4433100000000  0.4173660000000 1.0
C      1  0.5065460000000  0.3798900000000  0.4868190000000 1.0
C      1  0.5111940000000  0.3865860000000  0.4608550000000 1.0
C      1  0.4649210000000  0.5191370000000  0.3702210000000 1.0
C      1  0.4945200000000  0.5069820000000  0.4868300000000 1.0
C      1  0.5598370000000  0.5978840000000  0.5272130000000 1.0
C      1  0.4515910000000  0.5148670000000  0.4371520000000 1.0
C      1  0.4902860000000  0.4674010000000  0.6311070000000 1.0
C      1  0.3739710000000  0.5582620000000  0.4584640000000 1.0
C      1  0.5670820000000  0.5185050000000  0.5189060000000 1.0
C      1  0.5230640000000  0.5762730000000  0.5042390000000 1.0
C      1  0.4825420000000  0.4482390000000  0.3881270000000 1.0
C      1  0.4102790000000  0.4537070000000  0.4546350000000 1.0
C      1  0.5246720000000  0.4943130000000  0.4495110000000 1.0
C      1  0.5253450000000  0.4416840000000  0.4863300000000 1.0
C      1  0.5951260000000  0.5545310000000  0.5976330000000 1.0
C      1  0.4202790000000  0.4195810000000  0.4894050000000 1.0
C      1  0.5014740000000  0.4579930000000  0.5848250000000 1.0
C      1  0.5626330000000  0.4699920000000  0.6116450000000 1.0
END
