TITL C-612604-1799-1237 -23.5069163460123 125000 -1212.43664802822 0 0 196 (C1) n - 1
REM
REM in /home/nfs/bkarasulu/CARBON/AIRSS/Generating-Clusters/TERSOFF/Only-C1/FIRE-HFTN
REM
REM
REM
REM
REM
REM ./C.cell (11c1c37f851c82e70ff6c80c92926a4b)
REM AIRSS Version 0.9.1 bugfix July 2018 build 013d7b7c2542+ Fri, 06 Jul 2018 19:26:36 +0100
REM compiler GCC version 9.2.1 20190827 (Red Hat 9.2.1-1)
REM options -cpp -mtune=generic -march=x86-64 -g -O0 -fpre-include=/usr/include/finclude/math-vector-fortran.h
REM seed 800483445 1236803521 105684274 1692597788 -1463598862 1800064998 1923657863 -593699144 -1714806391 -1078653551 560095108 -1366281268 494825745 6750807 -2069948661 1732742025 1377223467 -619613988 -923933614 -1601876192 1973723924 -1649022637 -2125627339 677141352 -1382459614 -671436306 -880111629 2082400716 1830438100 2098570239 -693276657 -552635944 -304112476
REM
CELL 1.54180   50.00000   50.00000   50.00000   90.00000   90.00000   90.00000
LATT -1
SFAC C  
C      1  0.4790610000000  0.5753390000000  0.5402500000000 1.0
C      1  0.4656880000000  0.5003370000000  0.4945060000000 1.0
C      1  0.5021120000000  0.4663190000000  0.6458500000000 1.0
C      1  0.4474970000000  0.5438080000000  0.4955110000000 1.0
C      1  0.6071830000000  0.5021050000000  0.5466300000000 1.0
C      1  0.4222140000000  0.5328780000000  0.5021540000000 1.0
C      1  0.5059720000000  0.5621630000000  0.6193430000000 1.0
C      1  0.3998300000000  0.4126890000000  0.5308170000000 1.0
C      1  0.5249050000000  0.4602720000000  0.5993760000000 1.0
C      1  0.4836360000000  0.4628070000000  0.3913280000000 1.0
C      1  0.5857300000000  0.5834280000000  0.4582660000000 1.0
C      1  0.5247750000000  0.5967220000000  0.5834750000000 1.0
C      1  0.3586840000000  0.4381650000000  0.5273960000000 1.0
C      1  0.5018020000000  0.5877930000000  0.4100980000000 1.0
C      1  0.5059270000000  0.6154120000000  0.5734720000000 1.0
C      1  0.5864260000000  0.5419870000000  0.5585620000000 1.0
C      1  0.4060340000000  0.5445930000000  0.4483680000000 1.0
C      1  0.4878840000000  0.5535500000000  0.5570230000000 1.0
C      1  0.6103430000000  0.5421040000000  0.5153820000000 1.0
C      1  0.5257020000000  0.4806060000000  0.4245300000000 1.0
C      1  0.5993560000000  0.4810480000000  0.4863070000000 1.0
C      1  0.5698240000000  0.4353200000000  0.4287180000000 1.0
C      1  0.5263630000000  0.6201300000000  0.4852320000000 1.0
C      1  0.5303550000000  0.4728180000000  0.3972030000000 1.0
C      1  0.4569670000000  0.4237410000000  0.3951470000000 1.0
C      1  0.4822260000000  0.4331340000000  0.6075570000000 1.0
C      1  0.5507220000000  0.4128290000000  0.5530290000000 1.0
C      1  0.4892220000000  0.3643250000000  0.4782820000000 1.0
C      1  0.5409980000000  0.5800560000000  0.4390230000000 1.0
C      1  0.5464360000000  0.4265850000000  0.4171970000000 1.0
C      1  0.4757390000000  0.3997920000000  0.5477350000000 1.0
C      1  0.5021380000000  0.4207180000000  0.5892850000000 1.0
C      1  0.5890800000000  0.5359560000000  0.4538290000000 1.0
C      1  0.5980500000000  0.4575100000000  0.5684820000000 1.0
C      1  0.5351940000000  0.4490270000000  0.4642060000000 1.0
C      1  0.4963830000000  0.5172140000000  0.4436910000000 1.0
C      1  0.3989300000000  0.4620410000000  0.5155300000000 1.0
C      1  0.4054420000000  0.5276740000000  0.4243630000000 1.0
C      1  0.4733200000000  0.5901530000000  0.4148790000000 1.0
C      1  0.4284440000000  0.4861960000000  0.5986500000000 1.0
C      1  0.4668750000000  0.6045890000000  0.4388270000000 1.0
C      1  0.5437290000000  0.5317690000000  0.4947270000000 1.0
C      1  0.4870600000000  0.6190670000000  0.5525210000000 1.0
C      1  0.5185490000000  0.4270980000000  0.4080100000000 1.0
C      1  0.5145470000000  0.5116030000000  0.5319260000000 1.0
C      1  0.5628610000000  0.5477420000000  0.3944120000000 1.0
C      1  0.4704170000000  0.4175490000000  0.4192370000000 1.0
C      1  0.4991950000000  0.3685460000000  0.4534770000000 1.0
C      1  0.5037700000000  0.3849780000000  0.4326370000000 1.0
C      1  0.3940670000000  0.4852410000000  0.4463170000000 1.0
C      1  0.4564910000000  0.4627260000000  0.5217280000000 1.0
C      1  0.4171620000000  0.5101960000000  0.5937150000000 1.0
C      1  0.5192550000000  0.4497030000000  0.5396320000000 1.0
C      1  0.5151110000000  0.3877500000000  0.5243900000000 1.0
C      1  0.5493090000000  0.5226390000000  0.5958900000000 1.0
C      1  0.4935300000000  0.4234700000000  0.4769170000000 1.0
C      1  0.5063710000000  0.4466570000000  0.4677610000000 1.0
C      1  0.5352330000000  0.5541860000000  0.3959220000000 1.0
C      1  0.4159920000000  0.5755630000000  0.5470760000000 1.0
C      1  0.3872020000000  0.4383910000000  0.5251020000000 1.0
C      1  0.4498640000000  0.5154830000000  0.5540630000000 1.0
C      1  0.4114010000000  0.5566560000000  0.5681500000000 1.0
C      1  0.5301690000000  0.4742710000000  0.5002310000000 1.0
C      1  0.4097450000000  0.4988420000000  0.4263920000000 1.0
C      1  0.5670310000000  0.4733200000000  0.6051040000000 1.0
C      1  0.6126920000000  0.4735510000000  0.5500570000000 1.0
C      1  0.5682530000000  0.5194280000000  0.5006080000000 1.0
C      1  0.5116710000000  0.5520570000000  0.5736260000000 1.0
C      1  0.4374500000000  0.5949670000000  0.5511440000000 1.0
C      1  0.5275450000000  0.5760760000000  0.4134650000000 1.0
C      1  0.4705940000000  0.4863010000000  0.5178720000000 1.0
C      1  0.6165540000000  0.5135670000000  0.5202980000000 1.0
C      1  0.4968960000000  0.5388750000000  0.6301540000000 1.0
C      1  0.4012390000000  0.4864820000000  0.4735010000000 1.0
C      1  0.4570860000000  0.5733880000000  0.3977470000000 1.0
C      1  0.5236660000000  0.5105270000000  0.3404510000000 1.0
C      1  0.5339230000000  0.5148760000000  0.5521970000000 1.0
C      1  0.4660910000000  0.5986340000000  0.5510410000000 1.0
C      1  0.5601040000000  0.4958850000000  0.4500440000000 1.0
C      1  0.4019290000000  0.5705900000000  0.5219190000000 1.0
C      1  0.5021080000000  0.4958180000000  0.4268810000000 1.0
C      1  0.5723370000000  0.5952790000000  0.5564670000000 1.0
C      1  0.5242910000000  0.3995820000000  0.5494970000000 1.0
C      1  0.4176210000000  0.5078340000000  0.5145940000000 1.0
C      1  0.5301570000000  0.3861370000000  0.5008800000000 1.0
C      1  0.4523470000000  0.5720570000000  0.4987320000000 1.0
C      1  0.4337930000000  0.4668900000000  0.3895670000000 1.0
C      1  0.4573300000000  0.5467140000000  0.4440390000000 1.0
C      1  0.4755290000000  0.5301480000000  0.4566070000000 1.0
C      1  0.4323980000000  0.5549350000000  0.4478140000000 1.0
C      1  0.4499770000000  0.4110970000000  0.5533070000000 1.0
C      1  0.4303720000000  0.4831720000000  0.4135520000000 1.0
C      1  0.4884100000000  0.4449140000000  0.6328380000000 1.0
C      1  0.4116330000000  0.5346690000000  0.5837520000000 1.0
C      1  0.4810790000000  0.6580170000000  0.5246900000000 1.0
C      1  0.5606380000000  0.5968090000000  0.4538130000000 1.0
C      1  0.4968640000000  0.5382150000000  0.4972000000000 1.0
C      1  0.4109480000000  0.5425900000000  0.4000850000000 1.0
C      1  0.6209000000000  0.4880260000000  0.5043480000000 1.0
C      1  0.5422830000000  0.4581180000000  0.5504130000000 1.0
C      1  0.4576820000000  0.4504110000000  0.3856450000000 1.0
C      1  0.4263930000000  0.4076470000000  0.5383780000000 1.0
C      1  0.5751570000000  0.4514270000000  0.5853700000000 1.0
C      1  0.5430940000000  0.4923610000000  0.3811920000000 1.0
C      1  0.4856070000000  0.3871600000000  0.5228510000000 1.0
C      1  0.4977610000000  0.5661490000000  0.4965740000000 1.0
C      1  0.4606720000000  0.4300570000000  0.4434980000000 1.0
C      1  0.3545520000000  0.3916760000000  0.5311270000000 1.0
C      1  0.3131450000000  0.4188700000000  0.5302470000000 1.0
C      1  0.5650870000000  0.4191820000000  0.5284490000000 1.0
C      1  0.2871960000000  0.4212270000000  0.5308350000000 1.0
C      1  0.3973570000000  0.5365210000000  0.3770630000000 1.0
C      1  0.6383310000000  0.4019100000000  0.5019320000000 1.0
C      1  0.4695460000000  0.5323630000000  0.5596300000000 1.0
C      1  0.4418630000000  0.5912790000000  0.4810280000000 1.0
C      1  0.5665840000000  0.5020790000000  0.6017290000000 1.0
C      1  0.3915330000000  0.5515300000000  0.4722540000000 1.0
C      1  0.4729890000000  0.5584200000000  0.3796310000000 1.0
C      1  0.5302930000000  0.4686170000000  0.6449290000000 1.0
C      1  0.5918410000000  0.5855310000000  0.5382760000000 1.0
C      1  0.5699970000000  0.4281890000000  0.5013230000000 1.0
C      1  0.5296300000000  0.5631440000000  0.4595060000000 1.0
C      1  0.5279030000000  0.5126190000000  0.3674720000000 1.0
C      1  0.4742940000000  0.3797100000000  0.4973300000000 1.0
C      1  0.5699180000000  0.5001800000000  0.3859970000000 1.0
C      1  0.4713190000000  0.5274130000000  0.4858980000000 1.0
C      1  0.5923380000000  0.6240730000000  0.5071770000000 1.0
C      1  0.4869810000000  0.4655680000000  0.4600020000000 1.0
C      1  0.4795620000000  0.4884200000000  0.4083360000000 1.0
C      1  0.5969870000000  0.4553380000000  0.4723330000000 1.0
C      1  0.5079470000000  0.4801400000000  0.5895610000000 1.0
C      1  0.5209650000000  0.4907090000000  0.4805650000000 1.0
C      1  0.3407260000000  0.4163610000000  0.5296220000000 1.0
C      1  0.5434150000000  0.4666190000000  0.6202380000000 1.0
C      1  0.4053990000000  0.4856320000000  0.5013520000000 1.0
C      1  0.5543150000000  0.4282860000000  0.5788990000000 1.0
C      1  0.5075620000000  0.6051980000000  0.4704330000000 1.0
C      1  0.4469880000000  0.4673580000000  0.6089250000000 1.0
C      1  0.5194080000000  0.5270170000000  0.5086650000000 1.0
C      1  0.3816350000000  0.3906980000000  0.5311530000000 1.0
C      1  0.4992120000000  0.4053960000000  0.5651880000000 1.0
C      1  0.4284060000000  0.3901180000000  0.4824480000000 1.0
C      1  0.6262150000000  0.4676320000000  0.5250700000000 1.0
C      1  0.4460810000000  0.4420980000000  0.5098440000000 1.0
C      1  0.4636870000000  0.4592690000000  0.4449810000000 1.0
C      1  0.5983220000000  0.5591590000000  0.4671210000000 1.0
C      1  0.3719500000000  0.4710320000000  0.4385970000000 1.0
C      1  0.5173790000000  0.5354700000000  0.3820460000000 1.0
C      1  0.4475980000000  0.4295620000000  0.5744600000000 1.0
C      1  0.4913450000000  0.5114390000000  0.6254440000000 1.0
C      1  0.5492560000000  0.4279810000000  0.4805000000000 1.0
C      1  0.5750720000000  0.4924490000000  0.4962870000000 1.0
C      1  0.5872170000000  0.4479610000000  0.4459190000000 1.0
C      1  0.4888210000000  0.5357310000000  0.3831520000000 1.0
C      1  0.5144070000000  0.5720130000000  0.5939820000000 1.0
C      1  0.5276940000000  0.4337300000000  0.5907720000000 1.0
C      1  0.6041830000000  0.6009550000000  0.5175520000000 1.0
C      1  0.5164670000000  0.6285370000000  0.5109240000000 1.0
C      1  0.4549300000000  0.3961350000000  0.4836780000000 1.0
C      1  0.4963160000000  0.5023470000000  0.5989610000000 1.0
C      1  0.4573920000000  0.4433570000000  0.5964760000000 1.0
C      1  0.4448890000000  0.6014020000000  0.4562040000000 1.0
C      1  0.5632690000000  0.5241220000000  0.4525300000000 1.0
C      1  0.5513070000000  0.5976460000000  0.5730780000000 1.0
C      1  0.4560520000000  0.4798250000000  0.4264500000000 1.0
C      1  0.4771300000000  0.5761640000000  0.5120480000000 1.0
C      1  0.5568050000000  0.4761520000000  0.5097600000000 1.0
C      1  0.5108940000000  0.4663500000000  0.5193960000000 1.0
C      1  0.4756670000000  0.5119590000000  0.3907280000000 1.0
C      1  0.5384630000000  0.4015520000000  0.4804990000000 1.0
C      1  0.5103440000000  0.5773540000000  0.4747700000000 1.0
C      1  0.5107420000000  0.4515910000000  0.3932810000000 1.0
C      1  0.6180220000000  0.4173180000000  0.4965240000000 1.0
C      1  0.4831700000000  0.4889960000000  0.6415180000000 1.0
C      1  0.4294130000000  0.5056720000000  0.5399720000000 1.0
C      1  0.4011830000000  0.5521900000000  0.4995200000000 1.0
C      1  0.5777670000000  0.5255400000000  0.3911640000000 1.0
C      1  0.6209280000000  0.5857420000000  0.5002340000000 1.0
C      1  0.5837860000000  0.5143780000000  0.5562970000000 1.0
C      1  0.5960010000000  0.4333590000000  0.4910480000000 1.0
C      1  0.5975550000000  0.5573090000000  0.5377950000000 1.0
C      1  0.5584840000000  0.4768140000000  0.5380580000000 1.0
C      1  0.5531290000000  0.6173820000000  0.4741940000000 1.0
C      1  0.4304030000000  0.5637090000000  0.3999850000000 1.0
C      1  0.4605510000000  0.4746930000000  0.6323610000000 1.0
C      1  0.4982160000000  0.4089880000000  0.4185490000000 1.0
C      1  0.5592750000000  0.5021760000000  0.5499340000000 1.0
C      1  0.5739380000000  0.6297580000000  0.4886390000000 1.0
C      1  0.4893430000000  0.6155860000000  0.4521620000000 1.0
C      1  0.6132540000000  0.5593340000000  0.4919340000000 1.0
C      1  0.5310670000000  0.5309440000000  0.5750440000000 1.0
C      1  0.4672570000000  0.4163640000000  0.4681000000000 1.0
C      1  0.4965410000000  0.4892230000000  0.5282280000000 1.0
C      1  0.5430430000000  0.5394250000000  0.4670630000000 1.0
C      1  0.4952110000000  0.6348130000000  0.5294220000000 1.0
C      1  0.5427410000000  0.4731020000000  0.4466360000000 1.0
END
