TITL C-612602-9376-424 62930.5401507661 125000 -587.174579561204 0 0 98 (C1) n - 1
REM
REM in /home/nfs/bkarasulu/CARBON/AIRSS/Generating-Clusters/TERSOFF/Only-C1/FIRE-HFTN
REM
REM
REM
REM
REM
REM ./C.cell (11c1c37f851c82e70ff6c80c92926a4b)
REM AIRSS Version 0.9.1 bugfix July 2018 build 013d7b7c2542+ Fri, 06 Jul 2018 19:26:36 +0100
REM compiler GCC version 9.2.1 20190827 (Red Hat 9.2.1-1)
REM options -cpp -mtune=generic -march=x86-64 -g -O0 -fpre-include=/usr/include/finclude/math-vector-fortran.h
REM seed 29767553 -1666527078 87488483 -1612059177 -572307048 -1247685233 1246011303 -151507166 -873509910 302004162 -511834972 -904895244 795686582 875829867 1878038591 -674653702 -704786268 -1134296802 1664587320 -800592846 -1334692746 -1113094563 -2011949266 -19199678 1083721016 -1319510582 158361997 918080369 -1900146502 1922162266 1274653499 -1385463892 423286584
REM
CELL 1.54180   50.00000   50.00000   50.00000   90.00000   90.00000   90.00000
LATT -1
SFAC C  
C      1  0.4302600000000  0.5041550000000  0.5622820000000 1.0
C      1  0.4961420000000  0.6090200000000  0.4897330000000 1.0
C      1  0.4652740000000  0.4678120000000  0.4828650000000 1.0
C      1  0.5058470000000  0.4522120000000  0.5916080000000 1.0
C      1  0.5711240000000  0.4905130000000  0.4985060000000 1.0
C      1  0.5069180000000  0.4087890000000  0.4560660000000 1.0
C      1  0.4588250000000  0.5494740000000  0.5542210000000 1.0
C      1  0.4331720000000  0.5515350000000  0.4510810000000 1.0
C      1  0.5095860000000  0.5545100000000  0.5579500000000 1.0
C      1  0.4248600000000  0.5232800000000  0.4539590000000 1.0
C      1  0.5761370000000  0.4983240000000  0.5630850000000 1.0
C      1  0.5266600000000  0.4661240000000  0.4200950000000 1.0
C      1  0.4854080000000  0.5694740000000  0.4355750000000 1.0
C      1  0.5659990000000  0.4634160000000  0.5086730000000 1.0
C      1  0.5070770000000  0.5278780000000  0.5675430000000 1.0
C      1  0.4446410000000  0.4480230000000  0.4823890000000 1.0
C      1  0.4382650000000  0.5029800000000  0.4074240000000 1.0
C      1  0.5602500000000  0.4166160000000  0.5013890000000 1.0
C      1  0.4903170000000  0.5034750000000  0.4029990000000 1.0
C      1  0.4949700000000  0.4403590000000  0.6126390000000 1.0
C      1  0.4967450000000  0.5560220000000  0.4124980000000 1.0
C      1  0.5443920000000  0.4606070000000  0.5618190000000 1.0
C      1  0.4275810000000  0.4576090000000  0.5048540000000 1.0
C      1  0.5844100000000  0.5110720000000  0.5150860000000 1.0
C      1  0.4613020000000  0.5547390000000  0.4447710000000 1.0
C      1  0.5600900000000  0.4464830000000  0.4594440000000 1.0
C      1  0.4795610000000  0.4721390000000  0.4380370000000 1.0
C      1  0.5667820000000  0.4737510000000  0.5757140000000 1.0
C      1  0.5020520000000  0.4236620000000  0.5015430000000 1.0
C      1  0.5297010000000  0.5081990000000  0.4439160000000 1.0
C      1  0.5346760000000  0.5609960000000  0.5437720000000 1.0
C      1  0.5550590000000  0.5405790000000  0.5406200000000 1.0
C      1  0.5482210000000  0.4052100000000  0.5227620000000 1.0
C      1  0.4944430000000  0.5468610000000  0.4958770000000 1.0
C      1  0.5069260000000  0.5500390000000  0.4705570000000 1.0
C      1  0.4765550000000  0.5111080000000  0.4710680000000 1.0
C      1  0.5023790000000  0.4356830000000  0.4491010000000 1.0
C      1  0.5476510000000  0.4542190000000  0.4352200000000 1.0
C      1  0.5713850000000  0.5380410000000  0.5166490000000 1.0
C      1  0.4626160000000  0.5013420000000  0.3962490000000 1.0
C      1  0.4900460000000  0.5641140000000  0.5180040000000 1.0
C      1  0.5358710000000  0.5812330000000  0.5236920000000 1.0
C      1  0.4418080000000  0.5635170000000  0.5105560000000 1.0
C      1  0.4752280000000  0.4190750000000  0.5413220000000 1.0
C      1  0.4747240000000  0.4848730000000  0.4632370000000 1.0
C      1  0.4510060000000  0.4308870000000  0.5421870000000 1.0
C      1  0.4344750000000  0.4530830000000  0.5352000000000 1.0
C      1  0.5436910000000  0.4986260000000  0.4873690000000 1.0
C      1  0.5944420000000  0.5018770000000  0.5408910000000 1.0
C      1  0.4838520000000  0.4291290000000  0.6339160000000 1.0
C      1  0.5038060000000  0.4029390000000  0.4822300000000 1.0
C      1  0.5603250000000  0.5508800000000  0.4908770000000 1.0
C      1  0.5242000000000  0.4937220000000  0.5096360000000 1.0
C      1  0.4847600000000  0.5629360000000  0.5468170000000 1.0
C      1  0.4852230000000  0.4738400000000  0.5285050000000 1.0
C      1  0.4238330000000  0.5094530000000  0.4290750000000 1.0
C      1  0.4999530000000  0.5304730000000  0.4034560000000 1.0
C      1  0.5510610000000  0.5129740000000  0.4257260000000 1.0
C      1  0.4407800000000  0.4797480000000  0.5482700000000 1.0
C      1  0.4547740000000  0.4924980000000  0.5234100000000 1.0
C      1  0.4699880000000  0.6049720000000  0.4958050000000 1.0
C      1  0.5002400000000  0.4156420000000  0.5287790000000 1.0
C      1  0.5507930000000  0.4666610000000  0.5341200000000 1.0
C      1  0.4048360000000  0.5014660000000  0.5214670000000 1.0
C      1  0.4959690000000  0.4820230000000  0.5536160000000 1.0
C      1  0.4754410000000  0.4434660000000  0.4415890000000 1.0
C      1  0.4719370000000  0.5289510000000  0.4506140000000 1.0
C      1  0.5832130000000  0.5473060000000  0.4448420000000 1.0
C      1  0.5377750000000  0.5797740000000  0.4954620000000 1.0
C      1  0.5045120000000  0.5751840000000  0.4574830000000 1.0
C      1  0.5044810000000  0.4731250000000  0.5089920000000 1.0
C      1  0.5248770000000  0.5315180000000  0.4608080000000 1.0
C      1  0.4999990000000  0.4805650000000  0.4185130000000 1.0
C      1  0.5085590000000  0.4504080000000  0.4934850000000 1.0
C      1  0.4257880000000  0.5070290000000  0.4779090000000 1.0
C      1  0.4498280000000  0.5421100000000  0.5272550000000 1.0
C      1  0.5157220000000  0.4568670000000  0.4661410000000 1.0
C      1  0.4516540000000  0.4346640000000  0.4571790000000 1.0
C      1  0.4458900000000  0.5280370000000  0.5703550000000 1.0
C      1  0.5164740000000  0.5924730000000  0.4780920000000 1.0
C      1  0.5296520000000  0.4846400000000  0.4628140000000 1.0
C      1  0.4280110000000  0.4900600000000  0.5037220000000 1.0
C      1  0.4809790000000  0.5221100000000  0.4970530000000 1.0
C      1  0.5155460000000  0.4652070000000  0.5685920000000 1.0
C      1  0.4058160000000  0.5091550000000  0.5476450000000 1.0
C      1  0.5722390000000  0.5296730000000  0.4276930000000 1.0
C      1  0.5445380000000  0.5277140000000  0.4808400000000 1.0
C      1  0.5395790000000  0.4945150000000  0.5333770000000 1.0
C      1  0.5799270000000  0.5573990000000  0.4697410000000 1.0
C      1  0.5314510000000  0.5172940000000  0.5766350000000 1.0
C      1  0.4904030000000  0.5106280000000  0.5525820000000 1.0
C      1  0.4155130000000  0.5722930000000  0.4526080000000 1.0
C      1  0.5252330000000  0.4052830000000  0.5372870000000 1.0
C      1  0.4671280000000  0.5175550000000  0.5227000000000 1.0
C      1  0.5638360000000  0.4419920000000  0.4888730000000 1.0
C      1  0.4729840000000  0.4183650000000  0.6550250000000 1.0
C      1  0.5510470000000  0.5140140000000  0.5548480000000 1.0
C      1  0.4500270000000  0.5876570000000  0.5014410000000 1.0
END
