TITL C-612600-6631-785 -0.0158634172240003 125000 -210.893524876867 0 0 37 (C1) n - 1
REM
REM in /home/nfs/bkarasulu/CARBON/AIRSS/Generating-Clusters/TERSOFF/Only-C1/FIRE-HFTN
REM
REM
REM
REM
REM
REM ./C.cell (11c1c37f851c82e70ff6c80c92926a4b)
REM AIRSS Version 0.9.1 bugfix July 2018 build 013d7b7c2542+ Fri, 06 Jul 2018 19:26:36 +0100
REM compiler GCC version 9.2.1 20190827 (Red Hat 9.2.1-1)
REM options -cpp -mtune=generic -march=x86-64 -g -O0 -fpre-include=/usr/include/finclude/math-vector-fortran.h
REM seed 238693058 -1265514212 -1789281489 519879181 1174634080 1753282586 -1519616275 -1804203784 1976764988 -947354420 -548870420 355127196 823700229 -1789717706 -1546790656 1600345774 -1953305077 419648386 2132929964 -1978949855 1039924041 -72801502 2146100300 1374983102 1771010940 1184224201 521706461 766515397 -1768374675 1834574931 445430989 -856953822 -180908739
REM
CELL 1.54180   50.00000   50.00000   50.00000   90.00000   90.00000   90.00000
LATT -1
SFAC C  
C      1  0.4275030000000  0.4946860000000  0.5958270000000 1.0
C      1  0.4710190000000  0.4526330000000  0.4592030000000 1.0
C      1  0.4559250000000  0.5224090000000  0.4296640000000 1.0
C      1  0.4882170000000  0.5468050000000  0.5262230000000 1.0
C      1  0.5415290000000  0.4525980000000  0.4746530000000 1.0
C      1  0.4834910000000  0.4662080000000  0.5328460000000 1.0
C      1  0.5274090000000  0.5753450000000  0.5281060000000 1.0
C      1  0.5298160000000  0.5306030000000  0.5457330000000 1.0
C      1  0.5306820000000  0.4783280000000  0.5452430000000 1.0
C      1  0.4743740000000  0.5014610000000  0.4263030000000 1.0
C      1  0.5360730000000  0.5053070000000  0.5512280000000 1.0
C      1  0.4452550000000  0.4546780000000  0.5047780000000 1.0
C      1  0.5871550000000  0.5350370000000  0.4909070000000 1.0
C      1  0.5479790000000  0.4979410000000  0.4874750000000 1.0
C      1  0.4958950000000  0.4657440000000  0.5069620000000 1.0
C      1  0.5212080000000  0.4510470000000  0.4564430000000 1.0
C      1  0.5212910000000  0.5037870000000  0.4794990000000 1.0
C      1  0.4960950000000  0.4892730000000  0.4389770000000 1.0
C      1  0.5144460000000  0.5063380000000  0.4523450000000 1.0
C      1  0.4409380000000  0.5105810000000  0.5801290000000 1.0
C      1  0.4702830000000  0.5382770000000  0.5459170000000 1.0
C      1  0.5458270000000  0.4664100000000  0.5238300000000 1.0
C      1  0.5688690000000  0.5160910000000  0.4879990000000 1.0
C      1  0.4524510000000  0.4518120000000  0.4788220000000 1.0
C      1  0.4550220000000  0.5257390000000  0.5635640000000 1.0
C      1  0.5041350000000  0.4692740000000  0.5519390000000 1.0
C      1  0.6046170000000  0.5540850000000  0.4943550000000 1.0
C      1  0.5020030000000  0.4402780000000  0.4986690000000 1.0
C      1  0.5154820000000  0.5512810000000  0.5332850000000 1.0
C      1  0.4560010000000  0.4604900000000  0.5292240000000 1.0
C      1  0.4363740000000  0.5272520000000  0.4112480000000 1.0
C      1  0.5499110000000  0.4703200000000  0.4956960000000 1.0
C      1  0.4674950000000  0.5470280000000  0.4762030000000 1.0
C      1  0.5017650000000  0.4906940000000  0.4954000000000 1.0
C      1  0.4957910000000  0.4620690000000  0.4485880000000 1.0
C      1  0.4791900000000  0.5499670000000  0.4998880000000 1.0
C      1  0.4584860000000  0.5381230000000  0.4528280000000 1.0
END
