TITL C-612607-4507-16 -241561.851458514 125000 -1125.81597783402 0 0 187 (C1) n - 1
REM
REM in /home/nfs/bkarasulu/CARBON/AIRSS/Generating-Clusters/TERSOFF/Only-C1/FIRE-HFTN
REM
REM
REM
REM
REM
REM ./C.cell (11c1c37f851c82e70ff6c80c92926a4b)
REM AIRSS Version 0.9.1 bugfix July 2018 build 013d7b7c2542+ Fri, 06 Jul 2018 19:26:36 +0100
REM compiler GCC version 9.2.1 20190827 (Red Hat 9.2.1-1)
REM options -cpp -mtune=generic -march=x86-64 -g -O0 -fpre-include=/usr/include/finclude/math-vector-fortran.h
REM seed 517460002 734636871 93515659 -969165778 -1704666014 -1584582279 -124585301 1422382628 1355992671 2076143323 947725477 -1600717421 -2066139463 -1084636263 -1011276293 26631651 -2016609889 -1542739837 -2111740386 -67915117 973627633 -867174249 1207765501 477015039 502452397 -1041906163 -278307301 -1707797108 279097265 237320187 -1981038033 122089715 1185070059
REM
CELL 1.54180   50.00000   50.00000   50.00000   90.00000   90.00000   90.00000
LATT -1
SFAC C  
C      1  0.5791320000000  0.5109610000000  0.5295340000000 1.0
C      1  0.4627670000000  0.5369130000000  0.4127500000000 1.0
C      1  0.4717700000000  0.4570120000000  0.3823330000000 1.0
C      1  0.6105950000000  0.5400480000000  0.4568690000000 1.0
C      1  0.5937950000000  0.4592880000000  0.5628540000000 1.0
C      1  0.5853400000000  0.4831830000000  0.5254610000000 1.0
C      1  0.4791980000000  0.4471480000000  0.5459950000000 1.0
C      1  0.5897220000000  0.3911860000000  0.4452320000000 1.0
C      1  0.5234180000000  0.4820530000000  0.4939010000000 1.0
C      1  0.4971170000000  0.6034210000000  0.5657450000000 1.0
C      1  0.5610500000000  0.5080490000000  0.6208290000000 1.0
C      1  0.3748170000000  0.5253150000000  0.5401400000000 1.0
C      1  0.3768020000000  0.4931570000000  0.4563380000000 1.0
C      1  0.5325340000000  0.4255260000000  0.5455210000000 1.0
C      1  0.5990250000000  0.5130870000000  0.5596400000000 1.0
C      1  0.4294760000000  0.5183780000000  0.4519220000000 1.0
C      1  0.5946110000000  0.4350570000000  0.5456220000000 1.0
C      1  0.4990380000000  0.5456300000000  0.5499130000000 1.0
C      1  0.5345630000000  0.5652400000000  0.6082090000000 1.0
C      1  0.4689740000000  0.5452320000000  0.6365810000000 1.0
C      1  0.4937400000000  0.6065890000000  0.5368900000000 1.0
C      1  0.3912710000000  0.5342730000000  0.4870500000000 1.0
C      1  0.4401620000000  0.5041040000000  0.5043330000000 1.0
C      1  0.4497520000000  0.4437980000000  0.5473550000000 1.0
C      1  0.4156030000000  0.4310940000000  0.4784350000000 1.0
C      1  0.5407240000000  0.4609880000000  0.6126180000000 1.0
C      1  0.4705430000000  0.5925410000000  0.5252630000000 1.0
C      1  0.5449220000000  0.6179990000000  0.4993620000000 1.0
C      1  0.4581180000000  0.5214180000000  0.5990590000000 1.0
C      1  0.5609490000000  0.5131680000000  0.4465690000000 1.0
C      1  0.4520050000000  0.5296600000000  0.4996320000000 1.0
C      1  0.5386010000000  0.5263000000000  0.5061460000000 1.0
C      1  0.4171080000000  0.5603670000000  0.4382310000000 1.0
C      1  0.4273950000000  0.4890270000000  0.4551270000000 1.0
C      1  0.5970820000000  0.5310350000000  0.4814320000000 1.0
C      1  0.5845010000000  0.4661250000000  0.4031190000000 1.0
C      1  0.5397520000000  0.4854720000000  0.5339060000000 1.0
C      1  0.5278060000000  0.4660730000000  0.4715370000000 1.0
C      1  0.4522410000000  0.5236760000000  0.6267640000000 1.0
C      1  0.5077020000000  0.5755930000000  0.6096080000000 1.0
C      1  0.5122590000000  0.5591970000000  0.4109370000000 1.0
C      1  0.5403430000000  0.5599070000000  0.4148310000000 1.0
C      1  0.5770700000000  0.4162390000000  0.5593080000000 1.0
C      1  0.4439570000000  0.4376260000000  0.4923890000000 1.0
C      1  0.5708730000000  0.3996580000000  0.4611170000000 1.0
C      1  0.4470090000000  0.5621280000000  0.5703150000000 1.0
C      1  0.5931960000000  0.5219010000000  0.5854330000000 1.0
C      1  0.5560600000000  0.5754330000000  0.4333220000000 1.0
C      1  0.5083360000000  0.6458800000000  0.6216100000000 1.0
C      1  0.5504050000000  0.4248080000000  0.5694970000000 1.0
C      1  0.4528870000000  0.5913450000000  0.4814100000000 1.0
C      1  0.4774280000000  0.4990870000000  0.5635630000000 1.0
C      1  0.5727550000000  0.5743190000000  0.5214020000000 1.0
C      1  0.4596100000000  0.5068650000000  0.4172670000000 1.0
C      1  0.4029940000000  0.4557620000000  0.4330470000000 1.0
C      1  0.4073650000000  0.5458840000000  0.5085130000000 1.0
C      1  0.5949780000000  0.5720560000000  0.5043310000000 1.0
C      1  0.4086880000000  0.5807080000000  0.4573860000000 1.0
C      1  0.4821380000000  0.3768180000000  0.4705040000000 1.0
C      1  0.4447670000000  0.4948470000000  0.5302850000000 1.0
C      1  0.5139970000000  0.5040650000000  0.6137630000000 1.0
C      1  0.4299380000000  0.5777320000000  0.5555310000000 1.0
C      1  0.5169870000000  0.5032840000000  0.3481320000000 1.0
C      1  0.5383180000000  0.4896140000000  0.6203090000000 1.0
C      1  0.5696860000000  0.4661750000000  0.5777470000000 1.0
C      1  0.5510480000000  0.4059720000000  0.4794930000000 1.0
C      1  0.4880430000000  0.5627340000000  0.6269730000000 1.0
C      1  0.4064830000000  0.5949250000000  0.5097710000000 1.0
C      1  0.4599230000000  0.4113390000000  0.4904690000000 1.0
C      1  0.5017320000000  0.4818880000000  0.3527090000000 1.0
C      1  0.5328050000000  0.5393370000000  0.4821250000000 1.0
C      1  0.4348000000000  0.5008860000000  0.6322070000000 1.0
C      1  0.5142750000000  0.4636850000000  0.4261800000000 1.0
C      1  0.5917620000000  0.5856610000000  0.4785540000000 1.0
C      1  0.6065110000000  0.5460400000000  0.5034250000000 1.0
C      1  0.4681820000000  0.4710730000000  0.6006190000000 1.0
C      1  0.5221590000000  0.4504260000000  0.3823200000000 1.0
C      1  0.4686550000000  0.5329050000000  0.4769750000000 1.0
C      1  0.4850060000000  0.4658070000000  0.4792790000000 1.0
C      1  0.6061470000000  0.4773240000000  0.4154350000000 1.0
C      1  0.4415670000000  0.4037060000000  0.4456920000000 1.0
C      1  0.6015650000000  0.4397470000000  0.5153650000000 1.0
C      1  0.5661130000000  0.6040270000000  0.4771560000000 1.0
C      1  0.4513610000000  0.5363920000000  0.4553880000000 1.0
C      1  0.4073130000000  0.4966620000000  0.5698280000000 1.0
C      1  0.5521930000000  0.4460140000000  0.5897600000000 1.0
C      1  0.4225960000000  0.4086610000000  0.5232110000000 1.0
C      1  0.4611280000000  0.3759040000000  0.3910980000000 1.0
C      1  0.4797550000000  0.3884090000000  0.4043670000000 1.0
C      1  0.5021660000000  0.6180050000000  0.4445360000000 1.0
C      1  0.5753380000000  0.5157720000000  0.4711970000000 1.0
C      1  0.4896350000000  0.4700260000000  0.5305470000000 1.0
C      1  0.6182670000000  0.5137270000000  0.4455910000000 1.0
C      1  0.4368010000000  0.5528300000000  0.5074800000000 1.0
C      1  0.5606580000000  0.4658830000000  0.5259270000000 1.0
C      1  0.6278610000000  0.5388470000000  0.5187270000000 1.0
C      1  0.5346260000000  0.4550130000000  0.4074120000000 1.0
C      1  0.5122220000000  0.5191080000000  0.5892230000000 1.0
C      1  0.5084710000000  0.5600170000000  0.5302790000000 1.0
C      1  0.6007390000000  0.5688370000000  0.4545240000000 1.0
C      1  0.4871060000000  0.4921890000000  0.4651490000000 1.0
C      1  0.4039700000000  0.5909090000000  0.4825620000000 1.0
C      1  0.4709810000000  0.4917750000000  0.4415330000000 1.0
C      1  0.4410640000000  0.4620510000000  0.5992170000000 1.0
C      1  0.4236390000000  0.4812790000000  0.6130880000000 1.0
C      1  0.4923880000000  0.4409830000000  0.5704160000000 1.0
C      1  0.5267010000000  0.3882500000000  0.4133250000000 1.0
C      1  0.6042580000000  0.4812440000000  0.5489120000000 1.0
C      1  0.4715110000000  0.4907960000000  0.5381000000000 1.0
C      1  0.5150840000000  0.4791450000000  0.5209010000000 1.0
C      1  0.3932820000000  0.5436990000000  0.5331520000000 1.0
C      1  0.5018330000000  0.3987130000000  0.4180900000000 1.0
C      1  0.5622180000000  0.4554900000000  0.4178540000000 1.0
C      1  0.5444920000000  0.5307160000000  0.5549180000000 1.0
C      1  0.4512640000000  0.4710850000000  0.4516710000000 1.0
C      1  0.4694610000000  0.4972580000000  0.5899300000000 1.0
C      1  0.4369950000000  0.4480850000000  0.5736240000000 1.0
C      1  0.5254730000000  0.5795210000000  0.5212260000000 1.0
C      1  0.5458030000000  0.3895600000000  0.5220130000000 1.0
C      1  0.4359730000000  0.4359950000000  0.5234150000000 1.0
C      1  0.4157690000000  0.5902030000000  0.5353910000000 1.0
C      1  0.5498490000000  0.5151760000000  0.5304410000000 1.0
C      1  0.4053850000000  0.5330620000000  0.4440500000000 1.0
C      1  0.5047370000000  0.3841250000000  0.4878340000000 1.0
C      1  0.4547100000000  0.4495190000000  0.4303890000000 1.0
C      1  0.5687150000000  0.5219190000000  0.4209570000000 1.0
C      1  0.5261080000000  0.4795340000000  0.4467050000000 1.0
C      1  0.5540390000000  0.4901340000000  0.5763170000000 1.0
C      1  0.4923520000000  0.5185120000000  0.4720230000000 1.0
C      1  0.5565390000000  0.4127120000000  0.5066400000000 1.0
C      1  0.5549300000000  0.5382730000000  0.4025890000000 1.0
C      1  0.5180540000000  0.5253910000000  0.4637360000000 1.0
C      1  0.5566530000000  0.5538470000000  0.5662360000000 1.0
C      1  0.5228560000000  0.6040950000000  0.4534180000000 1.0
C      1  0.4531740000000  0.5783060000000  0.5065820000000 1.0
C      1  0.6100060000000  0.4851810000000  0.4433000000000 1.0
C      1  0.4227180000000  0.4891570000000  0.4869690000000 1.0
C      1  0.5206370000000  0.4002930000000  0.5329930000000 1.0
C      1  0.4881450000000  0.5481820000000  0.4061210000000 1.0
C      1  0.5844860000000  0.5746300000000  0.4317460000000 1.0
C      1  0.4157440000000  0.4814820000000  0.4264410000000 1.0
C      1  0.5064700000000  0.4471450000000  0.4743770000000 1.0
C      1  0.4933820000000  0.5384380000000  0.5762160000000 1.0
C      1  0.5483150000000  0.5733270000000  0.5072850000000 1.0
C      1  0.4581210000000  0.4584210000000  0.4777950000000 1.0
C      1  0.5096180000000  0.4222350000000  0.4619450000000 1.0
C      1  0.4034790000000  0.4910850000000  0.5958000000000 1.0
C      1  0.3703700000000  0.5001730000000  0.5317370000000 1.0
C      1  0.5333400000000  0.5067500000000  0.4482510000000 1.0
C      1  0.5957660000000  0.4642710000000  0.4617320000000 1.0
C      1  0.3948070000000  0.4528800000000  0.4790830000000 1.0
C      1  0.4652730000000  0.5437380000000  0.5829330000000 1.0
C      1  0.4758560000000  0.6207820000000  0.4472130000000 1.0
C      1  0.5357000000000  0.5201170000000  0.3567990000000 1.0
C      1  0.4073390000000  0.4084100000000  0.4979820000000 1.0
C      1  0.5017910000000  0.5998640000000  0.5940290000000 1.0
C      1  0.4881540000000  0.4521090000000  0.5946990000000 1.0
C      1  0.4573220000000  0.6092990000000  0.4624100000000 1.0
C      1  0.4903230000000  0.4459470000000  0.4284930000000 1.0
C      1  0.4466360000000  0.5530580000000  0.4320010000000 1.0
C      1  0.4007270000000  0.4738610000000  0.4971870000000 1.0
C      1  0.5564950000000  0.5523590000000  0.5952900000000 1.0
C      1  0.4269590000000  0.4304400000000  0.4429020000000 1.0
C      1  0.4692150000000  0.3979670000000  0.5154280000000 1.0
C      1  0.5458490000000  0.5865700000000  0.4595700000000 1.0
C      1  0.4384370000000  0.4870310000000  0.4074850000000 1.0
C      1  0.3853300000000  0.5213040000000  0.4616370000000 1.0
C      1  0.6012840000000  0.4516190000000  0.4891530000000 1.0
C      1  0.5419830000000  0.5651260000000  0.4805300000000 1.0
C      1  0.5233170000000  0.4015420000000  0.4746590000000 1.0
C      1  0.5026770000000  0.6237970000000  0.6089660000000 1.0
C      1  0.4449110000000  0.3910460000000  0.5293220000000 1.0
C      1  0.5354890000000  0.5117420000000  0.5737660000000 1.0
C      1  0.4513990000000  0.4612120000000  0.4018480000000 1.0
C      1  0.5724270000000  0.4534130000000  0.4458680000000 1.0
C      1  0.3823820000000  0.4815800000000  0.5167380000000 1.0
C      1  0.4976310000000  0.3926340000000  0.5158290000000 1.0
C      1  0.5724100000000  0.5291310000000  0.6043240000000 1.0
C      1  0.5506980000000  0.4377930000000  0.5226800000000 1.0
C      1  0.4987030000000  0.4202470000000  0.4360700000000 1.0
C      1  0.5187820000000  0.6070350000000  0.5202740000000 1.0
C      1  0.4238910000000  0.4960020000000  0.5489700000000 1.0
C      1  0.5503680000000  0.5312170000000  0.3760130000000 1.0
C      1  0.4978020000000  0.4609660000000  0.3711300000000 1.0
C      1  0.4600200000000  0.3951680000000  0.4663760000000 1.0
C      1  0.5712420000000  0.5707700000000  0.5492620000000 1.0
C      1  0.3847360000000  0.4637920000000  0.4543490000000 1.0
END
