TITL C-612606-7351-330 0.167488801996416 125000 -1157.85671737495 0 0 187 (C1) n - 1
REM
REM in /home/nfs/bkarasulu/CARBON/AIRSS/Generating-Clusters/TERSOFF/Only-C1/FIRE-HFTN
REM
REM
REM
REM
REM
REM ./C.cell (11c1c37f851c82e70ff6c80c92926a4b)
REM AIRSS Version 0.9.1 bugfix July 2018 build 013d7b7c2542+ Fri, 06 Jul 2018 19:26:36 +0100
REM compiler GCC version 9.2.1 20190827 (Red Hat 9.2.1-1)
REM options -cpp -mtune=generic -march=x86-64 -g -O0 -fpre-include=/usr/include/finclude/math-vector-fortran.h
REM seed 985252914 523182674 -141581479 -1889207972 -1600884478 -1569184733 1219361 1280955287 -2112092109 -1100524569 -1874891654 1896620449 767014148 916741850 1398677905 1754136703 -86796077 -1229911225 -2092716349 1811086648 24378384 -765207202 260104140 -1383928834 -1857520386 -775839391 -1542581846 -1472973410 -1802904980 1929767036 2063232635 -1782291870 2147323947
REM
CELL 1.54180   50.00000   50.00000   50.00000   90.00000   90.00000   90.00000
LATT -1
SFAC C  
C      1  0.5099830000000  0.5027430000000  0.4074280000000 1.0
C      1  0.4880800000000  0.4599960000000  0.6257850000000 1.0
C      1  0.5946490000000  0.4199900000000  0.5529920000000 1.0
C      1  0.4640610000000  0.4807470000000  0.5223650000000 1.0
C      1  0.4870690000000  0.5990470000000  0.5404210000000 1.0
C      1  0.4418040000000  0.4325800000000  0.3899680000000 1.0
C      1  0.5950930000000  0.4868700000000  0.5558650000000 1.0
C      1  0.4188760000000  0.5697310000000  0.5729830000000 1.0
C      1  0.6374830000000  0.4578070000000  0.4916860000000 1.0
C      1  0.5365690000000  0.4860820000000  0.5128130000000 1.0
C      1  0.5314260000000  0.5386600000000  0.4330780000000 1.0
C      1  0.4816860000000  0.5286770000000  0.5655220000000 1.0
C      1  0.5916020000000  0.5504030000000  0.5513740000000 1.0
C      1  0.4344700000000  0.4793490000000  0.4187580000000 1.0
C      1  0.5692950000000  0.4672700000000  0.3959100000000 1.0
C      1  0.5498010000000  0.4612440000000  0.4575930000000 1.0
C      1  0.4756690000000  0.5863620000000  0.4635780000000 1.0
C      1  0.4790710000000  0.4867280000000  0.4334430000000 1.0
C      1  0.5005920000000  0.3805300000000  0.5326820000000 1.0
C      1  0.4185610000000  0.4555410000000  0.4270400000000 1.0
C      1  0.4724890000000  0.4406770000000  0.5534750000000 1.0
C      1  0.5108410000000  0.5301330000000  0.4145400000000 1.0
C      1  0.5798990000000  0.5029030000000  0.4957770000000 1.0
C      1  0.5948830000000  0.3770960000000  0.4702800000000 1.0
C      1  0.4735510000000  0.4682130000000  0.4760110000000 1.0
C      1  0.4652330000000  0.6069660000000  0.5223770000000 1.0
C      1  0.4341480000000  0.4542460000000  0.5772970000000 1.0
C      1  0.4816470000000  0.5570330000000  0.5741520000000 1.0
C      1  0.4974590000000  0.4005990000000  0.5524500000000 1.0
C      1  0.6085430000000  0.4981610000000  0.4960670000000 1.0
C      1  0.4211600000000  0.4351080000000  0.4072700000000 1.0
C      1  0.4468820000000  0.5497710000000  0.4826300000000 1.0
C      1  0.5085020000000  0.4417120000000  0.5205730000000 1.0
C      1  0.6020300000000  0.5220880000000  0.4338290000000 1.0
C      1  0.5861180000000  0.5589810000000  0.5231380000000 1.0
C      1  0.5645920000000  0.4861360000000  0.5128390000000 1.0
C      1  0.4054940000000  0.4898040000000  0.4868730000000 1.0
C      1  0.5298220000000  0.5197930000000  0.5823430000000 1.0
C      1  0.4528670000000  0.4559660000000  0.5146510000000 1.0
C      1  0.5985160000000  0.4556710000000  0.5209950000000 1.0
C      1  0.4829430000000  0.5992940000000  0.4383660000000 1.0
C      1  0.4114600000000  0.4476490000000  0.4553410000000 1.0
C      1  0.6178190000000  0.5246290000000  0.4861740000000 1.0
C      1  0.5528100000000  0.4841550000000  0.6137570000000 1.0
C      1  0.5103750000000  0.4055950000000  0.4861590000000 1.0
C      1  0.5531530000000  0.5929420000000  0.4454680000000 1.0
C      1  0.4631430000000  0.4528980000000  0.5783740000000 1.0
C      1  0.4821080000000  0.5290820000000  0.4509470000000 1.0
C      1  0.6159960000000  0.5266350000000  0.4570000000000 1.0
C      1  0.5953120000000  0.4276180000000  0.5257420000000 1.0
C      1  0.4928600000000  0.4195360000000  0.4315160000000 1.0
C      1  0.4369130000000  0.4124780000000  0.5172450000000 1.0
C      1  0.4010300000000  0.5478820000000  0.4863680000000 1.0
C      1  0.5779410000000  0.4724160000000  0.5361220000000 1.0
C      1  0.5495860000000  0.5799170000000  0.4195760000000 1.0
C      1  0.6425490000000  0.4327910000000  0.4836720000000 1.0
C      1  0.5698120000000  0.4714940000000  0.4429280000000 1.0
C      1  0.4660810000000  0.4436080000000  0.3864300000000 1.0
C      1  0.5098770000000  0.5734740000000  0.3921940000000 1.0
C      1  0.4409070000000  0.6050290000000  0.5993150000000 1.0
C      1  0.5550400000000  0.5520360000000  0.5199400000000 1.0
C      1  0.4566130000000  0.5648940000000  0.4608660000000 1.0
C      1  0.4665540000000  0.4983490000000  0.3761060000000 1.0
C      1  0.5583140000000  0.4080640000000  0.4995460000000 1.0
C      1  0.4980360000000  0.5157570000000  0.5174830000000 1.0
C      1  0.4449990000000  0.4898870000000  0.3925070000000 1.0
C      1  0.4142140000000  0.5459300000000  0.5587440000000 1.0
C      1  0.4932600000000  0.4797560000000  0.4104960000000 1.0
C      1  0.5060370000000  0.4327820000000  0.4931750000000 1.0
C      1  0.5277110000000  0.5142810000000  0.5128390000000 1.0
C      1  0.5712000000000  0.3688980000000  0.4605790000000 1.0
C      1  0.4587310000000  0.4468440000000  0.4883300000000 1.0
C      1  0.6005360000000  0.4999860000000  0.5783760000000 1.0
C      1  0.3693090000000  0.4674890000000  0.5678770000000 1.0
C      1  0.3910850000000  0.5174740000000  0.5269350000000 1.0
C      1  0.4529360000000  0.3894480000000  0.5261510000000 1.0
C      1  0.5515680000000  0.5990110000000  0.4914500000000 1.0
C      1  0.4530470000000  0.4262540000000  0.4685350000000 1.0
C      1  0.5837630000000  0.5890640000000  0.5246290000000 1.0
C      1  0.4163870000000  0.4224810000000  0.4985240000000 1.0
C      1  0.3939720000000  0.6083580000000  0.5071200000000 1.0
C      1  0.4907950000000  0.4877370000000  0.5193110000000 1.0
C      1  0.4887260000000  0.4539440000000  0.3997150000000 1.0
C      1  0.5663090000000  0.4612000000000  0.6107990000000 1.0
C      1  0.5457710000000  0.4560810000000  0.3850360000000 1.0
C      1  0.5374360000000  0.3970470000000  0.4836930000000 1.0
C      1  0.5625120000000  0.5800110000000  0.4699270000000 1.0
C      1  0.5787310000000  0.4409700000000  0.5983960000000 1.0
C      1  0.5885850000000  0.4261340000000  0.5783830000000 1.0
C      1  0.5117940000000  0.6116760000000  0.5280740000000 1.0
C      1  0.4762650000000  0.3915160000000  0.5701950000000 1.0
C      1  0.5542360000000  0.4621130000000  0.5527050000000 1.0
C      1  0.5429940000000  0.5805160000000  0.5839480000000 1.0
C      1  0.5817820000000  0.5116590000000  0.4157140000000 1.0
C      1  0.4951230000000  0.5512430000000  0.4023700000000 1.0
C      1  0.4429340000000  0.6297010000000  0.6074560000000 1.0
C      1  0.4004530000000  0.5432230000000  0.5341570000000 1.0
C      1  0.5460720000000  0.3773590000000  0.4654050000000 1.0
C      1  0.4799280000000  0.3860800000000  0.5966370000000 1.0
C      1  0.4372840000000  0.5136860000000  0.6096040000000 1.0
C      1  0.4962650000000  0.5793240000000  0.5609330000000 1.0
C      1  0.5444690000000  0.5184040000000  0.3783900000000 1.0
C      1  0.5744020000000  0.5420040000000  0.5743270000000 1.0
C      1  0.5084590000000  0.4831900000000  0.5676320000000 1.0
C      1  0.5324690000000  0.4726710000000  0.3660660000000 1.0
C      1  0.4469050000000  0.4357870000000  0.5357190000000 1.0
C      1  0.5237430000000  0.5907210000000  0.4098750000000 1.0
C      1  0.4281140000000  0.5043920000000  0.4777870000000 1.0
C      1  0.5318730000000  0.5578920000000  0.5024110000000 1.0
C      1  0.4520810000000  0.4865120000000  0.4394160000000 1.0
C      1  0.5102330000000  0.6053980000000  0.4319580000000 1.0
C      1  0.4298270000000  0.5236980000000  0.5667100000000 1.0
C      1  0.5260400000000  0.5852420000000  0.5622260000000 1.0
C      1  0.4678770000000  0.5881780000000  0.4164510000000 1.0
C      1  0.6297290000000  0.4093740000000  0.4825410000000 1.0
C      1  0.5318400000000  0.4356360000000  0.3994260000000 1.0
C      1  0.6161860000000  0.4715300000000  0.5037240000000 1.0
C      1  0.4607910000000  0.5459870000000  0.5063830000000 1.0
C      1  0.5296430000000  0.6106490000000  0.4526120000000 1.0
C      1  0.5233560000000  0.5001450000000  0.3663930000000 1.0
C      1  0.4977300000000  0.4631920000000  0.6497890000000 1.0
C      1  0.5374230000000  0.5389190000000  0.4607980000000 1.0
C      1  0.4126650000000  0.5885770000000  0.5145770000000 1.0
C      1  0.5637140000000  0.5505970000000  0.4679720000000 1.0
C      1  0.5488190000000  0.5290250000000  0.5630940000000 1.0
C      1  0.5237420000000  0.4687430000000  0.4643880000000 1.0
C      1  0.5579900000000  0.5997580000000  0.5195500000000 1.0
C      1  0.3733070000000  0.6130050000000  0.4907370000000 1.0
C      1  0.4244570000000  0.5331460000000  0.4790690000000 1.0
C      1  0.4885950000000  0.3865500000000  0.4876640000000 1.0
C      1  0.5860700000000  0.4106990000000  0.5047280000000 1.0
C      1  0.3963430000000  0.4933710000000  0.5138350000000 1.0
C      1  0.4812870000000  0.3702830000000  0.4669720000000 1.0
C      1  0.4780050000000  0.6232110000000  0.5009770000000 1.0
C      1  0.4775580000000  0.4570350000000  0.6016530000000 1.0
C      1  0.4238750000000  0.5030340000000  0.5860560000000 1.0
C      1  0.4399400000000  0.5791130000000  0.5893640000000 1.0
C      1  0.4786630000000  0.3821560000000  0.5139810000000 1.0
C      1  0.4874690000000  0.5421570000000  0.5130050000000 1.0
C      1  0.5282040000000  0.6149170000000  0.4814160000000 1.0
C      1  0.5302520000000  0.4673500000000  0.5639510000000 1.0
C      1  0.5039650000000  0.5112050000000  0.5722400000000 1.0
C      1  0.4506550000000  0.5007780000000  0.5350560000000 1.0
C      1  0.4605890000000  0.5598980000000  0.5945950000000 1.0
C      1  0.4244710000000  0.4244700000000  0.4694920000000 1.0
C      1  0.3793190000000  0.5534410000000  0.4696840000000 1.0
C      1  0.5176820000000  0.4954080000000  0.4594490000000 1.0
C      1  0.4510830000000  0.3884510000000  0.5561220000000 1.0
C      1  0.4509510000000  0.4882950000000  0.4680690000000 1.0
C      1  0.3967600000000  0.4675110000000  0.5278080000000 1.0
C      1  0.4557270000000  0.5195680000000  0.5551340000000 1.0
C      1  0.4287720000000  0.4035310000000  0.5666510000000 1.0
C      1  0.4928430000000  0.5028060000000  0.3663730000000 1.0
C      1  0.5200350000000  0.3615430000000  0.5325770000000 1.0
C      1  0.4962840000000  0.4283150000000  0.5436450000000 1.0
C      1  0.4006350000000  0.4471220000000  0.5051280000000 1.0
C      1  0.5359040000000  0.6003550000000  0.5385310000000 1.0
C      1  0.4714230000000  0.4189330000000  0.4482080000000 1.0
C      1  0.5011600000000  0.4552900000000  0.4749650000000 1.0
C      1  0.4275260000000  0.4314040000000  0.5598030000000 1.0
C      1  0.3943480000000  0.4706200000000  0.5567270000000 1.0
C      1  0.5398500000000  0.5060210000000  0.6050920000000 1.0
C      1  0.5907130000000  0.5224800000000  0.5893870000000 1.0
C      1  0.3626220000000  0.5735170000000  0.4636590000000 1.0
C      1  0.5136470000000  0.4700960000000  0.5195310000000 1.0
C      1  0.4525700000000  0.5367290000000  0.6104200000000 1.0
C      1  0.4390080000000  0.5967510000000  0.5214170000000 1.0
C      1  0.5042860000000  0.5643790000000  0.5043500000000 1.0
C      1  0.4705490000000  0.5595560000000  0.4146670000000 1.0
C      1  0.4648670000000  0.5477050000000  0.4396910000000 1.0
C      1  0.5643570000000  0.5653050000000  0.5897130000000 1.0
C      1  0.4037170000000  0.5611920000000  0.5122650000000 1.0
C      1  0.4166380000000  0.4766890000000  0.5750890000000 1.0
C      1  0.6045340000000  0.3978520000000  0.4866780000000 1.0
C      1  0.4007840000000  0.4626790000000  0.4782320000000 1.0
C      1  0.5074860000000  0.6216350000000  0.5009200000000 1.0
C      1  0.5745820000000  0.5275870000000  0.4818610000000 1.0
C      1  0.5522580000000  0.5513350000000  0.4163000000000 1.0
C      1  0.5445080000000  0.5291150000000  0.5350010000000 1.0
C      1  0.5059150000000  0.4337840000000  0.4106450000000 1.0
C      1  0.4934250000000  0.5044280000000  0.4501930000000 1.0
C      1  0.6078390000000  0.5469550000000  0.5036850000000 1.0
C      1  0.5626520000000  0.5287510000000  0.4003650000000 1.0
C      1  0.5758710000000  0.4834140000000  0.4180380000000 1.0
C      1  0.5293290000000  0.5318830000000  0.4875840000000 1.0
C      1  0.3598320000000  0.5987790000000  0.4723700000000 1.0
C      1  0.4933800000000  0.5813980000000  0.4847580000000 1.0
END
