TITL C-612607-4507-453 5.51963838732624e-06 125000 -563.356603194915 0 0 91 (C1) n - 1
REM
REM in /home/nfs/bkarasulu/CARBON/AIRSS/Generating-Clusters/TERSOFF/Only-C1/FIRE-HFTN
REM
REM
REM
REM
REM
REM ./C.cell (11c1c37f851c82e70ff6c80c92926a4b)
REM AIRSS Version 0.9.1 bugfix July 2018 build 013d7b7c2542+ Fri, 06 Jul 2018 19:26:36 +0100
REM compiler GCC version 9.2.1 20190827 (Red Hat 9.2.1-1)
REM options -cpp -mtune=generic -march=x86-64 -g -O0 -fpre-include=/usr/include/finclude/math-vector-fortran.h
REM seed -1613539203 177681776 -68058725 -801985052 -998777814 -131452502 -1120426505 -1498858237 -250638231 -2063751141 -899263236 -1345905416 502004042 -84933334 1163031089 1155915894 -798017992 -1118071730 -1223854080 -1841442207 1987341588 659881831 -743060576 88078803 -1695768309 157715258 -200930913 977311417 863640644 -1532770304 -980264155 -299158844 277410874
REM
CELL 1.54180   50.00000   50.00000   50.00000   90.00000   90.00000   90.00000
LATT -1
SFAC C  
C      1  0.4696700000000  0.4500150000000  0.4418590000000 1.0
C      1  0.4388610000000  0.4442060000000  0.5246690000000 1.0
C      1  0.5434700000000  0.5943500000000  0.5318000000000 1.0
C      1  0.4550240000000  0.5263020000000  0.5922660000000 1.0
C      1  0.4954640000000  0.5878030000000  0.5248270000000 1.0
C      1  0.4413370000000  0.5557840000000  0.4523070000000 1.0
C      1  0.4394870000000  0.5507420000000  0.4816610000000 1.0
C      1  0.4461830000000  0.4580910000000  0.4558840000000 1.0
C      1  0.5774680000000  0.4453740000000  0.4608380000000 1.0
C      1  0.5004130000000  0.4717790000000  0.5787410000000 1.0
C      1  0.4911060000000  0.5765560000000  0.4448770000000 1.0
C      1  0.4759840000000  0.4599340000000  0.5676250000000 1.0
C      1  0.5472590000000  0.4782280000000  0.5781740000000 1.0
C      1  0.5506040000000  0.5415040000000  0.5407140000000 1.0
C      1  0.4591570000000  0.5156540000000  0.5293020000000 1.0
C      1  0.5115910000000  0.4880670000000  0.4787790000000 1.0
C      1  0.4971570000000  0.5006410000000  0.5835160000000 1.0
C      1  0.4642720000000  0.5449930000000  0.4940150000000 1.0
C      1  0.4758280000000  0.4876810000000  0.4097010000000 1.0
C      1  0.4778640000000  0.5384140000000  0.4176840000000 1.0
C      1  0.5198210000000  0.5189320000000  0.5807130000000 1.0
C      1  0.4357100000000  0.4667270000000  0.4810320000000 1.0
C      1  0.4182580000000  0.5360010000000  0.4944690000000 1.0
C      1  0.4758530000000  0.4725460000000  0.5074280000000 1.0
C      1  0.4217300000000  0.5399710000000  0.4383240000000 1.0
C      1  0.4667660000000  0.5595720000000  0.4373720000000 1.0
C      1  0.5870960000000  0.4993740000000  0.5090130000000 1.0
C      1  0.5857360000000  0.5452610000000  0.4911420000000 1.0
C      1  0.5315570000000  0.5064650000000  0.4731830000000 1.0
C      1  0.5006380000000  0.5761670000000  0.4723590000000 1.0
C      1  0.4215320000000  0.4596370000000  0.5410630000000 1.0
C      1  0.5118000000000  0.5677380000000  0.4257800000000 1.0
C      1  0.5840410000000  0.4714080000000  0.5044010000000 1.0
C      1  0.4690420000000  0.5137350000000  0.4068300000000 1.0
C      1  0.5902640000000  0.4578760000000  0.4806860000000 1.0
C      1  0.5045370000000  0.5049800000000  0.5288480000000 1.0
C      1  0.5166380000000  0.5475060000000  0.5792840000000 1.0
C      1  0.5065920000000  0.5481800000000  0.4762290000000 1.0
C      1  0.4829650000000  0.5328360000000  0.4768390000000 1.0
C      1  0.4164020000000  0.4881420000000  0.4845200000000 1.0
C      1  0.4785590000000  0.4946060000000  0.5249450000000 1.0
C      1  0.5164550000000  0.5718680000000  0.5670510000000 1.0
C      1  0.5180860000000  0.5881650000000  0.5431160000000 1.0
C      1  0.5046920000000  0.4262360000000  0.5434750000000 1.0
C      1  0.4827270000000  0.3946880000000  0.4852500000000 1.0
C      1  0.5537640000000  0.4405100000000  0.4496930000000 1.0
C      1  0.5459300000000  0.5064450000000  0.5731490000000 1.0
C      1  0.4510270000000  0.4590730000000  0.5034850000000 1.0
C      1  0.5500710000000  0.4997720000000  0.4525040000000 1.0
C      1  0.4724490000000  0.5425600000000  0.5228590000000 1.0
C      1  0.4986030000000  0.5913910000000  0.4963020000000 1.0
C      1  0.5625330000000  0.5190040000000  0.5526970000000 1.0
C      1  0.5324170000000  0.4932380000000  0.4298730000000 1.0
C      1  0.5661790000000  0.4581230000000  0.5222050000000 1.0
C      1  0.4737230000000  0.5708030000000  0.5328870000000 1.0
C      1  0.5055550000000  0.4121890000000  0.4898110000000 1.0
C      1  0.5827130000000  0.5077460000000  0.5360930000000 1.0
C      1  0.4685420000000  0.4026060000000  0.4628830000000 1.0
C      1  0.4551380000000  0.4818370000000  0.5686470000000 1.0
C      1  0.4730400000000  0.5120130000000  0.4611490000000 1.0
C      1  0.4318880000000  0.4842650000000  0.5506510000000 1.0
C      1  0.5159260000000  0.4681430000000  0.4327970000000 1.0
C      1  0.5074320000000  0.5409330000000  0.4160730000000 1.0
C      1  0.5298050000000  0.5337160000000  0.4787390000000 1.0
C      1  0.4555700000000  0.4262710000000  0.5383900000000 1.0
C      1  0.5777950000000  0.5687880000000  0.5013360000000 1.0
C      1  0.5752770000000  0.4382410000000  0.5385460000000 1.0
C      1  0.4682110000000  0.5048080000000  0.5819390000000 1.0
C      1  0.5635900000000  0.5864740000000  0.5157350000000 1.0
C      1  0.5080320000000  0.4275260000000  0.4627810000000 1.0
C      1  0.4184700000000  0.5088690000000  0.5053520000000 1.0
C      1  0.4237430000000  0.5120820000000  0.4431750000000 1.0
C      1  0.5003310000000  0.4676220000000  0.4938430000000 1.0
C      1  0.4057660000000  0.4977750000000  0.4596630000000 1.0
C      1  0.5854710000000  0.5173180000000  0.4863120000000 1.0
C      1  0.5260780000000  0.4448600000000  0.4481100000000 1.0
C      1  0.4327400000000  0.5055530000000  0.5306260000000 1.0
C      1  0.5196480000000  0.4516720000000  0.5072640000000 1.0
C      1  0.5259440000000  0.4595750000000  0.5757450000000 1.0
C      1  0.4508250000000  0.5046390000000  0.4481020000000 1.0
C      1  0.5276780000000  0.5457450000000  0.5276120000000 1.0
C      1  0.5284020000000  0.4906190000000  0.5298960000000 1.0
C      1  0.4870840000000  0.4679120000000  0.4266970000000 1.0
C      1  0.5111650000000  0.4257600000000  0.5148080000000 1.0
C      1  0.5029590000000  0.5332880000000  0.5263570000000 1.0
C      1  0.4809070000000  0.4254260000000  0.4505230000000 1.0
C      1  0.5762810000000  0.5069590000000  0.4608120000000 1.0
C      1  0.5228740000000  0.5169280000000  0.4161880000000 1.0
C      1  0.5392280000000  0.4663830000000  0.5208680000000 1.0
C      1  0.4784090000000  0.4353360000000  0.5520740000000 1.0
C      1  0.5250870000000  0.4344720000000  0.5621540000000 1.0
END
