TITL C-612601-4209-846 0.613224299808646 125000 -228.743777311456 0 0 39 (C1) n - 1
REM
REM in /home/nfs/bkarasulu/CARBON/AIRSS/Generating-Clusters/TERSOFF/Only-C1/FIRE-HFTN
REM
REM
REM
REM
REM
REM ./C.cell (11c1c37f851c82e70ff6c80c92926a4b)
REM AIRSS Version 0.9.1 bugfix July 2018 build 013d7b7c2542+ Fri, 06 Jul 2018 19:26:36 +0100
REM compiler GCC version 9.2.1 20190827 (Red Hat 9.2.1-1)
REM options -cpp -mtune=generic -march=x86-64 -g -O0 -fpre-include=/usr/include/finclude/math-vector-fortran.h
REM seed -39805664 -1556412021 -1231984291 857455323 1314219460 -1276932620 1807088740 -1626734986 1782642063 -1320334586 1972247711 792501519 848958967 -817092451 -1382281282 273354780 642896389 1172073299 -24965695 -378693395 -339374877 2120227607 -1889215490 -1685307256 83687702 -223567602 -565367615 -2105626104 -1195921658 1763910631 -1799150869 1694284131 242825311
REM
CELL 1.54180   50.00000   50.00000   50.00000   90.00000   90.00000   90.00000
LATT -1
SFAC C  
C      1  0.4613260000000  0.5296800000000  0.5175670000000 1.0
C      1  0.4983620000000  0.3649040000000  0.5005660000000 1.0
C      1  0.5077110000000  0.4118990000000  0.4917260000000 1.0
C      1  0.5374510000000  0.5679190000000  0.4896680000000 1.0
C      1  0.4864290000000  0.6021550000000  0.5276060000000 1.0
C      1  0.4732300000000  0.5878570000000  0.4371190000000 1.0
C      1  0.4666680000000  0.5778000000000  0.4613930000000 1.0
C      1  0.4845900000000  0.5717350000000  0.4185590000000 1.0
C      1  0.4609190000000  0.4509440000000  0.5763790000000 1.0
C      1  0.5118600000000  0.5128670000000  0.3850010000000 1.0
C      1  0.5299620000000  0.5723630000000  0.5161980000000 1.0
C      1  0.4711060000000  0.5508020000000  0.4688550000000 1.0
C      1  0.5074000000000  0.4903660000000  0.5485090000000 1.0
C      1  0.4902370000000  0.5443150000000  0.4230520000000 1.0
C      1  0.4913900000000  0.5077670000000  0.4558420000000 1.0
C      1  0.4651100000000  0.4249370000000  0.5726130000000 1.0
C      1  0.5162080000000  0.4650480000000  0.5405760000000 1.0
C      1  0.5078160000000  0.5883090000000  0.5221280000000 1.0
C      1  0.4795140000000  0.4942940000000  0.5530230000000 1.0
C      1  0.5055840000000  0.4573020000000  0.4633570000000 1.0
C      1  0.5547750000000  0.5582650000000  0.4410020000000 1.0
C      1  0.5148910000000  0.4402370000000  0.5313380000000 1.0
C      1  0.4632990000000  0.5412970000000  0.4938310000000 1.0
C      1  0.5457480000000  0.5631200000000  0.4649700000000 1.0
C      1  0.4841530000000  0.5339830000000  0.4493300000000 1.0
C      1  0.5448200000000  0.5603850000000  0.5372800000000 1.0
C      1  0.5048400000000  0.4167840000000  0.5199970000000 1.0
C      1  0.5088300000000  0.4330920000000  0.4737010000000 1.0
C      1  0.5250560000000  0.5118750000000  0.5503480000000 1.0
C      1  0.5371920000000  0.5350810000000  0.5463940000000 1.0
C      1  0.4763860000000  0.4054420000000  0.5584520000000 1.0
C      1  0.4909060000000  0.3707800000000  0.5260040000000 1.0
C      1  0.5011000000000  0.5282910000000  0.4030430000000 1.0
C      1  0.5661410000000  0.5734560000000  0.5483510000000 1.0
C      1  0.4662200000000  0.5139940000000  0.5383790000000 1.0
C      1  0.4910370000000  0.3972360000000  0.5361930000000 1.0
C      1  0.4657980000000  0.4761130000000  0.5692670000000 1.0
C      1  0.5065520000000  0.3846700000000  0.4838510000000 1.0
C      1  0.4993820000000  0.4826350000000  0.4585300000000 1.0
END
