TITL C-612600-6631-505 -26.3081729389474 125000 -787.266237348519 0 0 128 (C1) n - 1
REM
REM in /home/nfs/bkarasulu/CARBON/AIRSS/Generating-Clusters/TERSOFF/Only-C1/FIRE-HFTN
REM
REM
REM
REM
REM
REM ./C.cell (11c1c37f851c82e70ff6c80c92926a4b)
REM AIRSS Version 0.9.1 bugfix July 2018 build 013d7b7c2542+ Fri, 06 Jul 2018 19:26:36 +0100
REM compiler GCC version 9.2.1 20190827 (Red Hat 9.2.1-1)
REM options -cpp -mtune=generic -march=x86-64 -g -O0 -fpre-include=/usr/include/finclude/math-vector-fortran.h
REM seed -1087378682 1978549040 -71800545 861813717 1441387870 -1998153836 -759627261 1897189010 -1552655241 -2142302903 -1367723694 580296520 -171462995 -2143771116 340945849 2138727719 -1928231370 -379952283 1156755259 -2009141134 -173547236 2004907319 -1353617363 1264227292 1751115149 1049222539 -390394457 -164569353 -1125524157 -755874471 -999289572 -46176663 -1633188993
REM
CELL 1.54180   50.00000   50.00000   50.00000   90.00000   90.00000   90.00000
LATT -1
SFAC C  
C      1  0.5532240000000  0.5243830000000  0.5014760000000 1.0
C      1  0.4358130000000  0.5340250000000  0.4302720000000 1.0
C      1  0.5035500000000  0.5309190000000  0.4149140000000 1.0
C      1  0.4476570000000  0.5684210000000  0.4660460000000 1.0
C      1  0.5530280000000  0.4167930000000  0.5379830000000 1.0
C      1  0.5047750000000  0.4411040000000  0.4225400000000 1.0
C      1  0.4370020000000  0.4181020000000  0.4319170000000 1.0
C      1  0.5513120000000  0.5222440000000  0.4231170000000 1.0
C      1  0.5329260000000  0.4794530000000  0.5431350000000 1.0
C      1  0.4706910000000  0.5423240000000  0.3807570000000 1.0
C      1  0.5811400000000  0.5624400000000  0.4515330000000 1.0
C      1  0.4911960000000  0.5335640000000  0.5464970000000 1.0
C      1  0.4795820000000  0.5304820000000  0.4935790000000 1.0
C      1  0.4929310000000  0.5973380000000  0.5173270000000 1.0
C      1  0.4135450000000  0.4543950000000  0.4523330000000 1.0
C      1  0.4161020000000  0.5474760000000  0.4168970000000 1.0
C      1  0.6161050000000  0.4717190000000  0.4471590000000 1.0
C      1  0.4057480000000  0.4564360000000  0.4802150000000 1.0
C      1  0.4582170000000  0.5333800000000  0.5116190000000 1.0
C      1  0.4662670000000  0.5226120000000  0.4687460000000 1.0
C      1  0.4722900000000  0.5550090000000  0.5481300000000 1.0
C      1  0.4532180000000  0.5210930000000  0.5930990000000 1.0
C      1  0.4996610000000  0.5170220000000  0.5986990000000 1.0
C      1  0.3692450000000  0.4881340000000  0.4932620000000 1.0
C      1  0.5328270000000  0.4443740000000  0.4282080000000 1.0
C      1  0.5298460000000  0.5459050000000  0.4223080000000 1.0
C      1  0.5024240000000  0.3851350000000  0.5724320000000 1.0
C      1  0.5762610000000  0.5356520000000  0.4901030000000 1.0
C      1  0.5951790000000  0.4807510000000  0.5209860000000 1.0
C      1  0.4813620000000  0.5771700000000  0.5637810000000 1.0
C      1  0.4549210000000  0.5566370000000  0.5265170000000 1.0
C      1  0.6072100000000  0.4804820000000  0.4945690000000 1.0
C      1  0.4571960000000  0.5865730000000  0.4862660000000 1.0
C      1  0.5690890000000  0.5769100000000  0.5105170000000 1.0
C      1  0.4351890000000  0.5155860000000  0.5697320000000 1.0
C      1  0.4071750000000  0.4997390000000  0.4615630000000 1.0
C      1  0.5408890000000  0.4706330000000  0.4359800000000 1.0
C      1  0.5377010000000  0.4954030000000  0.4195100000000 1.0
C      1  0.5299230000000  0.5110500000000  0.5080730000000 1.0
C      1  0.4926570000000  0.4850250000000  0.4300100000000 1.0
C      1  0.5274540000000  0.5650240000000  0.5312430000000 1.0
C      1  0.5815950000000  0.4544820000000  0.5260570000000 1.0
C      1  0.5242100000000  0.3826950000000  0.5567180000000 1.0
C      1  0.5623820000000  0.4476220000000  0.5741270000000 1.0
C      1  0.4963940000000  0.4628860000000  0.6137670000000 1.0
C      1  0.4590390000000  0.4595450000000  0.4152880000000 1.0
C      1  0.4387440000000  0.4233610000000  0.4988740000000 1.0
C      1  0.5553460000000  0.5889410000000  0.4842960000000 1.0
C      1  0.4833330000000  0.4040960000000  0.5713380000000 1.0
C      1  0.4411940000000  0.5387500000000  0.4597920000000 1.0
C      1  0.5535420000000  0.5756170000000  0.5353730000000 1.0
C      1  0.4139830000000  0.4295430000000  0.4396640000000 1.0
C      1  0.5213700000000  0.4552200000000  0.6070770000000 1.0
C      1  0.5186610000000  0.5414400000000  0.5437140000000 1.0
C      1  0.5875400000000  0.5533890000000  0.5095490000000 1.0
C      1  0.5111440000000  0.5757870000000  0.5122400000000 1.0
C      1  0.4876200000000  0.4546830000000  0.5153550000000 1.0
C      1  0.5978240000000  0.5344450000000  0.5295580000000 1.0
C      1  0.5409990000000  0.4767140000000  0.4650050000000 1.0
C      1  0.4960630000000  0.4435730000000  0.5402010000000 1.0
C      1  0.5319310000000  0.5006770000000  0.5635650000000 1.0
C      1  0.4689360000000  0.4756030000000  0.5187450000000 1.0
C      1  0.3924940000000  0.4822410000000  0.4804690000000 1.0
C      1  0.5317680000000  0.3983580000000  0.5342610000000 1.0
C      1  0.4862050000000  0.5994450000000  0.5456040000000 1.0
C      1  0.5812050000000  0.5364200000000  0.4622870000000 1.0
C      1  0.5192000000000  0.4557330000000  0.5501300000000 1.0
C      1  0.4894540000000  0.4519780000000  0.4659990000000 1.0
C      1  0.4869840000000  0.4007020000000  0.5040460000000 1.0
C      1  0.4045420000000  0.5314270000000  0.5291170000000 1.0
C      1  0.5131840000000  0.5450400000000  0.4688310000000 1.0
C      1  0.4861060000000  0.4325380000000  0.4445330000000 1.0
C      1  0.5065420000000  0.6042400000000  0.4706790000000 1.0
C      1  0.5518580000000  0.4239790000000  0.4344990000000 1.0
C      1  0.5111760000000  0.5900960000000  0.4454560000000 1.0
C      1  0.5035610000000  0.5195270000000  0.5033510000000 1.0
C      1  0.5455100000000  0.5048750000000  0.4638490000000 1.0
C      1  0.4404850000000  0.5117560000000  0.5086710000000 1.0
C      1  0.5053580000000  0.5009080000000  0.5760080000000 1.0
C      1  0.5575090000000  0.5772490000000  0.4565370000000 1.0
C      1  0.5210390000000  0.5641920000000  0.5918000000000 1.0
C      1  0.4153600000000  0.4543100000000  0.5282480000000 1.0
C      1  0.6037860000000  0.4655400000000  0.4706260000000 1.0
C      1  0.4147540000000  0.5231070000000  0.5034490000000 1.0
C      1  0.4671120000000  0.4886720000000  0.5445880000000 1.0
C      1  0.5804530000000  0.4390640000000  0.5014030000000 1.0
C      1  0.4157290000000  0.5247190000000  0.4737530000000 1.0
C      1  0.4412380000000  0.4899850000000  0.5567630000000 1.0
C      1  0.5334610000000  0.4838620000000  0.5145710000000 1.0
C      1  0.5963180000000  0.5070000000000  0.5331320000000 1.0
C      1  0.5224610000000  0.5207850000000  0.4642740000000 1.0
C      1  0.4759430000000  0.5293880000000  0.4046300000000 1.0
C      1  0.5448010000000  0.4509390000000  0.5944040000000 1.0
C      1  0.5659390000000  0.5179040000000  0.4479970000000 1.0
C      1  0.5102330000000  0.5032660000000  0.4195040000000 1.0
C      1  0.4464240000000  0.5793480000000  0.5121180000000 1.0
C      1  0.4866170000000  0.5063210000000  0.5545230000000 1.0
C      1  0.5860480000000  0.4432930000000  0.4740470000000 1.0
C      1  0.5289990000000  0.4670070000000  0.4906600000000 1.0
C      1  0.5376810000000  0.5291650000000  0.5620520000000 1.0
C      1  0.4880080000000  0.4634260000000  0.4114880000000 1.0
C      1  0.4811960000000  0.4263750000000  0.5565600000000 1.0
C      1  0.4732160000000  0.4766530000000  0.6152570000000 1.0
C      1  0.5123480000000  0.3990080000000  0.5133010000000 1.0
C      1  0.4530540000000  0.5143890000000  0.4173840000000 1.0
C      1  0.4788420000000  0.5378790000000  0.5959680000000 1.0
C      1  0.4825480000000  0.6016450000000  0.4892770000000 1.0
C      1  0.4187670000000  0.4435150000000  0.5021910000000 1.0
C      1  0.5507470000000  0.3993940000000  0.4226250000000 1.0
C      1  0.4210270000000  0.4812920000000  0.4417150000000 1.0
C      1  0.4542100000000  0.4885060000000  0.4982860000000 1.0
C      1  0.4434410000000  0.4850050000000  0.4222270000000 1.0
C      1  0.4152370000000  0.5301260000000  0.5546400000000 1.0
C      1  0.4651000000000  0.4938280000000  0.4717890000000 1.0
C      1  0.5445670000000  0.5530230000000  0.5783720000000 1.0
C      1  0.5032490000000  0.4531670000000  0.4909090000000 1.0
C      1  0.4827180000000  0.4786320000000  0.4563490000000 1.0
C      1  0.5721010000000  0.4301640000000  0.4534650000000 1.0
C      1  0.4225430000000  0.4705920000000  0.5483580000000 1.0
C      1  0.4615610000000  0.4090220000000  0.5002030000000 1.0
C      1  0.4598830000000  0.4338660000000  0.4306640000000 1.0
C      1  0.5610070000000  0.5714550000000  0.5628770000000 1.0
C      1  0.5675430000000  0.4401710000000  0.5471670000000 1.0
C      1  0.5335490000000  0.5720730000000  0.4386790000000 1.0
C      1  0.4563600000000  0.4972060000000  0.6099090000000 1.0
C      1  0.5105610000000  0.5633480000000  0.4875140000000 1.0
C      1  0.5327930000000  0.6078660000000  0.4844300000000 1.0
C      1  0.4919060000000  0.5640090000000  0.5881710000000 1.0
END
