TITL C-612601-4209-589 -8.19599318804987e-06 125000 -941.087368652142 0 0 151 (C1) n - 1
REM
REM in /home/nfs/bkarasulu/CARBON/AIRSS/Generating-Clusters/TERSOFF/Only-C1/FIRE-HFTN
REM
REM
REM
REM
REM
REM ./C.cell (11c1c37f851c82e70ff6c80c92926a4b)
REM AIRSS Version 0.9.1 bugfix July 2018 build 013d7b7c2542+ Fri, 06 Jul 2018 19:26:36 +0100
REM compiler GCC version 9.2.1 20190827 (Red Hat 9.2.1-1)
REM options -cpp -mtune=generic -march=x86-64 -g -O0 -fpre-include=/usr/include/finclude/math-vector-fortran.h
REM seed 162994012 1647553057 270446427 1090992777 -1113075892 613691184 -1272826425 -886025611 -803824780 366533308 1798431122 841966349 1084337234 -15832292 1928642370 -1562150842 256745232 1468725018 -1465233729 1718253089 -1012105717 -899820934 -188458799 -1518576761 454666688 1146601012 -1264000456 1931034474 890031472 -820539017 1769293886 1344863875 -1759501192
REM
CELL 1.54180   50.00000   50.00000   50.00000   90.00000   90.00000   90.00000
LATT -1
SFAC C  
C      1  0.4651440000000  0.5536390000000  0.4888630000000 1.0
C      1  0.6182950000000  0.5009780000000  0.5660120000000 1.0
C      1  0.5743910000000  0.4063800000000  0.5047210000000 1.0
C      1  0.6108370000000  0.5151810000000  0.5428420000000 1.0
C      1  0.6159090000000  0.4744360000000  0.5700840000000 1.0
C      1  0.5046110000000  0.5523460000000  0.4085990000000 1.0
C      1  0.4622250000000  0.6203320000000  0.5961720000000 1.0
C      1  0.5574860000000  0.3974240000000  0.4540550000000 1.0
C      1  0.4980000000000  0.6320230000000  0.5361340000000 1.0
C      1  0.4925730000000  0.4132160000000  0.4350770000000 1.0
C      1  0.4680000000000  0.5371270000000  0.5352690000000 1.0
C      1  0.5004980000000  0.4319090000000  0.5597010000000 1.0
C      1  0.5511040000000  0.5083920000000  0.5086810000000 1.0
C      1  0.6004330000000  0.4676370000000  0.4820680000000 1.0
C      1  0.5577120000000  0.4991720000000  0.3989670000000 1.0
C      1  0.4211980000000  0.5249180000000  0.4734740000000 1.0
C      1  0.5877550000000  0.4714330000000  0.4552120000000 1.0
C      1  0.5917380000000  0.4251330000000  0.5175650000000 1.0
C      1  0.4579170000000  0.5260620000000  0.3928780000000 1.0
C      1  0.5458370000000  0.5653130000000  0.4556380000000 1.0
C      1  0.4849780000000  0.4097580000000  0.4617630000000 1.0
C      1  0.4808580000000  0.5457730000000  0.5119810000000 1.0
C      1  0.4331090000000  0.5977030000000  0.5343590000000 1.0
C      1  0.4252770000000  0.4657390000000  0.4478020000000 1.0
C      1  0.4572880000000  0.4108990000000  0.5432850000000 1.0
C      1  0.5197490000000  0.4731010000000  0.4299850000000 1.0
C      1  0.4832320000000  0.4539830000000  0.4856470000000 1.0
C      1  0.5007780000000  0.5247580000000  0.4777180000000 1.0
C      1  0.4467180000000  0.5246080000000  0.5486390000000 1.0
C      1  0.5235830000000  0.5917570000000  0.5425450000000 1.0
C      1  0.4373970000000  0.5960410000000  0.5622020000000 1.0
C      1  0.4107370000000  0.5508510000000  0.5300930000000 1.0
C      1  0.4773740000000  0.4598660000000  0.3847520000000 1.0
C      1  0.4882940000000  0.4846250000000  0.3917040000000 1.0
C      1  0.4849030000000  0.5620490000000  0.6024870000000 1.0
C      1  0.5175830000000  0.5784760000000  0.4978000000000 1.0
C      1  0.5267200000000  0.4209210000000  0.5635750000000 1.0
C      1  0.4915380000000  0.4902740000000  0.5983050000000 1.0
C      1  0.4585400000000  0.5718510000000  0.5983430000000 1.0
C      1  0.5737770000000  0.5058550000000  0.4211170000000 1.0
C      1  0.4915800000000  0.6155310000000  0.4751830000000 1.0
C      1  0.5329030000000  0.5750540000000  0.5213040000000 1.0
C      1  0.4745410000000  0.4195180000000  0.5652690000000 1.0
C      1  0.4069570000000  0.5108420000000  0.4940410000000 1.0
C      1  0.4998120000000  0.4713340000000  0.4698430000000 1.0
C      1  0.4965280000000  0.4589440000000  0.5517480000000 1.0
C      1  0.4484770000000  0.4698420000000  0.5503030000000 1.0
C      1  0.5338170000000  0.4432810000000  0.4661170000000 1.0
C      1  0.5555620000000  0.3963540000000  0.5238160000000 1.0
C      1  0.5662790000000  0.5229870000000  0.4899170000000 1.0
C      1  0.4720600000000  0.4612640000000  0.5369770000000 1.0
C      1  0.4135910000000  0.5835010000000  0.4913420000000 1.0
C      1  0.4329280000000  0.4383870000000  0.4499620000000 1.0
C      1  0.4477630000000  0.6266580000000  0.4949380000000 1.0
C      1  0.6122360000000  0.4411730000000  0.4796850000000 1.0
C      1  0.4617780000000  0.4992130000000  0.4631210000000 1.0
C      1  0.5045250000000  0.5020630000000  0.5762420000000 1.0
C      1  0.5514940000000  0.5894180000000  0.4673060000000 1.0
C      1  0.4021610000000  0.4746780000000  0.4612760000000 1.0
C      1  0.5454610000000  0.4475050000000  0.6062660000000 1.0
C      1  0.5213420000000  0.4214060000000  0.4243300000000 1.0
C      1  0.4487360000000  0.6185150000000  0.5218780000000 1.0
C      1  0.5912290000000  0.4755000000000  0.5101900000000 1.0
C      1  0.4466430000000  0.4841490000000  0.4471390000000 1.0
C      1  0.4193470000000  0.5323220000000  0.4211070000000 1.0
C      1  0.5758290000000  0.4059790000000  0.4749750000000 1.0
C      1  0.5818590000000  0.5577910000000  0.5348030000000 1.0
C      1  0.4645810000000  0.4251890000000  0.5910660000000 1.0
C      1  0.5300730000000  0.5070330000000  0.3977640000000 1.0
C      1  0.4385930000000  0.5467660000000  0.4799760000000 1.0
C      1  0.4191180000000  0.5467710000000  0.5806730000000 1.0
C      1  0.5130780000000  0.5788480000000  0.5651540000000 1.0
C      1  0.5441040000000  0.4678900000000  0.6233430000000 1.0
C      1  0.4029620000000  0.4822070000000  0.4887920000000 1.0
C      1  0.4421060000000  0.4311970000000  0.4766720000000 1.0
C      1  0.4119170000000  0.5238170000000  0.4466770000000 1.0
C      1  0.4709190000000  0.4301030000000  0.4765970000000 1.0
C      1  0.4936930000000  0.5518990000000  0.6272060000000 1.0
C      1  0.4084570000000  0.4597210000000  0.5055360000000 1.0
C      1  0.4775410000000  0.4705790000000  0.6096650000000 1.0
C      1  0.4668720000000  0.4461350000000  0.6077080000000 1.0
C      1  0.4898680000000  0.3801990000000  0.5216150000000 1.0
C      1  0.5051970000000  0.3922130000000  0.5015800000000 1.0
C      1  0.5025940000000  0.5573520000000  0.5802650000000 1.0
C      1  0.5065150000000  0.4986080000000  0.5274860000000 1.0
C      1  0.4691870000000  0.5731900000000  0.4435390000000 1.0
C      1  0.4955910000000  0.3880100000000  0.4756270000000 1.0
C      1  0.4659960000000  0.3867100000000  0.5319800000000 1.0
C      1  0.5088840000000  0.5300560000000  0.5753970000000 1.0
C      1  0.4793860000000  0.5704210000000  0.4698340000000 1.0
C      1  0.5816380000000  0.4980750000000  0.4469700000000 1.0
C      1  0.4802620000000  0.5631230000000  0.4183820000000 1.0
C      1  0.6066190000000  0.4990720000000  0.5200730000000 1.0
C      1  0.4238980000000  0.5411430000000  0.5536510000000 1.0
C      1  0.5439080000000  0.4591090000000  0.5099920000000 1.0
C      1  0.5074320000000  0.4856230000000  0.5528990000000 1.0
C      1  0.5406460000000  0.4039200000000  0.5453150000000 1.0
C      1  0.5251890000000  0.5174990000000  0.5173530000000 1.0
C      1  0.3994630000000  0.5290800000000  0.5147230000000 1.0
C      1  0.4792330000000  0.5068840000000  0.4835800000000 1.0
C      1  0.5186910000000  0.5181490000000  0.4572510000000 1.0
C      1  0.5356500000000  0.5404220000000  0.4504910000000 1.0
C      1  0.5086570000000  0.5274910000000  0.3950630000000 1.0
C      1  0.5085780000000  0.5340350000000  0.6402960000000 1.0
C      1  0.4043130000000  0.4611730000000  0.5339740000000 1.0
C      1  0.5493890000000  0.6100960000000  0.4852510000000 1.0
C      1  0.4373040000000  0.4278150000000  0.5304990000000 1.0
C      1  0.4391590000000  0.5743030000000  0.4429830000000 1.0
C      1  0.5610050000000  0.4813320000000  0.5118220000000 1.0
C      1  0.4982630000000  0.5886050000000  0.4800640000000 1.0
C      1  0.5194920000000  0.4164700000000  0.5040380000000 1.0
C      1  0.5389090000000  0.6220780000000  0.5077030000000 1.0
C      1  0.4532220000000  0.5968220000000  0.5855930000000 1.0
C      1  0.5139910000000  0.4835570000000  0.4048640000000 1.0
C      1  0.4827990000000  0.5130320000000  0.3890640000000 1.0
C      1  0.4456150000000  0.4973050000000  0.5552100000000 1.0
C      1  0.4713810000000  0.6289230000000  0.5356160000000 1.0
C      1  0.4843520000000  0.4935590000000  0.5086710000000 1.0
C      1  0.5681700000000  0.4483340000000  0.3980470000000 1.0
C      1  0.5696520000000  0.4327680000000  0.4216830000000 1.0
C      1  0.5584940000000  0.5645330000000  0.5241760000000 1.0
C      1  0.4269190000000  0.5718130000000  0.4690480000000 1.0
C      1  0.5502660000000  0.4110770000000  0.4290790000000 1.0
C      1  0.4457440000000  0.4264420000000  0.4274640000000 1.0
C      1  0.4282090000000  0.4365540000000  0.5018540000000 1.0
C      1  0.4359260000000  0.5550260000000  0.6000240000000 1.0
C      1  0.6069670000000  0.4548380000000  0.5540770000000 1.0
C      1  0.5249050000000  0.4472450000000  0.4393760000000 1.0
C      1  0.4171520000000  0.5780480000000  0.5196130000000 1.0
C      1  0.5368690000000  0.4900590000000  0.6362120000000 1.0
C      1  0.5969240000000  0.4506990000000  0.5281210000000 1.0
C      1  0.4682380000000  0.6287390000000  0.4775380000000 1.0
C      1  0.5641350000000  0.4732640000000  0.3884440000000 1.0
C      1  0.5845070000000  0.4439340000000  0.4436490000000 1.0
C      1  0.4322970000000  0.5154410000000  0.4014100000000 1.0
C      1  0.4757330000000  0.4666100000000  0.5097490000000 1.0
C      1  0.4572210000000  0.5533760000000  0.4037070000000 1.0
C      1  0.5243070000000  0.5126500000000  0.6426700000000 1.0
C      1  0.5403840000000  0.4306670000000  0.5862670000000 1.0
C      1  0.4844120000000  0.4340560000000  0.3936090000000 1.0
C      1  0.5221580000000  0.6184950000000  0.5313390000000 1.0
C      1  0.4325060000000  0.5583430000000  0.4196570000000 1.0
C      1  0.4715260000000  0.4223010000000  0.4166850000000 1.0
C      1  0.5074870000000  0.5358600000000  0.5034610000000 1.0
C      1  0.4275310000000  0.4509670000000  0.5469930000000 1.0
C      1  0.5950720000000  0.4246050000000  0.4638090000000 1.0
C      1  0.6011200000000  0.5412600000000  0.5426550000000 1.0
C      1  0.5127740000000  0.4266810000000  0.3953710000000 1.0
C      1  0.5325580000000  0.4392510000000  0.4939210000000 1.0
C      1  0.5795970000000  0.5174440000000  0.4673700000000 1.0
C      1  0.5144170000000  0.4898660000000  0.4521890000000 1.0
END
