TITL C-612600-6631-1247 3.31150766622441 125000 -404.907762971142 0 0 68 (C1) n - 1
REM
REM in /home/nfs/bkarasulu/CARBON/AIRSS/Generating-Clusters/TERSOFF/Only-C1/FIRE-HFTN
REM
REM
REM
REM
REM
REM ./C.cell (11c1c37f851c82e70ff6c80c92926a4b)
REM AIRSS Version 0.9.1 bugfix July 2018 build 013d7b7c2542+ Fri, 06 Jul 2018 19:26:36 +0100
REM compiler GCC version 9.2.1 20190827 (Red Hat 9.2.1-1)
REM options -cpp -mtune=generic -march=x86-64 -g -O0 -fpre-include=/usr/include/finclude/math-vector-fortran.h
REM seed 238699456 -1473211191 315121112 1703679955 35229333 799360029 -419485964 -242019407 -777556554 205952278 -1028906398 44386498 1008928010 378557555 565488717 -1407065378 -909077942 87725626 -926031087 -202806562 1045740837 -1383343140 845444247 216798363 -734045685 62248061 -2049597312 -1680686821 1756732137 153731279 -1412955477 456817429 -512072954
REM
CELL 1.54180   50.00000   50.00000   50.00000   90.00000   90.00000   90.00000
LATT -1
SFAC C  
C      1  0.5155230000000  0.5319530000000  0.4249300000000 1.0
C      1  0.4592460000000  0.5683430000000  0.3943390000000 1.0
C      1  0.4762270000000  0.5165350000000  0.5540720000000 1.0
C      1  0.5701180000000  0.5072410000000  0.4890430000000 1.0
C      1  0.5181920000000  0.4664740000000  0.4531110000000 1.0
C      1  0.5616560000000  0.4122560000000  0.4483950000000 1.0
C      1  0.4795080000000  0.5449250000000  0.5570860000000 1.0
C      1  0.4633340000000  0.5250090000000  0.5062390000000 1.0
C      1  0.4085570000000  0.4953650000000  0.5246080000000 1.0
C      1  0.5514360000000  0.5111990000000  0.4675010000000 1.0
C      1  0.4846370000000  0.4985640000000  0.5744740000000 1.0
C      1  0.5311720000000  0.5609510000000  0.5054950000000 1.0
C      1  0.4307240000000  0.5041590000000  0.5373890000000 1.0
C      1  0.4946270000000  0.4666470000000  0.5206660000000 1.0
C      1  0.5022590000000  0.5587030000000  0.5479090000000 1.0
C      1  0.5387410000000  0.4519180000000  0.4654730000000 1.0
C      1  0.4594450000000  0.4908860000000  0.4702320000000 1.0
C      1  0.3878870000000  0.4604100000000  0.6586380000000 1.0
C      1  0.5546260000000  0.4719710000000  0.4102780000000 1.0
C      1  0.5633820000000  0.4595500000000  0.5347840000000 1.0
C      1  0.4081080000000  0.4822240000000  0.4995360000000 1.0
C      1  0.4764380000000  0.5115070000000  0.4846140000000 1.0
C      1  0.4916920000000  0.5463910000000  0.4311770000000 1.0
C      1  0.4395650000000  0.5708160000000  0.5429320000000 1.0
C      1  0.5175590000000  0.5691170000000  0.5285410000000 1.0
C      1  0.5972890000000  0.4546950000000  0.4242960000000 1.0
C      1  0.5834180000000  0.4295740000000  0.5022480000000 1.0
C      1  0.5151310000000  0.5030020000000  0.4210420000000 1.0
C      1  0.5575140000000  0.4398860000000  0.4476850000000 1.0
C      1  0.5602720000000  0.5190870000000  0.5135240000000 1.0
C      1  0.4469310000000  0.4825310000000  0.6102080000000 1.0
C      1  0.4272800000000  0.4751510000000  0.6263800000000 1.0
C      1  0.4320620000000  0.5016910000000  0.4627740000000 1.0
C      1  0.4751630000000  0.5577870000000  0.4120670000000 1.0
C      1  0.5562450000000  0.4825600000000  0.5492010000000 1.0
C      1  0.4555710000000  0.5518090000000  0.4990590000000 1.0
C      1  0.5357370000000  0.4905370000000  0.4060810000000 1.0
C      1  0.5390180000000  0.4500130000000  0.4940510000000 1.0
C      1  0.4674830000000  0.5609810000000  0.4746550000000 1.0
C      1  0.5110340000000  0.4894040000000  0.5754840000000 1.0
C      1  0.4562610000000  0.5604750000000  0.5613650000000 1.0
C      1  0.4870450000000  0.5473640000000  0.4590890000000 1.0
C      1  0.5378480000000  0.5669160000000  0.4538820000000 1.0
C      1  0.5591140000000  0.5248950000000  0.4439350000000 1.0
C      1  0.5364600000000  0.5330600000000  0.5047200000000 1.0
C      1  0.4746460000000  0.4831770000000  0.4460520000000 1.0
C      1  0.4696300000000  0.4788910000000  0.5179450000000 1.0
C      1  0.4547400000000  0.4711080000000  0.4938580000000 1.0
C      1  0.6050060000000  0.4157140000000  0.4976350000000 1.0
C      1  0.5259250000000  0.5201730000000  0.4803980000000 1.0
C      1  0.5700540000000  0.4554890000000  0.4271670000000 1.0
C      1  0.5830370000000  0.5221060000000  0.4313000000000 1.0
C      1  0.4988430000000  0.5248210000000  0.4735510000000 1.0
C      1  0.4399980000000  0.5673730000000  0.5162830000000 1.0
C      1  0.3685120000000  0.4531600000000  0.6745030000000 1.0
C      1  0.5641810000000  0.5072190000000  0.5382390000000 1.0
C      1  0.4280510000000  0.4616490000000  0.4974450000000 1.0
C      1  0.5393740000000  0.5440530000000  0.4364160000000 1.0
C      1  0.5349180000000  0.5736330000000  0.4801480000000 1.0
C      1  0.4600180000000  0.5065180000000  0.5305010000000 1.0
C      1  0.4661740000000  0.4900530000000  0.5936380000000 1.0
C      1  0.4075870000000  0.4677810000000  0.6425070000000 1.0
C      1  0.5623750000000  0.4460590000000  0.5100440000000 1.0
C      1  0.4084230000000  0.4981750000000  0.4759250000000 1.0
C      1  0.5152360000000  0.4550070000000  0.5084190000000 1.0
C      1  0.5643990000000  0.3863420000000  0.4480130000000 1.0
C      1  0.5355850000000  0.4825940000000  0.5679920000000 1.0
C      1  0.5017480000000  0.4843770000000  0.4388160000000 1.0
END
