TITL C-612600-6631-677 82.0384225236838 125000 -430.269416099911 0 0 72 (C1) n - 1
REM
REM in /home/nfs/bkarasulu/CARBON/AIRSS/Generating-Clusters/TERSOFF/Only-C1/FIRE-HFTN
REM
REM
REM
REM
REM
REM ./C.cell (11c1c37f851c82e70ff6c80c92926a4b)
REM AIRSS Version 0.9.1 bugfix July 2018 build 013d7b7c2542+ Fri, 06 Jul 2018 19:26:36 +0100
REM compiler GCC version 9.2.1 20190827 (Red Hat 9.2.1-1)
REM options -cpp -mtune=generic -march=x86-64 -g -O0 -fpre-include=/usr/include/finclude/math-vector-fortran.h
REM seed -412918346 885745228 165148549 1530618974 2124657227 -1258669726 -813020386 1836041248 1487524033 -494807503 362107971 35676253 1667389187 -1274119099 -557927915 -417718120 -1026369167 -1125779253 1737114151 -676340428 -1208832290 1102407385 -259530042 1353859083 350359080 3388631 1918684079 325628831 -280978442 -357476090 14724054 -333895129 851504002
REM
CELL 1.54180   50.00000   50.00000   50.00000   90.00000   90.00000   90.00000
LATT -1
SFAC C  
C      1  0.5040600000000  0.4681190000000  0.4991670000000 1.0
C      1  0.4964340000000  0.5777610000000  0.5293810000000 1.0
C      1  0.5427210000000  0.4745790000000  0.4291570000000 1.0
C      1  0.4575340000000  0.4329060000000  0.4979940000000 1.0
C      1  0.4642010000000  0.4542820000000  0.4804290000000 1.0
C      1  0.4731210000000  0.5426440000000  0.5514350000000 1.0
C      1  0.5699640000000  0.4861240000000  0.4714400000000 1.0
C      1  0.4868480000000  0.4094040000000  0.4896990000000 1.0
C      1  0.4784490000000  0.4427340000000  0.4580220000000 1.0
C      1  0.4456200000000  0.4857030000000  0.4352180000000 1.0
C      1  0.6227760000000  0.5378060000000  0.5221480000000 1.0
C      1  0.5390080000000  0.5635100000000  0.4805920000000 1.0
C      1  0.5274580000000  0.5372750000000  0.4349330000000 1.0
C      1  0.5123680000000  0.4957310000000  0.5479560000000 1.0
C      1  0.4440290000000  0.5461700000000  0.4903040000000 1.0
C      1  0.4215610000000  0.4966780000000  0.4790170000000 1.0
C      1  0.4906880000000  0.4186670000000  0.4638680000000 1.0
C      1  0.4688910000000  0.5009120000000  0.4303600000000 1.0
C      1  0.4392390000000  0.5714040000000  0.5373500000000 1.0
C      1  0.5591040000000  0.5476490000000  0.4890410000000 1.0
C      1  0.4918290000000  0.5486190000000  0.5280770000000 1.0
C      1  0.4456510000000  0.4613290000000  0.5625390000000 1.0
C      1  0.5552470000000  0.4940130000000  0.4471380000000 1.0
C      1  0.5573850000000  0.4824060000000  0.5697790000000 1.0
C      1  0.5752840000000  0.5263990000000  0.4989910000000 1.0
C      1  0.5676200000000  0.4982710000000  0.4976790000000 1.0
C      1  0.4975120000000  0.4087760000000  0.5152700000000 1.0
C      1  0.5136110000000  0.5678380000000  0.4688750000000 1.0
C      1  0.5061990000000  0.5518260000000  0.4461600000000 1.0
C      1  0.4180570000000  0.4598670000000  0.5207870000000 1.0
C      1  0.4770960000000  0.5476200000000  0.4476580000000 1.0
C      1  0.4276910000000  0.5248660000000  0.4798330000000 1.0
C      1  0.4263270000000  0.4814100000000  0.5030610000000 1.0
C      1  0.4925920000000  0.5908710000000  0.5050560000000 1.0
C      1  0.5188470000000  0.4784170000000  0.4782130000000 1.0
C      1  0.4830580000000  0.5882270000000  0.5525110000000 1.0
C      1  0.5034740000000  0.4989640000000  0.4642630000000 1.0
C      1  0.5542120000000  0.4684320000000  0.5444100000000 1.0
C      1  0.5568660000000  0.4520110000000  0.4203610000000 1.0
C      1  0.4548370000000  0.5002350000000  0.5373110000000 1.0
C      1  0.4655210000000  0.4835820000000  0.5605640000000 1.0
C      1  0.5923070000000  0.4441850000000  0.4518450000000 1.0
C      1  0.5780940000000  0.4383620000000  0.4296860000000 1.0
C      1  0.4705910000000  0.5023390000000  0.5833510000000 1.0
C      1  0.4934200000000  0.4740980000000  0.5508350000000 1.0
C      1  0.5153670000000  0.4793770000000  0.4228150000000 1.0
C      1  0.4868200000000  0.4277950000000  0.5343680000000 1.0
C      1  0.4590350000000  0.4334210000000  0.5260790000000 1.0
C      1  0.4375370000000  0.4473270000000  0.5390140000000 1.0
C      1  0.5041370000000  0.4479210000000  0.5454810000000 1.0
C      1  0.4259890000000  0.4847110000000  0.4536980000000 1.0
C      1  0.5478770000000  0.5206390000000  0.4406200000000 1.0
C      1  0.4518540000000  0.5277440000000  0.5374520000000 1.0
C      1  0.4661280000000  0.5585150000000  0.4735330000000 1.0
C      1  0.4653800000000  0.5289850000000  0.4304680000000 1.0
C      1  0.5418520000000  0.5015470000000  0.5822050000000 1.0
C      1  0.4958250000000  0.5288910000000  0.5059860000000 1.0
C      1  0.5539370000000  0.4870580000000  0.5212780000000 1.0
C      1  0.4911230000000  0.5204190000000  0.5812350000000 1.0
C      1  0.4851650000000  0.5083820000000  0.4862370000000 1.0
C      1  0.5163580000000  0.5105700000000  0.5725480000000 1.0
C      1  0.5232280000000  0.5222000000000  0.5096100000000 1.0
C      1  0.4608420000000  0.5704790000000  0.5573970000000 1.0
C      1  0.5881780000000  0.4646160000000  0.4688190000000 1.0
C      1  0.5332840000000  0.4479630000000  0.5443720000000 1.0
C      1  0.4404210000000  0.5486280000000  0.5192230000000 1.0
C      1  0.5299460000000  0.5018110000000  0.5267460000000 1.0
C      1  0.4889580000000  0.5760840000000  0.4818450000000 1.0
C      1  0.4755010000000  0.4793280000000  0.4959300000000 1.0
C      1  0.4526550000000  0.4872600000000  0.5129330000000 1.0
C      1  0.5999130000000  0.5326460000000  0.5107540000000 1.0
C      1  0.4952860000000  0.4926650000000  0.4375860000000 1.0
END
