TITL C-612607-4507-768 0.624621031313923 125000 -357.712411173772 0 0 59 (C1) n - 1
REM
REM in /home/nfs/bkarasulu/CARBON/AIRSS/Generating-Clusters/TERSOFF/Only-C1/FIRE-HFTN
REM
REM
REM
REM
REM
REM ./C.cell (11c1c37f851c82e70ff6c80c92926a4b)
REM AIRSS Version 0.9.1 bugfix July 2018 build 013d7b7c2542+ Fri, 06 Jul 2018 19:26:36 +0100
REM compiler GCC version 9.2.1 20190827 (Red Hat 9.2.1-1)
REM options -cpp -mtune=generic -march=x86-64 -g -O0 -fpre-include=/usr/include/finclude/math-vector-fortran.h
REM seed -1146263722 641716141 1866505302 -684682501 1963698319 -1354590194 -1269928790 -209452949 -1352169838 -387646279 -1781805188 -1199040183 -1525391864 1100289931 -81891059 1580211224 -224393925 1497687933 1598453329 123905840 974151399 -1813488766 -1176250634 2146653438 792431999 -127798217 -416992327 1063850266 1214551447 -445552118 -1534807659 -43367925 1999132054
REM
CELL 1.54180   50.00000   50.00000   50.00000   90.00000   90.00000   90.00000
LATT -1
SFAC C  
C      1  0.4909340000000  0.5532170000000  0.5007440000000 1.0
C      1  0.4459480000000  0.5617680000000  0.5195250000000 1.0
C      1  0.4996510000000  0.5063920000000  0.3698580000000 1.0
C      1  0.4776240000000  0.4949110000000  0.4469670000000 1.0
C      1  0.5285210000000  0.3882340000000  0.5242100000000 1.0
C      1  0.4906880000000  0.4801000000000  0.5649590000000 1.0
C      1  0.4400010000000  0.5355300000000  0.5151210000000 1.0
C      1  0.4859360000000  0.4160960000000  0.4817530000000 1.0
C      1  0.4550830000000  0.4777110000000  0.4501080000000 1.0
C      1  0.4712740000000  0.5732970000000  0.5138720000000 1.0
C      1  0.5047760000000  0.5403220000000  0.5259830000000 1.0
C      1  0.4922770000000  0.5237010000000  0.5448880000000 1.0
C      1  0.4839520000000  0.5974340000000  0.5223420000000 1.0
C      1  0.4405950000000  0.4607400000000  0.4677610000000 1.0
C      1  0.4638130000000  0.4922740000000  0.5692000000000 1.0
C      1  0.5651520000000  0.4871940000000  0.4717860000000 1.0
C      1  0.4810690000000  0.4406930000000  0.4926100000000 1.0
C      1  0.5812040000000  0.5064890000000  0.5708970000000 1.0
C      1  0.5135730000000  0.5691560000000  0.4882530000000 1.0
C      1  0.5104760000000  0.4606980000000  0.5700260000000 1.0
C      1  0.4665200000000  0.4921950000000  0.5100570000000 1.0
C      1  0.4041010000000  0.4672360000000  0.5223980000000 1.0
C      1  0.4550220000000  0.4524810000000  0.4913400000000 1.0
C      1  0.3984000000000  0.4641110000000  0.4958880000000 1.0
C      1  0.5824310000000  0.5563790000000  0.5566400000000 1.0
C      1  0.5039990000000  0.4574070000000  0.5056090000000 1.0
C      1  0.5864880000000  0.5325460000000  0.5680900000000 1.0
C      1  0.5239370000000  0.4657210000000  0.4845360000000 1.0
C      1  0.4125060000000  0.4619730000000  0.4726880000000 1.0
C      1  0.4403310000000  0.4797650000000  0.5585340000000 1.0
C      1  0.4300530000000  0.4709650000000  0.5332920000000 1.0
C      1  0.5098950000000  0.5006260000000  0.3935930000000 1.0
C      1  0.5335410000000  0.5410150000000  0.5252570000000 1.0
C      1  0.5481390000000  0.4786810000000  0.4925760000000 1.0
C      1  0.5028030000000  0.4838100000000  0.4393350000000 1.0
C      1  0.5227970000000  0.4136590000000  0.5244140000000 1.0
C      1  0.4766340000000  0.5318040000000  0.4851080000000 1.0
C      1  0.4999040000000  0.4957860000000  0.5417880000000 1.0
C      1  0.5509200000000  0.4742060000000  0.5434710000000 1.0
C      1  0.5148430000000  0.4665720000000  0.4580020000000 1.0
C      1  0.4789880000000  0.5178630000000  0.3228930000000 1.0
C      1  0.5478780000000  0.5173800000000  0.5214400000000 1.0
C      1  0.5450100000000  0.5673570000000  0.5238650000000 1.0
C      1  0.5106810000000  0.6031640000000  0.5204880000000 1.0
C      1  0.5504210000000  0.4893890000000  0.5188610000000 1.0
C      1  0.4582370000000  0.5178910000000  0.5024590000000 1.0
C      1  0.5285170000000  0.5845900000000  0.5080130000000 1.0
C      1  0.4787970000000  0.5204020000000  0.4595450000000 1.0
C      1  0.5685250000000  0.4842400000000  0.5630530000000 1.0
C      1  0.4695630000000  0.5209410000000  0.5630890000000 1.0
C      1  0.5187360000000  0.4411690000000  0.5267860000000 1.0
C      1  0.4494280000000  0.4703360000000  0.5126440000000 1.0
C      1  0.5678080000000  0.5711160000000  0.5396260000000 1.0
C      1  0.5295330000000  0.4557210000000  0.5490370000000 1.0
C      1  0.4892350000000  0.5121750000000  0.3461800000000 1.0
C      1  0.5464870000000  0.4988680000000  0.4261680000000 1.0
C      1  0.5637330000000  0.4955900000000  0.4463840000000 1.0
C      1  0.5195340000000  0.4946920000000  0.4189920000000 1.0
C      1  0.4930820000000  0.4842220000000  0.5169980000000 1.0
END
