TITL C-612601-4209-688 -0.0147758317181263 125000 -458.930748511883 0 0 75 (C1) n - 1
REM
REM in /home/nfs/bkarasulu/CARBON/AIRSS/Generating-Clusters/TERSOFF/Only-C1/FIRE-HFTN
REM
REM
REM
REM
REM
REM ./C.cell (11c1c37f851c82e70ff6c80c92926a4b)
REM AIRSS Version 0.9.1 bugfix July 2018 build 013d7b7c2542+ Fri, 06 Jul 2018 19:26:36 +0100
REM compiler GCC version 9.2.1 20190827 (Red Hat 9.2.1-1)
REM options -cpp -mtune=generic -march=x86-64 -g -O0 -fpre-include=/usr/include/finclude/math-vector-fortran.h
REM seed -1932337645 423832967 -2035594732 606917580 343817598 1315463206 -54122967 -1135773184 604898827 -375012147 -1701023330 -546438083 106544572 -316484542 871353480 881761621 321670067 1546903259 -1493902425 -1512472075 -561458086 -21457696 1442423652 1400186642 -241876840 100873559 162143931 346259863 -773639683 140703342 1136371556 921539695 -997262157
REM
CELL 1.54180   50.00000   50.00000   50.00000   90.00000   90.00000   90.00000
LATT -1
SFAC C  
C      1  0.4920180000000  0.4961990000000  0.4242370000000 1.0
C      1  0.5785210000000  0.5510850000000  0.4632050000000 1.0
C      1  0.4810280000000  0.5461070000000  0.4151530000000 1.0
C      1  0.4977380000000  0.5045370000000  0.6118110000000 1.0
C      1  0.4674610000000  0.4320420000000  0.4865610000000 1.0
C      1  0.4347220000000  0.4892460000000  0.4940270000000 1.0
C      1  0.5767080000000  0.4821250000000  0.5021090000000 1.0
C      1  0.4974490000000  0.5853150000000  0.4429490000000 1.0
C      1  0.4685090000000  0.4547660000000  0.5331750000000 1.0
C      1  0.4613560000000  0.4775140000000  0.4965220000000 1.0
C      1  0.5832400000000  0.5329540000000  0.4842160000000 1.0
C      1  0.4369940000000  0.5089120000000  0.5374270000000 1.0
C      1  0.5569810000000  0.5691770000000  0.4655240000000 1.0
C      1  0.5282710000000  0.5479530000000  0.4966630000000 1.0
C      1  0.4090170000000  0.5085750000000  0.4579980000000 1.0
C      1  0.5655970000000  0.5061380000000  0.4161400000000 1.0
C      1  0.5564830000000  0.4668060000000  0.4895230000000 1.0
C      1  0.4286310000000  0.4895980000000  0.4648980000000 1.0
C      1  0.4760320000000  0.6044870000000  0.4463200000000 1.0
C      1  0.5315680000000  0.5681930000000  0.4773580000000 1.0
C      1  0.4828090000000  0.4720420000000  0.5143920000000 1.0
C      1  0.4002130000000  0.5276010000000  0.4754130000000 1.0
C      1  0.5853030000000  0.5233990000000  0.4215460000000 1.0
C      1  0.4694920000000  0.6076410000000  0.4730260000000 1.0
C      1  0.5251590000000  0.5556110000000  0.4117480000000 1.0
C      1  0.4757890000000  0.5382610000000  0.5456910000000 1.0
C      1  0.4213460000000  0.5057760000000  0.5134480000000 1.0
C      1  0.5158060000000  0.4350370000000  0.5104960000000 1.0
C      1  0.4660670000000  0.4512730000000  0.6062640000000 1.0
C      1  0.4526730000000  0.4764870000000  0.4526960000000 1.0
C      1  0.4905420000000  0.5142200000000  0.5881270000000 1.0
C      1  0.4649000000000  0.4296780000000  0.5171660000000 1.0
C      1  0.5225060000000  0.4826140000000  0.4603430000000 1.0
C      1  0.5072790000000  0.5813170000000  0.4706850000000 1.0
C      1  0.4819790000000  0.5136980000000  0.4653960000000 1.0
C      1  0.4805680000000  0.4624110000000  0.6256570000000 1.0
C      1  0.4443600000000  0.5735410000000  0.5126010000000 1.0
C      1  0.5986710000000  0.4543970000000  0.5422820000000 1.0
C      1  0.5490860000000  0.4092000000000  0.5653090000000 1.0
C      1  0.4733740000000  0.4952330000000  0.4453000000000 1.0
C      1  0.5086950000000  0.4175140000000  0.5320510000000 1.0
C      1  0.5923670000000  0.4353850000000  0.5597570000000 1.0
C      1  0.4838950000000  0.5272840000000  0.4893100000000 1.0
C      1  0.4578050000000  0.4534740000000  0.5810570000000 1.0
C      1  0.4756750000000  0.5159700000000  0.5647010000000 1.0
C      1  0.5194930000000  0.4895120000000  0.4330590000000 1.0
C      1  0.5925090000000  0.4703210000000  0.5219690000000 1.0
C      1  0.4962210000000  0.4849000000000  0.6318300000000 1.0
C      1  0.5420480000000  0.4220820000000  0.4728420000000 1.0
C      1  0.4548680000000  0.4958060000000  0.5565570000000 1.0
C      1  0.5892880000000  0.5439310000000  0.4382790000000 1.0
C      1  0.5607650000000  0.4412290000000  0.4776790000000 1.0
C      1  0.5227850000000  0.5274400000000  0.4061320000000 1.0
C      1  0.4934870000000  0.5206810000000  0.4087840000000 1.0
C      1  0.5036610000000  0.5396550000000  0.5061100000000 1.0
C      1  0.5004500000000  0.5669490000000  0.4221010000000 1.0
C      1  0.4107550000000  0.5314690000000  0.5017600000000 1.0
C      1  0.5091070000000  0.4874970000000  0.6557130000000 1.0
C      1  0.4902050000000  0.5555000000000  0.5269010000000 1.0
C      1  0.5378650000000  0.5056750000000  0.4175300000000 1.0
C      1  0.4221640000000  0.5575840000000  0.5085960000000 1.0
C      1  0.5165200000000  0.4213060000000  0.4847500000000 1.0
C      1  0.5261110000000  0.4094330000000  0.5520080000000 1.0
C      1  0.4855860000000  0.5901980000000  0.4900780000000 1.0
C      1  0.4611570000000  0.4578170000000  0.4743290000000 1.0
C      1  0.4590020000000  0.5309610000000  0.5014480000000 1.0
C      1  0.4534230000000  0.5309270000000  0.5290420000000 1.0
C      1  0.4813560000000  0.4097370000000  0.5298450000000 1.0
C      1  0.4899780000000  0.4178630000000  0.4750790000000 1.0
C      1  0.5100520000000  0.4638630000000  0.5066200000000 1.0
C      1  0.5810900000000  0.5089600000000  0.4954400000000 1.0
C      1  0.4737160000000  0.5766740000000  0.5128090000000 1.0
C      1  0.5738060000000  0.4184590000000  0.5685150000000 1.0
C      1  0.4590040000000  0.4673210000000  0.5568180000000 1.0
C      1  0.5288460000000  0.4754580000000  0.4870990000000 1.0
END
