TITL C-612600-6631-930 0.00241601996221484 125000 -850.948068437973 0 0 140 (C1) n - 1
REM
REM in /home/nfs/bkarasulu/CARBON/AIRSS/Generating-Clusters/TERSOFF/Only-C1/FIRE-HFTN
REM
REM
REM
REM
REM
REM ./C.cell (11c1c37f851c82e70ff6c80c92926a4b)
REM AIRSS Version 0.9.1 bugfix July 2018 build 013d7b7c2542+ Fri, 06 Jul 2018 19:26:36 +0100
REM compiler GCC version 9.2.1 20190827 (Red Hat 9.2.1-1)
REM options -cpp -mtune=generic -march=x86-64 -g -O0 -fpre-include=/usr/include/finclude/math-vector-fortran.h
REM seed -1947847286 -1000545554 1576635696 286669415 -1963942582 -113329391 -295073407 1338358378 954009318 700759045 578517465 -1316303134 -259094341 1379483526 163312024 -543544587 -1262543832 1236109261 160984264 -108316290 -1256397183 -1035003936 -1649423880 -724120552 1826271339 284279883 -1304778289 -1670573013 260416546 -848030957 -973069248 -1183337813 927692772
REM
CELL 1.54180   50.00000   50.00000   50.00000   90.00000   90.00000   90.00000
LATT -1
SFAC C  
C      1  0.5461900000000  0.4878500000000  0.5559790000000 1.0
C      1  0.4347560000000  0.4982560000000  0.4866920000000 1.0
C      1  0.5294380000000  0.4651700000000  0.3959740000000 1.0
C      1  0.5636230000000  0.4081280000000  0.4629230000000 1.0
C      1  0.5656480000000  0.4165640000000  0.4892930000000 1.0
C      1  0.5479570000000  0.4145070000000  0.4404240000000 1.0
C      1  0.4627980000000  0.4596970000000  0.5698770000000 1.0
C      1  0.5927070000000  0.5215630000000  0.5802990000000 1.0
C      1  0.5274710000000  0.5064390000000  0.5678750000000 1.0
C      1  0.5309150000000  0.4444690000000  0.5420100000000 1.0
C      1  0.5064550000000  0.5431660000000  0.5033580000000 1.0
C      1  0.4265690000000  0.5431590000000  0.5565800000000 1.0
C      1  0.4313090000000  0.4979200000000  0.4590520000000 1.0
C      1  0.4018130000000  0.4399540000000  0.4781960000000 1.0
C      1  0.5703480000000  0.5604020000000  0.5406500000000 1.0
C      1  0.5025720000000  0.6193100000000  0.4991420000000 1.0
C      1  0.5191320000000  0.5746010000000  0.4491410000000 1.0
C      1  0.4381490000000  0.5314490000000  0.4080830000000 1.0
C      1  0.4350960000000  0.4296450000000  0.4432450000000 1.0
C      1  0.4714870000000  0.5139440000000  0.4428730000000 1.0
C      1  0.5680840000000  0.4773530000000  0.5694790000000 1.0
C      1  0.4584560000000  0.5961420000000  0.4797090000000 1.0
C      1  0.4180750000000  0.5620610000000  0.4510930000000 1.0
C      1  0.5978190000000  0.4572290000000  0.5403750000000 1.0
C      1  0.4591870000000  0.4116910000000  0.4840250000000 1.0
C      1  0.4414410000000  0.4732210000000  0.4970410000000 1.0
C      1  0.5441460000000  0.4895980000000  0.5270320000000 1.0
C      1  0.5784520000000  0.6041900000000  0.4364860000000 1.0
C      1  0.6295400000000  0.5192610000000  0.4778880000000 1.0
C      1  0.3891820000000  0.5312760000000  0.4837330000000 1.0
C      1  0.5092940000000  0.4528480000000  0.3835190000000 1.0
C      1  0.4549720000000  0.5526560000000  0.4183080000000 1.0
C      1  0.5487780000000  0.5313790000000  0.4579590000000 1.0
C      1  0.4502750000000  0.4469870000000  0.4260720000000 1.0
C      1  0.5487780000000  0.4646410000000  0.4164860000000 1.0
C      1  0.4992810000000  0.4696500000000  0.5159560000000 1.0
C      1  0.4608480000000  0.4570630000000  0.4849990000000 1.0
C      1  0.4646000000000  0.5721790000000  0.5512540000000 1.0
C      1  0.5262070000000  0.5756650000000  0.5407860000000 1.0
C      1  0.5529970000000  0.5174880000000  0.5166150000000 1.0
C      1  0.3922680000000  0.5914970000000  0.5134650000000 1.0
C      1  0.5266520000000  0.4665820000000  0.5227330000000 1.0
C      1  0.5379540000000  0.5819650000000  0.4938320000000 1.0
C      1  0.4106660000000  0.4430850000000  0.4513800000000 1.0
C      1  0.5244270000000  0.4979730000000  0.4760780000000 1.0
C      1  0.4562050000000  0.4905490000000  0.5390360000000 1.0
C      1  0.5137160000000  0.4961230000000  0.4500740000000 1.0
C      1  0.4492360000000  0.5181980000000  0.5006100000000 1.0
C      1  0.6178510000000  0.5183070000000  0.5382930000000 1.0
C      1  0.4159180000000  0.4893380000000  0.5661940000000 1.0
C      1  0.5554490000000  0.5337830000000  0.4889360000000 1.0
C      1  0.4712520000000  0.3973430000000  0.4368180000000 1.0
C      1  0.4080750000000  0.4876240000000  0.4186220000000 1.0
C      1  0.5107210000000  0.5295570000000  0.6282990000000 1.0
C      1  0.4525590000000  0.4094480000000  0.4557820000000 1.0
C      1  0.5069790000000  0.5369850000000  0.4252350000000 1.0
C      1  0.4168670000000  0.5549060000000  0.5321250000000 1.0
C      1  0.4058200000000  0.4394590000000  0.5049320000000 1.0
C      1  0.5533010000000  0.4390380000000  0.4275640000000 1.0
C      1  0.5062740000000  0.5489880000000  0.6106850000000 1.0
C      1  0.5112610000000  0.4652240000000  0.5832680000000 1.0
C      1  0.5682880000000  0.4652210000000  0.4841400000000 1.0
C      1  0.4475310000000  0.5589010000000  0.5672070000000 1.0
C      1  0.5466350000000  0.4105360000000  0.5107350000000 1.0
C      1  0.4727790000000  0.5693180000000  0.5260110000000 1.0
C      1  0.4671690000000  0.5067920000000  0.5194790000000 1.0
C      1  0.5016140000000  0.4916200000000  0.5721730000000 1.0
C      1  0.4907400000000  0.5783210000000  0.4419240000000 1.0
C      1  0.5112210000000  0.5730420000000  0.5642220000000 1.0
C      1  0.4769700000000  0.3908730000000  0.5315760000000 1.0
C      1  0.6262250000000  0.5399020000000  0.5219430000000 1.0
C      1  0.5389940000000  0.5882550000000  0.4634250000000 1.0
C      1  0.4673540000000  0.4339430000000  0.5011570000000 1.0
C      1  0.4987410000000  0.3927760000000  0.4417340000000 1.0
C      1  0.3837780000000  0.5140920000000  0.5037200000000 1.0
C      1  0.4655140000000  0.3996670000000  0.4090690000000 1.0
C      1  0.6397380000000  0.5607160000000  0.5337210000000 1.0
C      1  0.4030230000000  0.4653910000000  0.4340010000000 1.0
C      1  0.4847720000000  0.5564970000000  0.4208360000000 1.0
C      1  0.5061990000000  0.5643040000000  0.5889100000000 1.0
C      1  0.5194100000000  0.4072630000000  0.5028780000000 1.0
C      1  0.5831430000000  0.5735670000000  0.4759700000000 1.0
C      1  0.4224440000000  0.5173860000000  0.5680550000000 1.0
C      1  0.5095940000000  0.5141590000000  0.4959240000000 1.0
C      1  0.4340980000000  0.4671450000000  0.5750400000000 1.0
C      1  0.6084340000000  0.5627870000000  0.4810400000000 1.0
C      1  0.5450120000000  0.5296760000000  0.5676590000000 1.0
C      1  0.5678710000000  0.5897690000000  0.4570010000000 1.0
C      1  0.4976560000000  0.5118050000000  0.4337110000000 1.0
C      1  0.3947290000000  0.4858190000000  0.5472280000000 1.0
C      1  0.4734660000000  0.4866600000000  0.5622500000000 1.0
C      1  0.5601710000000  0.4884930000000  0.4269350000000 1.0
C      1  0.4007290000000  0.5476430000000  0.4657670000000 1.0
C      1  0.4644830000000  0.4673420000000  0.4390450000000 1.0
C      1  0.5241870000000  0.3997050000000  0.4366190000000 1.0
C      1  0.4640300000000  0.5846160000000  0.4537900000000 1.0
C      1  0.5203300000000  0.4820980000000  0.6310550000000 1.0
C      1  0.4207780000000  0.5102400000000  0.4095460000000 1.0
C      1  0.4429730000000  0.5694620000000  0.4397040000000 1.0
C      1  0.5940840000000  0.4786930000000  0.5582550000000 1.0
C      1  0.4158910000000  0.5772250000000  0.5138360000000 1.0
C      1  0.5276180000000  0.6096820000000  0.5024700000000 1.0
C      1  0.5183830000000  0.5071940000000  0.6434970000000 1.0
C      1  0.5476950000000  0.4819980000000  0.4802580000000 1.0
C      1  0.5117630000000  0.4240020000000  0.4811160000000 1.0
C      1  0.6048930000000  0.5053510000000  0.5597910000000 1.0
C      1  0.4610490000000  0.5397740000000  0.4876860000000 1.0
C      1  0.4907070000000  0.4339930000000  0.3802600000000 1.0
C      1  0.5623980000000  0.5626350000000  0.4929140000000 1.0
C      1  0.4665490000000  0.5345670000000  0.4611440000000 1.0
C      1  0.4385300000000  0.4693040000000  0.5258780000000 1.0
C      1  0.4534610000000  0.4931000000000  0.4420270000000 1.0
C      1  0.5615250000000  0.5111390000000  0.4416610000000 1.0
C      1  0.5217650000000  0.5653630000000  0.5138120000000 1.0
C      1  0.6215550000000  0.5409620000000  0.4936490000000 1.0
C      1  0.5183000000000  0.4654850000000  0.6102950000000 1.0
C      1  0.5002860000000  0.3931870000000  0.5182650000000 1.0
C      1  0.4747920000000  0.4141830000000  0.3884920000000 1.0
C      1  0.5539680000000  0.5817540000000  0.5447230000000 1.0
C      1  0.5015590000000  0.4432970000000  0.4652990000000 1.0
C      1  0.5776070000000  0.4419210000000  0.4969940000000 1.0
C      1  0.5279620000000  0.5474050000000  0.4429280000000 1.0
C      1  0.4238140000000  0.4434820000000  0.5271760000000 1.0
C      1  0.5788370000000  0.4418750000000  0.5262910000000 1.0
C      1  0.4779410000000  0.4584510000000  0.4623490000000 1.0
C      1  0.4777780000000  0.6138400000000  0.4904830000000 1.0
C      1  0.4919320000000  0.4969480000000  0.5104590000000 1.0
C      1  0.4344090000000  0.4200420000000  0.5393360000000 1.0
C      1  0.4820840000000  0.4424260000000  0.5532440000000 1.0
C      1  0.4529980000000  0.4004700000000  0.5394090000000 1.0
C      1  0.5101310000000  0.4445300000000  0.5630990000000 1.0
C      1  0.6342000000000  0.4979340000000  0.4636530000000 1.0
C      1  0.4367400000000  0.5868620000000  0.4964130000000 1.0
C      1  0.3849400000000  0.4976210000000  0.5249580000000 1.0
C      1  0.5673870000000  0.5302280000000  0.5860140000000 1.0
C      1  0.4793730000000  0.5532360000000  0.5040280000000 1.0
C      1  0.5239180000000  0.5098630000000  0.6701470000000 1.0
C      1  0.5569830000000  0.5351680000000  0.5406650000000 1.0
C      1  0.5529840000000  0.4281740000000  0.5336840000000 1.0
C      1  0.4820950000000  0.4460920000000  0.5237050000000 1.0
END
