TITL C-612603-7354-700 117.745819527747 125000 -1203.42112742287 0 0 195 (C1) n - 1
REM
REM in /home/nfs/bkarasulu/CARBON/AIRSS/Generating-Clusters/TERSOFF/Only-C1/FIRE-HFTN
REM
REM
REM
REM
REM
REM ./C.cell (11c1c37f851c82e70ff6c80c92926a4b)
REM AIRSS Version 0.9.1 bugfix July 2018 build 013d7b7c2542+ Fri, 06 Jul 2018 19:26:36 +0100
REM compiler GCC version 9.2.1 20190827 (Red Hat 9.2.1-1)
REM options -cpp -mtune=generic -march=x86-64 -g -O0 -fpre-include=/usr/include/finclude/math-vector-fortran.h
REM seed -82195327 1466822867 -1778070716 -524951874 -847705229 -1464783723 -1549058172 -1048338379 -1385428139 467736531 1617075575 1122832101 -1535663367 -747306089 160797903 -1595563858 -2003018612 -1497482034 1619424407 1625893304 679876 -922013071 -314389036 -1698104816 983767259 881382023 1598249087 -1980100921 -2052359764 2053834398 212384629 -388022545 1039346469
REM
CELL 1.54180   50.00000   50.00000   50.00000   90.00000   90.00000   90.00000
LATT -1
SFAC C  
C      1  0.5971640000000  0.5579730000000  0.4188110000000 1.0
C      1  0.4376260000000  0.4450220000000  0.5057390000000 1.0
C      1  0.4736040000000  0.4338790000000  0.5373180000000 1.0
C      1  0.5708690000000  0.4871730000000  0.3951350000000 1.0
C      1  0.5084840000000  0.4419020000000  0.5004440000000 1.0
C      1  0.5355420000000  0.4723580000000  0.5610740000000 1.0
C      1  0.4050170000000  0.4368840000000  0.4504650000000 1.0
C      1  0.4178970000000  0.4636520000000  0.4081000000000 1.0
C      1  0.5012930000000  0.5099320000000  0.3805560000000 1.0
C      1  0.5889120000000  0.5841040000000  0.5703320000000 1.0
C      1  0.4040080000000  0.5674830000000  0.5537920000000 1.0
C      1  0.5452920000000  0.4915960000000  0.5048950000000 1.0
C      1  0.4578950000000  0.4536800000000  0.6024390000000 1.0
C      1  0.3702360000000  0.5294350000000  0.5149070000000 1.0
C      1  0.5242760000000  0.3831490000000  0.4847600000000 1.0
C      1  0.4963340000000  0.3808910000000  0.4933440000000 1.0
C      1  0.5043120000000  0.4289520000000  0.6072790000000 1.0
C      1  0.5552360000000  0.4646670000000  0.5425210000000 1.0
C      1  0.5196810000000  0.4959940000000  0.4362920000000 1.0
C      1  0.3895630000000  0.5397870000000  0.6136080000000 1.0
C      1  0.5409890000000  0.5643340000000  0.4438750000000 1.0
C      1  0.4820180000000  0.4002850000000  0.4237720000000 1.0
C      1  0.5000270000000  0.6115570000000  0.5374450000000 1.0
C      1  0.5809960000000  0.4162620000000  0.4955620000000 1.0
C      1  0.5651680000000  0.5238750000000  0.4288320000000 1.0
C      1  0.4702810000000  0.4232700000000  0.5635580000000 1.0
C      1  0.5337380000000  0.5628160000000  0.3777440000000 1.0
C      1  0.5423210000000  0.5237660000000  0.4710480000000 1.0
C      1  0.6223450000000  0.4323970000000  0.4684770000000 1.0
C      1  0.5404800000000  0.5866980000000  0.4621910000000 1.0
C      1  0.5886390000000  0.5804270000000  0.5063500000000 1.0
C      1  0.4538590000000  0.4404200000000  0.4254910000000 1.0
C      1  0.5295260000000  0.4663240000000  0.6221870000000 1.0
C      1  0.4759040000000  0.5090680000000  0.4004970000000 1.0
C      1  0.5301410000000  0.5104910000000  0.5897370000000 1.0
C      1  0.4950890000000  0.5951200000000  0.4515750000000 1.0
C      1  0.5898300000000  0.5531400000000  0.5160610000000 1.0
C      1  0.5129560000000  0.5137030000000  0.5360210000000 1.0
C      1  0.4857350000000  0.6403920000000  0.5019690000000 1.0
C      1  0.4891620000000  0.4019660000000  0.5683640000000 1.0
C      1  0.5602670000000  0.5521500000000  0.3787970000000 1.0
C      1  0.5264120000000  0.3962980000000  0.4580950000000 1.0
C      1  0.6134150000000  0.5123470000000  0.5682100000000 1.0
C      1  0.4835980000000  0.5624200000000  0.3954940000000 1.0
C      1  0.5187840000000  0.5407240000000  0.5416210000000 1.0
C      1  0.4513790000000  0.5898430000000  0.4954020000000 1.0
C      1  0.4598810000000  0.5365850000000  0.5663090000000 1.0
C      1  0.4899590000000  0.5280450000000  0.4901530000000 1.0
C      1  0.4721970000000  0.5858000000000  0.4067630000000 1.0
C      1  0.4382820000000  0.3911730000000  0.4902370000000 1.0
C      1  0.5868220000000  0.3704390000000  0.4264890000000 1.0
C      1  0.4700080000000  0.4750420000000  0.3978570000000 1.0
C      1  0.3851290000000  0.5069240000000  0.4714780000000 1.0
C      1  0.4729910000000  0.5099110000000  0.4332050000000 1.0
C      1  0.4669500000000  0.5139580000000  0.6315390000000 1.0
C      1  0.4161600000000  0.4351040000000  0.4895960000000 1.0
C      1  0.5740840000000  0.4584730000000  0.3955810000000 1.0
C      1  0.4138410000000  0.4103210000000  0.4528410000000 1.0
C      1  0.3963550000000  0.4835940000000  0.6120150000000 1.0
C      1  0.4939090000000  0.4958210000000  0.4478970000000 1.0
C      1  0.4886830000000  0.5748600000000  0.4699910000000 1.0
C      1  0.5721600000000  0.4450700000000  0.5527200000000 1.0
C      1  0.4911510000000  0.4968850000000  0.4973140000000 1.0
C      1  0.5408800000000  0.6507760000000  0.4524310000000 1.0
C      1  0.5206530000000  0.6068360000000  0.4564330000000 1.0
C      1  0.4435760000000  0.4727660000000  0.5076670000000 1.0
C      1  0.5749170000000  0.5436380000000  0.5373860000000 1.0
C      1  0.5321990000000  0.4500330000000  0.4300190000000 1.0
C      1  0.6012640000000  0.4895010000000  0.5562380000000 1.0
C      1  0.5635800000000  0.4508240000000  0.4652010000000 1.0
C      1  0.5183770000000  0.4978250000000  0.5124850000000 1.0
C      1  0.4798370000000  0.5476430000000  0.4679820000000 1.0
C      1  0.3815960000000  0.5221500000000  0.6343670000000 1.0
C      1  0.5126570000000  0.5627580000000  0.3965910000000 1.0
C      1  0.4975300000000  0.4034070000000  0.4497120000000 1.0
C      1  0.5552280000000  0.4611590000000  0.6155340000000 1.0
C      1  0.5173640000000  0.5270560000000  0.6081850000000 1.0
C      1  0.5229820000000  0.5653200000000  0.4225540000000 1.0
C      1  0.3924940000000  0.5697550000000  0.5272700000000 1.0
C      1  0.4620630000000  0.5115350000000  0.5824070000000 1.0
C      1  0.5041210000000  0.5501650000000  0.6093910000000 1.0
C      1  0.5533340000000  0.4984070000000  0.4785790000000 1.0
C      1  0.4748210000000  0.5407600000000  0.5171230000000 1.0
C      1  0.3845580000000  0.4952490000000  0.6334280000000 1.0
C      1  0.4007810000000  0.5273810000000  0.5902600000000 1.0
C      1  0.4246090000000  0.4857890000000  0.5714650000000 1.0
C      1  0.4557300000000  0.4120570000000  0.4251040000000 1.0
C      1  0.4306110000000  0.5033740000000  0.4578680000000 1.0
C      1  0.4160710000000  0.4078530000000  0.4826070000000 1.0
C      1  0.5646520000000  0.4828540000000  0.5234840000000 1.0
C      1  0.3623550000000  0.5011150000000  0.4592540000000 1.0
C      1  0.5655530000000  0.5338400000000  0.5600890000000 1.0
C      1  0.5325390000000  0.4767090000000  0.4206170000000 1.0
C      1  0.4776370000000  0.6220740000000  0.5220790000000 1.0
C      1  0.4589820000000  0.5259500000000  0.6532640000000 1.0
C      1  0.5038020000000  0.4568740000000  0.6150170000000 1.0
C      1  0.5808490000000  0.5602320000000  0.3971450000000 1.0
C      1  0.4866640000000  0.5665640000000  0.5176910000000 1.0
C      1  0.4531370000000  0.4569880000000  0.4496060000000 1.0
C      1  0.3405650000000  0.4943140000000  0.4466690000000 1.0
C      1  0.6007510000000  0.4589140000000  0.4346440000000 1.0
C      1  0.4528210000000  0.3856310000000  0.4658540000000 1.0
C      1  0.6062070000000  0.5508280000000  0.4434850000000 1.0
C      1  0.5932530000000  0.4667840000000  0.5720160000000 1.0
C      1  0.4788610000000  0.4714820000000  0.6098610000000 1.0
C      1  0.4030030000000  0.5405640000000  0.5652030000000 1.0
C      1  0.4147890000000  0.5348070000000  0.5003920000000 1.0
C      1  0.5875350000000  0.4838380000000  0.4420300000000 1.0
C      1  0.4000970000000  0.4690610000000  0.3882110000000 1.0
C      1  0.5532350000000  0.5013370000000  0.3768430000000 1.0
C      1  0.4384080000000  0.5959100000000  0.6047150000000 1.0
C      1  0.5707230000000  0.4489050000000  0.5960230000000 1.0
C      1  0.4340710000000  0.6036640000000  0.5397880000000 1.0
C      1  0.4794130000000  0.5823800000000  0.4955320000000 1.0
C      1  0.5150020000000  0.5662360000000  0.5267090000000 1.0
C      1  0.5292610000000  0.5602560000000  0.5005330000000 1.0
C      1  0.5334150000000  0.4212830000000  0.5695510000000 1.0
C      1  0.4809210000000  0.3847180000000  0.5176710000000 1.0
C      1  0.5474820000000  0.3787980000000  0.4998190000000 1.0
C      1  0.4790300000000  0.5993220000000  0.4289950000000 1.0
C      1  0.4514450000000  0.4908700000000  0.5645620000000 1.0
C      1  0.5448370000000  0.5813100000000  0.4896280000000 1.0
C      1  0.5799820000000  0.4441410000000  0.4200200000000 1.0
C      1  0.3858330000000  0.5667300000000  0.6157560000000 1.0
C      1  0.5031290000000  0.6438680000000  0.4819580000000 1.0
C      1  0.4548970000000  0.4349230000000  0.5835890000000 1.0
C      1  0.5513860000000  0.5982000000000  0.5348910000000 1.0
C      1  0.6074710000000  0.5521600000000  0.4718730000000 1.0
C      1  0.5226530000000  0.5936000000000  0.5368230000000 1.0
C      1  0.6044180000000  0.5794850000000  0.4824580000000 1.0
C      1  0.6056990000000  0.5638120000000  0.5760620000000 1.0
C      1  0.5689150000000  0.4792900000000  0.4636540000000 1.0
C      1  0.4419020000000  0.5809650000000  0.5820380000000 1.0
C      1  0.4518450000000  0.5469540000000  0.4612530000000 1.0
C      1  0.5708150000000  0.3914370000000  0.5040530000000 1.0
C      1  0.4060650000000  0.5214930000000  0.5440510000000 1.0
C      1  0.6486940000000  0.4530490000000  0.4336670000000 1.0
C      1  0.5037250000000  0.4442910000000  0.4271370000000 1.0
C      1  0.6072860000000  0.4207230000000  0.4871380000000 1.0
C      1  0.4946760000000  0.4599510000000  0.4025750000000 1.0
C      1  0.5220570000000  0.6342980000000  0.4633620000000 1.0
C      1  0.4217480000000  0.4887620000000  0.5007160000000 1.0
C      1  0.5689700000000  0.5965240000000  0.5571260000000 1.0
C      1  0.4128880000000  0.5102810000000  0.4816260000000 1.0
C      1  0.4674660000000  0.5384310000000  0.3948210000000 1.0
C      1  0.6244810000000  0.4482300000000  0.4453330000000 1.0
C      1  0.4466580000000  0.4597050000000  0.4042150000000 1.0
C      1  0.4714880000000  0.4999730000000  0.6076540000000 1.0
C      1  0.5682240000000  0.3871080000000  0.4339190000000 1.0
C      1  0.4544020000000  0.5349250000000  0.5365350000000 1.0
C      1  0.4314810000000  0.4758900000000  0.4510680000000 1.0
C      1  0.4921630000000  0.4802620000000  0.4722390000000 1.0
C      1  0.4253710000000  0.5854310000000  0.5594650000000 1.0
C      1  0.5197860000000  0.4731330000000  0.3946450000000 1.0
C      1  0.3897220000000  0.5493740000000  0.5072470000000 1.0
C      1  0.4494200000000  0.5216000000000  0.4472790000000 1.0
C      1  0.4964010000000  0.4514620000000  0.4759240000000 1.0
C      1  0.4623370000000  0.5612590000000  0.5806890000000 1.0
C      1  0.5614080000000  0.4356530000000  0.4884870000000 1.0
C      1  0.5915330000000  0.4926630000000  0.5280920000000 1.0
C      1  0.4898560000000  0.3839820000000  0.5453730000000 1.0
C      1  0.4848750000000  0.5639370000000  0.5972060000000 1.0
C      1  0.5217010000000  0.4290780000000  0.5443310000000 1.0
C      1  0.4391540000000  0.5704880000000  0.4755170000000 1.0
C      1  0.4107650000000  0.4611220000000  0.4366550000000 1.0
C      1  0.4684270000000  0.4853130000000  0.5164230000000 1.0
C      1  0.3697090000000  0.4871850000000  0.5406230000000 1.0
C      1  0.4810020000000  0.3866110000000  0.4690340000000 1.0
C      1  0.6146530000000  0.5384040000000  0.5749750000000 1.0
C      1  0.5630320000000  0.5922780000000  0.5086540000000 1.0
C      1  0.5564830000000  0.4356140000000  0.4389540000000 1.0
C      1  0.5777840000000  0.5002660000000  0.4204680000000 1.0
C      1  0.5545090000000  0.5204370000000  0.5800640000000 1.0
C      1  0.6020890000000  0.5349680000000  0.4964370000000 1.0
C      1  0.5622310000000  0.5262710000000  0.3676260000000 1.0
C      1  0.5251610000000  0.4949140000000  0.3779010000000 1.0
C      1  0.4513690000000  0.6084610000000  0.5181940000000 1.0
C      1  0.5499650000000  0.4060110000000  0.4438940000000 1.0
C      1  0.4980280000000  0.4979790000000  0.5545930000000 1.0
C      1  0.5110740000000  0.4119340000000  0.5853650000000 1.0
C      1  0.4538610000000  0.4260880000000  0.5190730000000 1.0
C      1  0.5001360000000  0.4374880000000  0.5273940000000 1.0
C      1  0.5356630000000  0.4352690000000  0.4982630000000 1.0
C      1  0.4550420000000  0.3982530000000  0.5121380000000 1.0
C      1  0.5221720000000  0.5360230000000  0.4875490000000 1.0
C      1  0.4957620000000  0.4339010000000  0.4529420000000 1.0
C      1  0.4281270000000  0.5286490000000  0.5262370000000 1.0
C      1  0.4385230000000  0.3983100000000  0.4433270000000 1.0
C      1  0.5180080000000  0.4902850000000  0.5733090000000 1.0
C      1  0.4725460000000  0.4878230000000  0.5452210000000 1.0
C      1  0.5596300000000  0.4315220000000  0.5755860000000 1.0
C      1  0.3810770000000  0.5108860000000  0.5337880000000 1.0
C      1  0.6037260000000  0.5085390000000  0.5072080000000 1.0
C      1  0.5514940000000  0.5383070000000  0.4486060000000 1.0
C      1  0.4069770000000  0.4983220000000  0.5902000000000 1.0
END
