TITL C-612604-1799-1029 178.832892054958 125000 -1079.42553926297 0 0 176 (C1) n - 1
REM
REM in /home/nfs/bkarasulu/CARBON/AIRSS/Generating-Clusters/TERSOFF/Only-C1/FIRE-HFTN
REM
REM
REM
REM
REM
REM ./C.cell (11c1c37f851c82e70ff6c80c92926a4b)
REM AIRSS Version 0.9.1 bugfix July 2018 build 013d7b7c2542+ Fri, 06 Jul 2018 19:26:36 +0100
REM compiler GCC version 9.2.1 20190827 (Red Hat 9.2.1-1)
REM options -cpp -mtune=generic -march=x86-64 -g -O0 -fpre-include=/usr/include/finclude/math-vector-fortran.h
REM seed -2018285037 -2056136934 667381116 -980014346 -1224413650 -1709453748 -2092130226 -1932451634 -949764298 -1246367450 -499075166 90738313 2009679145 -663829341 224944449 308105720 183312436 -650915150 -995561698 2099051330 1201781378 -1024039788 -1634308502 -563104048 -805350673 -309636150 1293080455 -469945218 68954196 -56799557 -1088818021 1117185275 770865972
REM
CELL 1.54180   50.00000   50.00000   50.00000   90.00000   90.00000   90.00000
LATT -1
SFAC C  
C      1  0.4846250000000  0.5111240000000  0.3953610000000 1.0
C      1  0.4624270000000  0.4736510000000  0.5834770000000 1.0
C      1  0.4562450000000  0.5079020000000  0.4952150000000 1.0
C      1  0.5857980000000  0.4466750000000  0.4268970000000 1.0
C      1  0.4210640000000  0.4535940000000  0.5677520000000 1.0
C      1  0.5768000000000  0.5465110000000  0.5341230000000 1.0
C      1  0.5622930000000  0.5307110000000  0.5792160000000 1.0
C      1  0.6168970000000  0.4656840000000  0.5379600000000 1.0
C      1  0.5099790000000  0.5053260000000  0.5109200000000 1.0
C      1  0.5660100000000  0.4862520000000  0.5063490000000 1.0
C      1  0.4613080000000  0.4728290000000  0.4617060000000 1.0
C      1  0.4677030000000  0.5503150000000  0.4649650000000 1.0
C      1  0.4795480000000  0.4366260000000  0.5037010000000 1.0
C      1  0.4646640000000  0.5591250000000  0.5209450000000 1.0
C      1  0.6240900000000  0.4883530000000  0.5213650000000 1.0
C      1  0.3789350000000  0.4461440000000  0.3844920000000 1.0
C      1  0.5414270000000  0.3978140000000  0.5708530000000 1.0
C      1  0.5652650000000  0.5225440000000  0.3906520000000 1.0
C      1  0.4980410000000  0.5494020000000  0.6103540000000 1.0
C      1  0.4364750000000  0.5236570000000  0.5072770000000 1.0
C      1  0.4190500000000  0.4803890000000  0.5552280000000 1.0
C      1  0.5012560000000  0.4899870000000  0.3881590000000 1.0
C      1  0.4011010000000  0.5886460000000  0.4670570000000 1.0
C      1  0.4852660000000  0.5715050000000  0.5042760000000 1.0
C      1  0.4523560000000  0.6312800000000  0.5387240000000 1.0
C      1  0.5957140000000  0.4448010000000  0.5352420000000 1.0
C      1  0.5281420000000  0.4379550000000  0.5251460000000 1.0
C      1  0.5713760000000  0.5315280000000  0.4858810000000 1.0
C      1  0.3874100000000  0.4600350000000  0.4048480000000 1.0
C      1  0.5309500000000  0.5533280000000  0.5423240000000 1.0
C      1  0.5265050000000  0.3954140000000  0.5469470000000 1.0
C      1  0.3727800000000  0.5666520000000  0.4347910000000 1.0
C      1  0.6003160000000  0.4692350000000  0.4280840000000 1.0
C      1  0.3976530000000  0.4620420000000  0.4525620000000 1.0
C      1  0.5036160000000  0.5509750000000  0.5492150000000 1.0
C      1  0.4471900000000  0.6610340000000  0.5005920000000 1.0
C      1  0.3783280000000  0.5852290000000  0.4533580000000 1.0
C      1  0.4277750000000  0.5805130000000  0.4646250000000 1.0
C      1  0.5155560000000  0.4908530000000  0.4540400000000 1.0
C      1  0.4553690000000  0.6036120000000  0.5800920000000 1.0
C      1  0.4159910000000  0.4044750000000  0.4971210000000 1.0
C      1  0.5105940000000  0.4709630000000  0.4071750000000 1.0
C      1  0.5014290000000  0.4968120000000  0.5726300000000 1.0
C      1  0.5140540000000  0.6090910000000  0.5741910000000 1.0
C      1  0.5659340000000  0.4299050000000  0.4337590000000 1.0
C      1  0.4584830000000  0.4287040000000  0.4833950000000 1.0
C      1  0.4734910000000  0.4968480000000  0.5698990000000 1.0
C      1  0.4053890000000  0.5005470000000  0.4245560000000 1.0
C      1  0.4823790000000  0.5371740000000  0.3995490000000 1.0
C      1  0.5057390000000  0.5941600000000  0.5961750000000 1.0
C      1  0.5439540000000  0.4554260000000  0.5411160000000 1.0
C      1  0.5605700000000  0.5267010000000  0.4178830000000 1.0
C      1  0.5838510000000  0.4448230000000  0.5627800000000 1.0
C      1  0.5418570000000  0.4247260000000  0.4482570000000 1.0
C      1  0.4962200000000  0.5074290000000  0.4668490000000 1.0
C      1  0.4386720000000  0.6832060000000  0.4898680000000 1.0
C      1  0.3951390000000  0.4759390000000  0.4787820000000 1.0
C      1  0.5803660000000  0.4859730000000  0.5926830000000 1.0
C      1  0.5529890000000  0.4209120000000  0.3625530000000 1.0
C      1  0.5900060000000  0.3970310000000  0.4848660000000 1.0
C      1  0.4805420000000  0.4588240000000  0.4437400000000 1.0
C      1  0.3862590000000  0.5445890000000  0.4279650000000 1.0
C      1  0.6242120000000  0.4832730000000  0.4939860000000 1.0
C      1  0.5419180000000  0.5728030000000  0.4247410000000 1.0
C      1  0.5239680000000  0.4441440000000  0.4966750000000 1.0
C      1  0.4664050000000  0.6178370000000  0.5587430000000 1.0
C      1  0.5173850000000  0.5288860000000  0.6129050000000 1.0
C      1  0.5038390000000  0.5251740000000  0.4887960000000 1.0
C      1  0.5328290000000  0.4249890000000  0.6083930000000 1.0
C      1  0.5775840000000  0.4626080000000  0.4909300000000 1.0
C      1  0.5582760000000  0.5062290000000  0.4858640000000 1.0
C      1  0.5567800000000  0.5454330000000  0.5553870000000 1.0
C      1  0.4711110000000  0.4723600000000  0.6105170000000 1.0
C      1  0.4616440000000  0.6143100000000  0.4691800000000 1.0
C      1  0.4900630000000  0.4851190000000  0.6248390000000 1.0
C      1  0.4463360000000  0.3838320000000  0.5329590000000 1.0
C      1  0.5082600000000  0.4206130000000  0.5412360000000 1.0
C      1  0.5189530000000  0.3921910000000  0.4869920000000 1.0
C      1  0.5565390000000  0.5049840000000  0.4355140000000 1.0
C      1  0.5493300000000  0.4813240000000  0.5285770000000 1.0
C      1  0.4925290000000  0.4819890000000  0.5093360000000 1.0
C      1  0.4378190000000  0.5538110000000  0.4733590000000 1.0
C      1  0.5076220000000  0.4145270000000  0.6126250000000 1.0
C      1  0.5802960000000  0.4374610000000  0.5099400000000 1.0
C      1  0.4262160000000  0.4225550000000  0.4432270000000 1.0
C      1  0.5999180000000  0.5798740000000  0.4454630000000 1.0
C      1  0.4903210000000  0.4113200000000  0.5900320000000 1.0
C      1  0.4961940000000  0.4099520000000  0.4492540000000 1.0
C      1  0.6306140000000  0.5372180000000  0.5287300000000 1.0
C      1  0.4462570000000  0.4572050000000  0.4830250000000 1.0
C      1  0.4891930000000  0.5996900000000  0.5069430000000 1.0
C      1  0.4003920000000  0.4525780000000  0.5245360000000 1.0
C      1  0.4562470000000  0.6370270000000  0.5115150000000 1.0
C      1  0.6151680000000  0.4777850000000  0.5647930000000 1.0
C      1  0.4937470000000  0.6136530000000  0.5538370000000 1.0
C      1  0.5428420000000  0.5310290000000  0.6002170000000 1.0
C      1  0.4912400000000  0.5629620000000  0.4054450000000 1.0
C      1  0.6052170000000  0.5152190000000  0.4529410000000 1.0
C      1  0.4043460000000  0.5253900000000  0.4373790000000 1.0
C      1  0.4867850000000  0.5734560000000  0.6013000000000 1.0
C      1  0.4565550000000  0.3847270000000  0.5581490000000 1.0
C      1  0.3929480000000  0.4511460000000  0.4977520000000 1.0
C      1  0.6050410000000  0.4690200000000  0.4814930000000 1.0
C      1  0.4701630000000  0.6178860000000  0.4954310000000 1.0
C      1  0.4410880000000  0.3913700000000  0.5057460000000 1.0
C      1  0.4102680000000  0.5031000000000  0.5680880000000 1.0
C      1  0.5448250000000  0.5975650000000  0.4375500000000 1.0
C      1  0.4087640000000  0.5169820000000  0.5090650000000 1.0
C      1  0.4055920000000  0.5290780000000  0.5585720000000 1.0
C      1  0.5704180000000  0.4109240000000  0.4991820000000 1.0
C      1  0.4706150000000  0.3933920000000  0.5798480000000 1.0
C      1  0.5219270000000  0.4076720000000  0.4377150000000 1.0
C      1  0.4775060000000  0.4301930000000  0.4416530000000 1.0
C      1  0.4386070000000  0.5598890000000  0.5875050000000 1.0
C      1  0.5387450000000  0.6118520000000  0.5593240000000 1.0
C      1  0.3962580000000  0.5285950000000  0.5316090000000 1.0
C      1  0.5444490000000  0.3960210000000  0.5011210000000 1.0
C      1  0.4495760000000  0.4512300000000  0.5702710000000 1.0
C      1  0.4807080000000  0.4267100000000  0.5300270000000 1.0
C      1  0.4596950000000  0.5781540000000  0.5919290000000 1.0
C      1  0.5183590000000  0.5675280000000  0.4106290000000 1.0
C      1  0.4722400000000  0.5830270000000  0.4095060000000 1.0
C      1  0.4027390000000  0.4388030000000  0.5502390000000 1.0
C      1  0.5579910000000  0.5138930000000  0.3665480000000 1.0
C      1  0.4183920000000  0.5496510000000  0.5729960000000 1.0
C      1  0.5219610000000  0.5045360000000  0.5581590000000 1.0
C      1  0.5260600000000  0.4499410000000  0.3971110000000 1.0
C      1  0.5083100000000  0.5048350000000  0.6247930000000 1.0
C      1  0.5462070000000  0.4230680000000  0.5831600000000 1.0
C      1  0.5037870000000  0.4727490000000  0.4346680000000 1.0
C      1  0.5292780000000  0.5011460000000  0.5317430000000 1.0
C      1  0.4681060000000  0.4998820000000  0.4693460000000 1.0
C      1  0.5385420000000  0.5576570000000  0.5141850000000 1.0
C      1  0.5393020000000  0.4344580000000  0.3801240000000 1.0
C      1  0.5142730000000  0.4914850000000  0.3632090000000 1.0
C      1  0.6205700000000  0.5131010000000  0.5363550000000 1.0
C      1  0.5463770000000  0.4916290000000  0.4607150000000 1.0
C      1  0.5653450000000  0.5485700000000  0.5075960000000 1.0
C      1  0.4641890000000  0.3977940000000  0.4882080000000 1.0
C      1  0.6085070000000  0.5070960000000  0.5622240000000 1.0
C      1  0.4433130000000  0.4689770000000  0.5098860000000 1.0
C      1  0.5620630000000  0.5531370000000  0.4286570000000 1.0
C      1  0.5054280000000  0.6101030000000  0.5275840000000 1.0
C      1  0.5508310000000  0.6188060000000  0.5093680000000 1.0
C      1  0.5567550000000  0.4630440000000  0.4684640000000 1.0
C      1  0.4650980000000  0.4871290000000  0.5127560000000 1.0
C      1  0.6078010000000  0.4932340000000  0.4376150000000 1.0
C      1  0.4419630000000  0.5509930000000  0.5049370000000 1.0
C      1  0.5380280000000  0.4418030000000  0.4713740000000 1.0
C      1  0.4925030000000  0.3957890000000  0.4752950000000 1.0
C      1  0.5551100000000  0.6200840000000  0.4831970000000 1.0
C      1  0.4759900000000  0.5444350000000  0.5436490000000 1.0
C      1  0.5838670000000  0.5578490000000  0.4465530000000 1.0
C      1  0.4547190000000  0.5945350000000  0.4258200000000 1.0
C      1  0.4985390000000  0.4566450000000  0.4979670000000 1.0
C      1  0.4026530000000  0.5055930000000  0.4827880000000 1.0
C      1  0.4905170000000  0.5513370000000  0.4839990000000 1.0
C      1  0.4214010000000  0.4727930000000  0.5272770000000 1.0
C      1  0.5951810000000  0.4643590000000  0.5806500000000 1.0
C      1  0.5559430000000  0.4427550000000  0.5642990000000 1.0
C      1  0.5894400000000  0.5361020000000  0.4640940000000 1.0
C      1  0.4145560000000  0.5267150000000  0.4638310000000 1.0
C      1  0.5018570000000  0.4281680000000  0.5697890000000 1.0
C      1  0.5507290000000  0.6136310000000  0.4578290000000 1.0
C      1  0.4010450000000  0.4260520000000  0.4844040000000 1.0
C      1  0.5272460000000  0.3887100000000  0.4188000000000 1.0
C      1  0.5400580000000  0.3831790000000  0.5260490000000 1.0
C      1  0.3968840000000  0.4740290000000  0.4270390000000 1.0
C      1  0.4467480000000  0.5978930000000  0.4523230000000 1.0
C      1  0.4621240000000  0.4362240000000  0.5496440000000 1.0
C      1  0.5341670000000  0.6133650000000  0.5307100000000 1.0
C      1  0.4650810000000  0.5208460000000  0.5564460000000 1.0
C      1  0.4522880000000  0.4237590000000  0.4523750000000 1.0
C      1  0.4043500000000  0.4339550000000  0.4565190000000 1.0
C      1  0.5842400000000  0.5118840000000  0.5791910000000 1.0
C      1  0.5375980000000  0.5014160000000  0.3545860000000 1.0
END
