TITL C-612607-4507-451 -1088.64584299705 125000 -1152.80892301144 0 0 190 (C1) n - 1
REM
REM in /home/nfs/bkarasulu/CARBON/AIRSS/Generating-Clusters/TERSOFF/Only-C1/FIRE-HFTN
REM
REM
REM
REM
REM
REM ./C.cell (11c1c37f851c82e70ff6c80c92926a4b)
REM AIRSS Version 0.9.1 bugfix July 2018 build 013d7b7c2542+ Fri, 06 Jul 2018 19:26:36 +0100
REM compiler GCC version 9.2.1 20190827 (Red Hat 9.2.1-1)
REM options -cpp -mtune=generic -march=x86-64 -g -O0 -fpre-include=/usr/include/finclude/math-vector-fortran.h
REM seed -1017528369 643867552 490886148 -1716878375 1576245580 844024624 112942769 2033029363 -1076851578 -2000557453 -1125956840 -48692132 1532553555 2101493410 -209206822 -1387748298 2079586276 -725267740 -1436284595 -666919127 1842412848 1152862884 -640539863 1649651986 946388495 -1716789061 1688743958 954686894 712918360 1562920782 1339788152 -1983708564 -135384176
REM
CELL 1.54180   50.00000   50.00000   50.00000   90.00000   90.00000   90.00000
LATT -1
SFAC C  
C      1  0.5465510000000  0.5155230000000  0.5030230000000 1.0
C      1  0.4461240000000  0.4477920000000  0.3936060000000 1.0
C      1  0.5079910000000  0.4168020000000  0.4343320000000 1.0
C      1  0.5692290000000  0.5099060000000  0.6087580000000 1.0
C      1  0.4490280000000  0.5072600000000  0.3759990000000 1.0
C      1  0.5634210000000  0.4234270000000  0.4553390000000 1.0
C      1  0.5034020000000  0.5161560000000  0.6099900000000 1.0
C      1  0.3927990000000  0.4600560000000  0.4498230000000 1.0
C      1  0.5993520000000  0.4885220000000  0.5782000000000 1.0
C      1  0.4056710000000  0.5638810000000  0.4334590000000 1.0
C      1  0.5532630000000  0.5407400000000  0.4887390000000 1.0
C      1  0.5388040000000  0.5358600000000  0.5702560000000 1.0
C      1  0.4502920000000  0.5506450000000  0.5211560000000 1.0
C      1  0.4735000000000  0.4793320000000  0.4201170000000 1.0
C      1  0.4848670000000  0.5715280000000  0.4524740000000 1.0
C      1  0.4959420000000  0.4894100000000  0.6120870000000 1.0
C      1  0.5114060000000  0.5307730000000  0.4402370000000 1.0
C      1  0.5588230000000  0.5488840000000  0.5559090000000 1.0
C      1  0.4369050000000  0.4908420000000  0.5752010000000 1.0
C      1  0.5120100000000  0.4397840000000  0.4147570000000 1.0
C      1  0.5689990000000  0.4307520000000  0.4845770000000 1.0
C      1  0.5799930000000  0.5869130000000  0.5707170000000 1.0
C      1  0.5466080000000  0.4442110000000  0.5340980000000 1.0
C      1  0.4298730000000  0.4850740000000  0.4258220000000 1.0
C      1  0.5424150000000  0.5886470000000  0.6138470000000 1.0
C      1  0.5140790000000  0.4659570000000  0.6081230000000 1.0
C      1  0.4505310000000  0.5583120000000  0.4212240000000 1.0
C      1  0.4656750000000  0.4491450000000  0.5668850000000 1.0
C      1  0.3995340000000  0.4222550000000  0.4843320000000 1.0
C      1  0.5611130000000  0.5734600000000  0.6255320000000 1.0
C      1  0.4519030000000  0.4228560000000  0.4020990000000 1.0
C      1  0.4137330000000  0.5078230000000  0.5817430000000 1.0
C      1  0.4730870000000  0.4941690000000  0.3725810000000 1.0
C      1  0.4496390000000  0.5374040000000  0.5652650000000 1.0
C      1  0.6076020000000  0.5134190000000  0.5644590000000 1.0
C      1  0.5348330000000  0.5995330000000  0.5888590000000 1.0
C      1  0.4448680000000  0.5832720000000  0.4803410000000 1.0
C      1  0.5461910000000  0.3949970000000  0.5925920000000 1.0
C      1  0.4261920000000  0.5140420000000  0.3901210000000 1.0
C      1  0.5404870000000  0.4987390000000  0.4420420000000 1.0
C      1  0.4801610000000  0.5734990000000  0.5521400000000 1.0
C      1  0.4284290000000  0.5393230000000  0.5060130000000 1.0
C      1  0.5411440000000  0.4689560000000  0.5981240000000 1.0
C      1  0.4681620000000  0.4544400000000  0.5958350000000 1.0
C      1  0.5290020000000  0.5203000000000  0.5260640000000 1.0
C      1  0.4232890000000  0.4107600000000  0.4710200000000 1.0
C      1  0.5860210000000  0.5326750000000  0.6055380000000 1.0
C      1  0.5884450000000  0.5773190000000  0.4513110000000 1.0
C      1  0.5093330000000  0.4051440000000  0.5617690000000 1.0
C      1  0.5980460000000  0.4509950000000  0.5532350000000 1.0
C      1  0.6235910000000  0.5320250000000  0.5170870000000 1.0
C      1  0.6027370000000  0.4602660000000  0.4315090000000 1.0
C      1  0.4508080000000  0.5078770000000  0.5553310000000 1.0
C      1  0.4724130000000  0.5309200000000  0.5176130000000 1.0
C      1  0.4481010000000  0.4713980000000  0.4083380000000 1.0
C      1  0.4343680000000  0.6043540000000  0.5753520000000 1.0
C      1  0.6227710000000  0.5091130000000  0.4497250000000 1.0
C      1  0.6050620000000  0.4897200000000  0.4355180000000 1.0
C      1  0.4537610000000  0.5678360000000  0.6052040000000 1.0
C      1  0.5096320000000  0.3938960000000  0.5172680000000 1.0
C      1  0.5531230000000  0.5405970000000  0.4604940000000 1.0
C      1  0.5573090000000  0.6271320000000  0.5553610000000 1.0
C      1  0.6201210000000  0.5111700000000  0.5365610000000 1.0
C      1  0.4530980000000  0.3763870000000  0.5320870000000 1.0
C      1  0.4670640000000  0.4820840000000  0.6094630000000 1.0
C      1  0.4420790000000  0.6016750000000  0.4145150000000 1.0
C      1  0.5241450000000  0.4194140000000  0.4829980000000 1.0
C      1  0.6028310000000  0.5425830000000  0.3992390000000 1.0
C      1  0.5034790000000  0.5573710000000  0.3562670000000 1.0
C      1  0.4946110000000  0.4445040000000  0.6057730000000 1.0
C      1  0.5339240000000  0.4973350000000  0.5448650000000 1.0
C      1  0.4848120000000  0.4849720000000  0.4970090000000 1.0
C      1  0.4766500000000  0.4051830000000  0.4424460000000 1.0
C      1  0.4288250000000  0.4216240000000  0.4442640000000 1.0
C      1  0.4832910000000  0.5342210000000  0.4922240000000 1.0
C      1  0.4645410000000  0.5351420000000  0.4700550000000 1.0
C      1  0.4918470000000  0.4563210000000  0.5570270000000 1.0
C      1  0.5070240000000  0.6019570000000  0.5819420000000 1.0
C      1  0.5812140000000  0.4405480000000  0.4379700000000 1.0
C      1  0.4564720000000  0.4651920000000  0.4607350000000 1.0
C      1  0.4352710000000  0.5107970000000  0.5083660000000 1.0
C      1  0.4748300000000  0.5106000000000  0.5378800000000 1.0
C      1  0.4327520000000  0.4575010000000  0.5298010000000 1.0
C      1  0.4395600000000  0.4663820000000  0.5038840000000 1.0
C      1  0.4545910000000  0.4915200000000  0.5004240000000 1.0
C      1  0.5653580000000  0.5137670000000  0.4502000000000 1.0
C      1  0.6197000000000  0.5359010000000  0.4623590000000 1.0
C      1  0.5751630000000  0.4587240000000  0.4826110000000 1.0
C      1  0.4682080000000  0.3750980000000  0.5545700000000 1.0
C      1  0.4607660000000  0.5643900000000  0.4672840000000 1.0
C      1  0.4881610000000  0.3716160000000  0.4779940000000 1.0
C      1  0.4557880000000  0.5915990000000  0.5885510000000 1.0
C      1  0.5488240000000  0.4739150000000  0.5343950000000 1.0
C      1  0.4553650000000  0.5594590000000  0.5476290000000 1.0
C      1  0.4593480000000  0.5141430000000  0.4508950000000 1.0
C      1  0.6205050000000  0.4845070000000  0.5237450000000 1.0
C      1  0.4990850000000  0.5231060000000  0.4140450000000 1.0
C      1  0.3907730000000  0.5440440000000  0.4763910000000 1.0
C      1  0.4692000000000  0.3889500000000  0.4660830000000 1.0
C      1  0.5097070000000  0.5658990000000  0.4678870000000 1.0
C      1  0.5742320000000  0.4825650000000  0.5246040000000 1.0
C      1  0.4527350000000  0.4146650000000  0.4290350000000 1.0
C      1  0.4888860000000  0.3865170000000  0.5678200000000 1.0
C      1  0.4971540000000  0.4815020000000  0.3834870000000 1.0
C      1  0.4782270000000  0.5625680000000  0.4252290000000 1.0
C      1  0.5333620000000  0.4904930000000  0.4908830000000 1.0
C      1  0.3835210000000  0.4409280000000  0.4691650000000 1.0
C      1  0.5184270000000  0.6115390000000  0.4286550000000 1.0
C      1  0.5016420000000  0.4452710000000  0.5332880000000 1.0
C      1  0.5736460000000  0.5044140000000  0.5060670000000 1.0
C      1  0.4777190000000  0.5900840000000  0.3821760000000 1.0
C      1  0.4122200000000  0.4438190000000  0.4356490000000 1.0
C      1  0.4269570000000  0.6072980000000  0.5237720000000 1.0
C      1  0.5491950000000  0.4960860000000  0.5945860000000 1.0
C      1  0.5150090000000  0.5468270000000  0.5234440000000 1.0
C      1  0.5298040000000  0.4587990000000  0.4270310000000 1.0
C      1  0.5975010000000  0.5375660000000  0.5787750000000 1.0
C      1  0.5865640000000  0.4620240000000  0.5770320000000 1.0
C      1  0.6218740000000  0.4782110000000  0.4953740000000 1.0
C      1  0.4254980000000  0.5209510000000  0.6060480000000 1.0
C      1  0.5459640000000  0.4272790000000  0.5029230000000 1.0
C      1  0.5973120000000  0.4767820000000  0.4803870000000 1.0
C      1  0.4919530000000  0.5654140000000  0.3795780000000 1.0
C      1  0.5036070000000  0.5578900000000  0.5483530000000 1.0
C      1  0.3765110000000  0.4949860000000  0.4803150000000 1.0
C      1  0.4030190000000  0.5136500000000  0.5475800000000 1.0
C      1  0.3741020000000  0.4709760000000  0.5224450000000 1.0
C      1  0.4281450000000  0.5069950000000  0.5353940000000 1.0
C      1  0.6250190000000  0.4488260000000  0.4193080000000 1.0
C      1  0.4453010000000  0.3954920000000  0.4830560000000 1.0
C      1  0.4498930000000  0.4391860000000  0.5438370000000 1.0
C      1  0.4743260000000  0.4365360000000  0.4980920000000 1.0
C      1  0.5980450000000  0.4691680000000  0.5320670000000 1.0
C      1  0.5334730000000  0.4855010000000  0.4173720000000 1.0
C      1  0.4497450000000  0.3962780000000  0.5122380000000 1.0
C      1  0.4961700000000  0.4223240000000  0.4849510000000 1.0
C      1  0.5134390000000  0.5471000000000  0.5733640000000 1.0
C      1  0.3931930000000  0.4243940000000  0.5118390000000 1.0
C      1  0.5573850000000  0.6048620000000  0.5713580000000 1.0
C      1  0.5569720000000  0.3807740000000  0.6115810000000 1.0
C      1  0.5666770000000  0.5922940000000  0.4445860000000 1.0
C      1  0.4811470000000  0.5926490000000  0.5737360000000 1.0
C      1  0.6094060000000  0.5582580000000  0.4459640000000 1.0
C      1  0.4782410000000  0.4629550000000  0.4428770000000 1.0
C      1  0.4420830000000  0.4895220000000  0.4522070000000 1.0
C      1  0.4926370000000  0.6146760000000  0.4203410000000 1.0
C      1  0.3762340000000  0.4957990000000  0.5089060000000 1.0
C      1  0.5592720000000  0.4523980000000  0.5823310000000 1.0
C      1  0.4289380000000  0.5765230000000  0.4224770000000 1.0
C      1  0.4749090000000  0.5080050000000  0.4259210000000 1.0
C      1  0.4139420000000  0.5061350000000  0.4151910000000 1.0
C      1  0.5834250000000  0.5069430000000  0.4273300000000 1.0
C      1  0.5480980000000  0.4699090000000  0.4773860000000 1.0
C      1  0.5139950000000  0.4992090000000  0.4003080000000 1.0
C      1  0.5860940000000  0.5219180000000  0.4037220000000 1.0
C      1  0.5071640000000  0.4952200000000  0.4800990000000 1.0
C      1  0.3957200000000  0.5407570000000  0.4481710000000 1.0
C      1  0.6157820000000  0.5567860000000  0.4181960000000 1.0
C      1  0.5835800000000  0.5021990000000  0.4790300000000 1.0
C      1  0.5830870000000  0.5590760000000  0.5655740000000 1.0
C      1  0.5056540000000  0.5529240000000  0.4945920000000 1.0
C      1  0.5397740000000  0.5077550000000  0.5707650000000 1.0
C      1  0.5350320000000  0.4580770000000  0.4549240000000 1.0
C      1  0.4257280000000  0.6094380000000  0.5504280000000 1.0
C      1  0.3868040000000  0.5195150000000  0.5225830000000 1.0
C      1  0.4928760000000  0.5503650000000  0.4035220000000 1.0
C      1  0.5151960000000  0.5068760000000  0.4548700000000 1.0
C      1  0.5036950000000  0.3745270000000  0.4997350000000 1.0
C      1  0.5346240000000  0.4108870000000  0.5728980000000 1.0
C      1  0.4320720000000  0.5489970000000  0.6085970000000 1.0
C      1  0.3996080000000  0.5391820000000  0.5032160000000 1.0
C      1  0.3811390000000  0.4450950000000  0.5245210000000 1.0
C      1  0.4594770000000  0.4219160000000  0.5211130000000 1.0
C      1  0.4521490000000  0.4504970000000  0.4838190000000 1.0
C      1  0.4995530000000  0.5412350000000  0.5979360000000 1.0
C      1  0.4342420000000  0.5985430000000  0.4995650000000 1.0
C      1  0.5006840000000  0.4526360000000  0.3907210000000 1.0
C      1  0.4795380000000  0.5568600000000  0.6098730000000 1.0
C      1  0.5280920000000  0.5511110000000  0.4508130000000 1.0
C      1  0.5069380000000  0.4159730000000  0.5350880000000 1.0
C      1  0.4908250000000  0.4591290000000  0.5102890000000 1.0
C      1  0.5432680000000  0.6033660000000  0.4361940000000 1.0
C      1  0.4697930000000  0.6057840000000  0.4050020000000 1.0
C      1  0.6236520000000  0.5384230000000  0.4906810000000 1.0
C      1  0.5480650000000  0.4339630000000  0.5622960000000 1.0
C      1  0.4461130000000  0.5011980000000  0.6164730000000 1.0
C      1  0.3872550000000  0.4891490000000  0.4541690000000 1.0
C      1  0.5798860000000  0.5546490000000  0.6221650000000 1.0
C      1  0.3956780000000  0.5131470000000  0.4371370000000 1.0
C      1  0.5329840000000  0.4147580000000  0.4545010000000 1.0
END
