TITL C-612603-7354-429 0.0631342479367215 125000 -1011.66616839644 0 0 164 (C1) n - 1
REM
REM in /home/nfs/bkarasulu/CARBON/AIRSS/Generating-Clusters/TERSOFF/Only-C1/FIRE-HFTN
REM
REM
REM
REM
REM
REM ./C.cell (11c1c37f851c82e70ff6c80c92926a4b)
REM AIRSS Version 0.9.1 bugfix July 2018 build 013d7b7c2542+ Fri, 06 Jul 2018 19:26:36 +0100
REM compiler GCC version 9.2.1 20190827 (Red Hat 9.2.1-1)
REM options -cpp -mtune=generic -march=x86-64 -g -O0 -fpre-include=/usr/include/finclude/math-vector-fortran.h
REM seed 1366255770 -977772081 1956143860 -225469265 -1802888847 -361814686 946144528 844106659 356903372 -1545995699 673269908 854785476 -1744538079 -2050109833 1580793395 -2068918976 -488140610 -937069052 -185607268 699958341 -895924894 2096833118 -1989599115 -1083762860 -1074811698 132331130 -659412487 702819644 -698885914 -247209012 249373431 -1772954546 1498779079
REM
CELL 1.54180   50.00000   50.00000   50.00000   90.00000   90.00000   90.00000
LATT -1
SFAC C  
C      1  0.5444030000000  0.4789070000000  0.6161830000000 1.0
C      1  0.4524350000000  0.4204960000000  0.4190480000000 1.0
C      1  0.5468780000000  0.4901670000000  0.5163980000000 1.0
C      1  0.4304670000000  0.4605300000000  0.4832870000000 1.0
C      1  0.6173340000000  0.5326020000000  0.5078530000000 1.0
C      1  0.4485100000000  0.5156150000000  0.4026210000000 1.0
C      1  0.6010260000000  0.4620230000000  0.4561380000000 1.0
C      1  0.4277250000000  0.4746780000000  0.5940920000000 1.0
C      1  0.4315060000000  0.6107470000000  0.5104450000000 1.0
C      1  0.4802970000000  0.5993040000000  0.4795680000000 1.0
C      1  0.4862210000000  0.5437640000000  0.4518230000000 1.0
C      1  0.5996900000000  0.5594270000000  0.4444240000000 1.0
C      1  0.5626550000000  0.5118580000000  0.5863180000000 1.0
C      1  0.5072860000000  0.5246860000000  0.3637850000000 1.0
C      1  0.4765400000000  0.4721390000000  0.4385700000000 1.0
C      1  0.5374710000000  0.4440180000000  0.5700690000000 1.0
C      1  0.5316970000000  0.4534870000000  0.6168210000000 1.0
C      1  0.5763840000000  0.4421320000000  0.5386500000000 1.0
C      1  0.5192860000000  0.5988880000000  0.5159560000000 1.0
C      1  0.4148100000000  0.4881700000000  0.5716800000000 1.0
C      1  0.5614180000000  0.4831710000000  0.5929930000000 1.0
C      1  0.4771300000000  0.4454580000000  0.4470610000000 1.0
C      1  0.4579720000000  0.4540860000000  0.6614420000000 1.0
C      1  0.5735660000000  0.5404540000000  0.3739610000000 1.0
C      1  0.5183150000000  0.4701060000000  0.3765770000000 1.0
C      1  0.5302940000000  0.5035010000000  0.6210490000000 1.0
C      1  0.5390730000000  0.5330020000000  0.4892710000000 1.0
C      1  0.5888980000000  0.5022380000000  0.5443200000000 1.0
C      1  0.5000680000000  0.5755110000000  0.5574930000000 1.0
C      1  0.4822350000000  0.4838790000000  0.6229240000000 1.0
C      1  0.4750730000000  0.5060080000000  0.3989730000000 1.0
C      1  0.4763710000000  0.5789450000000  0.4166050000000 1.0
C      1  0.4327820000000  0.4227970000000  0.6960130000000 1.0
C      1  0.5827370000000  0.5708220000000  0.5128700000000 1.0
C      1  0.4476160000000  0.5726690000000  0.5346250000000 1.0
C      1  0.5317500000000  0.5127040000000  0.3562160000000 1.0
C      1  0.4711200000000  0.4302110000000  0.4742590000000 1.0
C      1  0.4703520000000  0.5583030000000  0.5855490000000 1.0
C      1  0.5035800000000  0.5121650000000  0.5697450000000 1.0
C      1  0.4264900000000  0.4141040000000  0.4946000000000 1.0
C      1  0.4454280000000  0.4384440000000  0.6787650000000 1.0
C      1  0.4323620000000  0.5812490000000  0.4628040000000 1.0
C      1  0.4669300000000  0.4881650000000  0.5487710000000 1.0
C      1  0.5867210000000  0.5519340000000  0.3940960000000 1.0
C      1  0.5987580000000  0.5465220000000  0.4691360000000 1.0
C      1  0.4358110000000  0.5020540000000  0.5109770000000 1.0
C      1  0.5590410000000  0.4622940000000  0.5742980000000 1.0
C      1  0.5707830000000  0.5067840000000  0.4650520000000 1.0
C      1  0.4285790000000  0.4689400000000  0.4113440000000 1.0
C      1  0.5107760000000  0.4729180000000  0.4036720000000 1.0
C      1  0.4187480000000  0.5644620000000  0.4463380000000 1.0
C      1  0.3889730000000  0.5054270000000  0.4453090000000 1.0
C      1  0.6088480000000  0.4849210000000  0.5323120000000 1.0
C      1  0.4775620000000  0.4217200000000  0.5726980000000 1.0
C      1  0.5036900000000  0.5008920000000  0.6294450000000 1.0
C      1  0.5597250000000  0.4722940000000  0.4119260000000 1.0
C      1  0.5449930000000  0.5468810000000  0.4429720000000 1.0
C      1  0.3993940000000  0.4158280000000  0.4929860000000 1.0
C      1  0.5307490000000  0.4845680000000  0.3576080000000 1.0
C      1  0.5140680000000  0.5331450000000  0.5865470000000 1.0
C      1  0.5705570000000  0.5620580000000  0.5378150000000 1.0
C      1  0.4952550000000  0.5421220000000  0.5081030000000 1.0
C      1  0.4866980000000  0.4531620000000  0.5208640000000 1.0
C      1  0.4547000000000  0.5102930000000  0.5334540000000 1.0
C      1  0.5377280000000  0.5232990000000  0.6002650000000 1.0
C      1  0.5095000000000  0.3904480000000  0.4364570000000 1.0
C      1  0.5281570000000  0.3721600000000  0.4287810000000 1.0
C      1  0.5051890000000  0.3968920000000  0.5389820000000 1.0
C      1  0.4609090000000  0.4442390000000  0.5662200000000 1.0
C      1  0.4225430000000  0.5160930000000  0.5715040000000 1.0
C      1  0.6142170000000  0.5079780000000  0.4917880000000 1.0
C      1  0.4197390000000  0.5426320000000  0.4282560000000 1.0
C      1  0.4357830000000  0.4426440000000  0.4114840000000 1.0
C      1  0.5216400000000  0.5914340000000  0.4311750000000 1.0
C      1  0.4591720000000  0.5003390000000  0.4729020000000 1.0
C      1  0.5120670000000  0.4620920000000  0.5326320000000 1.0
C      1  0.4672060000000  0.4009430000000  0.4621120000000 1.0
C      1  0.5673250000000  0.5058910000000  0.5262260000000 1.0
C      1  0.4527130000000  0.4615500000000  0.5887450000000 1.0
C      1  0.6088190000000  0.4587060000000  0.4849430000000 1.0
C      1  0.4769800000000  0.5275890000000  0.5213610000000 1.0
C      1  0.4107680000000  0.5148450000000  0.4300570000000 1.0
C      1  0.4404890000000  0.5440690000000  0.4073400000000 1.0
C      1  0.5175590000000  0.5506250000000  0.4930630000000 1.0
C      1  0.4819110000000  0.4949230000000  0.5729090000000 1.0
C      1  0.4357440000000  0.5276030000000  0.5497040000000 1.0
C      1  0.5204510000000  0.5805750000000  0.5385960000000 1.0
C      1  0.5972870000000  0.5165120000000  0.4698740000000 1.0
C      1  0.5416480000000  0.5606820000000  0.5387760000000 1.0
C      1  0.5836760000000  0.5477650000000  0.5586610000000 1.0
C      1  0.4493300000000  0.5277170000000  0.4765280000000 1.0
C      1  0.4323530000000  0.5232430000000  0.5983550000000 1.0
C      1  0.5695740000000  0.5937710000000  0.5023340000000 1.0
C      1  0.4281650000000  0.4973720000000  0.4139120000000 1.0
C      1  0.4299750000000  0.4979290000000  0.6129190000000 1.0
C      1  0.4934660000000  0.5987550000000  0.4294260000000 1.0
C      1  0.4920670000000  0.4357350000000  0.4965730000000 1.0
C      1  0.4286980000000  0.5513560000000  0.5358970000000 1.0
C      1  0.5189810000000  0.4224070000000  0.4990410000000 1.0
C      1  0.5450680000000  0.6049300000000  0.5050620000000 1.0
C      1  0.4507710000000  0.5444280000000  0.5993410000000 1.0
C      1  0.5213970000000  0.5726580000000  0.4755220000000 1.0
C      1  0.5231070000000  0.4878360000000  0.5307940000000 1.0
C      1  0.5065060000000  0.5403430000000  0.4089650000000 1.0
C      1  0.4573300000000  0.5785510000000  0.4815840000000 1.0
C      1  0.5323630000000  0.4654900000000  0.4239040000000 1.0
C      1  0.4839010000000  0.6101960000000  0.4534870000000 1.0
C      1  0.5339790000000  0.5732890000000  0.4497370000000 1.0
C      1  0.4809810000000  0.4894950000000  0.4597700000000 1.0
C      1  0.5076740000000  0.5238710000000  0.4507570000000 1.0
C      1  0.5317920000000  0.5343550000000  0.5396510000000 1.0
C      1  0.4805750000000  0.4273980000000  0.4245120000000 1.0
C      1  0.5890030000000  0.4375450000000  0.4940440000000 1.0
C      1  0.3921530000000  0.4826760000000  0.4613730000000 1.0
C      1  0.4664210000000  0.5497100000000  0.4712570000000 1.0
C      1  0.4745460000000  0.4797610000000  0.5958580000000 1.0
C      1  0.4850890000000  0.4821400000000  0.4124790000000 1.0
C      1  0.4858010000000  0.6331590000000  0.5136290000000 1.0
C      1  0.4975440000000  0.4261450000000  0.5924170000000 1.0
C      1  0.5720140000000  0.4501950000000  0.5131440000000 1.0
C      1  0.5257110000000  0.5316850000000  0.4283760000000 1.0
C      1  0.4950330000000  0.5243120000000  0.3889390000000 1.0
C      1  0.4280250000000  0.5267460000000  0.4962580000000 1.0
C      1  0.5556080000000  0.4704120000000  0.4993990000000 1.0
C      1  0.5722780000000  0.4547800000000  0.4572670000000 1.0
C      1  0.4666100000000  0.5760680000000  0.5547660000000 1.0
C      1  0.4951450000000  0.6092660000000  0.5030510000000 1.0
C      1  0.5080250000000  0.4974370000000  0.4595810000000 1.0
C      1  0.6139300000000  0.4818140000000  0.5033650000000 1.0
C      1  0.4835090000000  0.4007650000000  0.5547020000000 1.0
C      1  0.4876000000000  0.5545340000000  0.4253910000000 1.0
C      1  0.5822670000000  0.5203080000000  0.5666310000000 1.0
C      1  0.4438570000000  0.4835750000000  0.4907440000000 1.0
C      1  0.4998220000000  0.5576540000000  0.5829750000000 1.0
C      1  0.4698960000000  0.4694530000000  0.6434660000000 1.0
C      1  0.6012590000000  0.5548640000000  0.4975410000000 1.0
C      1  0.5865030000000  0.4755470000000  0.4123540000000 1.0
C      1  0.5298860000000  0.4796240000000  0.4522190000000 1.0
C      1  0.4527120000000  0.5698590000000  0.4031100000000 1.0
C      1  0.5533290000000  0.5295320000000  0.4651930000000 1.0
C      1  0.5226410000000  0.4162340000000  0.5277670000000 1.0
C      1  0.3648360000000  0.5182750000000  0.4443330000000 1.0
C      1  0.4026190000000  0.4613620000000  0.4759040000000 1.0
C      1  0.4458160000000  0.5872060000000  0.5100860000000 1.0
C      1  0.4668490000000  0.4599210000000  0.5417560000000 1.0
C      1  0.4076890000000  0.3917510000000  0.7302290000000 1.0
C      1  0.3876560000000  0.4384610000000  0.4835480000000 1.0
C      1  0.4142680000000  0.5459420000000  0.5116320000000 1.0
C      1  0.5685940000000  0.4309820000000  0.4732940000000 1.0
C      1  0.5957160000000  0.5594860000000  0.4180300000000 1.0
C      1  0.3899550000000  0.5564440000000  0.5055400000000 1.0
C      1  0.5178270000000  0.5108260000000  0.5457380000000 1.0
C      1  0.5281020000000  0.4352320000000  0.4254580000000 1.0
C      1  0.5069140000000  0.4163070000000  0.4244130000000 1.0
C      1  0.5563010000000  0.4786220000000  0.4681980000000 1.0
C      1  0.6066180000000  0.4719480000000  0.4303860000000 1.0
C      1  0.4472100000000  0.4013550000000  0.4403670000000 1.0
C      1  0.5556040000000  0.5270150000000  0.3595420000000 1.0
C      1  0.4905360000000  0.3856510000000  0.4570880000000 1.0
C      1  0.4432910000000  0.4352190000000  0.4853960000000 1.0
C      1  0.5422050000000  0.4219330000000  0.4817000000000 1.0
C      1  0.5265740000000  0.4400310000000  0.5440770000000 1.0
C      1  0.5225850000000  0.4385850000000  0.5942790000000 1.0
C      1  0.4201320000000  0.4071450000000  0.7132630000000 1.0
END
