TITL C-612607-4507-989 0.998306913804032 125000 -185.299906708947 0 0 34 (C1) n - 1
REM
REM in /home/nfs/bkarasulu/CARBON/AIRSS/Generating-Clusters/TERSOFF/Only-C1/FIRE-HFTN
REM
REM
REM
REM
REM
REM ./C.cell (11c1c37f851c82e70ff6c80c92926a4b)
REM AIRSS Version 0.9.1 bugfix July 2018 build 013d7b7c2542+ Fri, 06 Jul 2018 19:26:36 +0100
REM compiler GCC version 9.2.1 20190827 (Red Hat 9.2.1-1)
REM options -cpp -mtune=generic -march=x86-64 -g -O0 -fpre-include=/usr/include/finclude/math-vector-fortran.h
REM seed 895351796 659699803 -671039535 -1744488732 -1421233431 -27314119 770739500 -1923065827 325027000 -1260728576 -408415264 -74022215 1031626223 754873952 1134398996 -2064286463 1442699437 476548283 494004326 440628582 -984874499 -1174754726 -1568310942 1928503369 -594783514 820601766 -1173835886 -933776794 1001804639 -1900537625 1519387289 -1727530346 -1433877419
REM
CELL 1.54180   50.00000   50.00000   50.00000   90.00000   90.00000   90.00000
LATT -1
SFAC C  
C      1  0.5350450000000  0.4760030000000  0.5493180000000 1.0
C      1  0.4591260000000  0.4719830000000  0.4656500000000 1.0
C      1  0.4265650000000  0.4731230000000  0.5286640000000 1.0
C      1  0.4719180000000  0.5324760000000  0.4773900000000 1.0
C      1  0.4572490000000  0.5086530000000  0.4366840000000 1.0
C      1  0.4595080000000  0.4557450000000  0.4895330000000 1.0
C      1  0.4881560000000  0.4758570000000  0.5599600000000 1.0
C      1  0.5739840000000  0.5276830000000  0.5177740000000 1.0
C      1  0.4670780000000  0.4917490000000  0.5507090000000 1.0
C      1  0.5742500000000  0.5568690000000  0.4447450000000 1.0
C      1  0.4730910000000  0.5171360000000  0.5404950000000 1.0
C      1  0.6243880000000  0.5674680000000  0.4329960000000 1.0
C      1  0.4003090000000  0.4800670000000  0.5250010000000 1.0
C      1  0.5182150000000  0.4466610000000  0.5834850000000 1.0
C      1  0.4809510000000  0.5150880000000  0.4543600000000 1.0
C      1  0.5063790000000  0.5273010000000  0.4448980000000 1.0
C      1  0.4445840000000  0.4852530000000  0.4448600000000 1.0
C      1  0.4855200000000  0.4869280000000  0.4665350000000 1.0
C      1  0.5021250000000  0.4719570000000  0.4842950000000 1.0
C      1  0.4404140000000  0.4818560000000  0.5520420000000 1.0
C      1  0.4397420000000  0.4580160000000  0.5090480000000 1.0
C      1  0.5995090000000  0.5622450000000  0.4387780000000 1.0
C      1  0.5646060000000  0.5025600000000  0.5122380000000 1.0
C      1  0.5138710000000  0.4658920000000  0.5645590000000 1.0
C      1  0.4836980000000  0.5349780000000  0.5238220000000 1.0
C      1  0.5148080000000  0.5492340000000  0.4867420000000 1.0
C      1  0.4969310000000  0.4305480000000  0.5124150000000 1.0
C      1  0.5509820000000  0.4881940000000  0.5320310000000 1.0
C      1  0.4896860000000  0.5418050000000  0.4974860000000 1.0
C      1  0.5683770000000  0.4913600000000  0.4875390000000 1.0
C      1  0.5243670000000  0.5429550000000  0.4606100000000 1.0
C      1  0.4872960000000  0.4509580000000  0.4974440000000 1.0
C      1  0.4279480000000  0.4804550000000  0.5764490000000 1.0
C      1  0.5493200000000  0.5509400000000  0.4514450000000 1.0
END
