TITL C-612603-7354-1166 44.3532719931271 125000 -842.40462440139 0 0 136 (C1) n - 1
REM
REM in /home/nfs/bkarasulu/CARBON/AIRSS/Generating-Clusters/TERSOFF/Only-C1/FIRE-HFTN
REM
REM
REM
REM
REM
REM ./C.cell (11c1c37f851c82e70ff6c80c92926a4b)
REM AIRSS Version 0.9.1 bugfix July 2018 build 013d7b7c2542+ Fri, 06 Jul 2018 19:26:36 +0100
REM compiler GCC version 9.2.1 20190827 (Red Hat 9.2.1-1)
REM options -cpp -mtune=generic -march=x86-64 -g -O0 -fpre-include=/usr/include/finclude/math-vector-fortran.h
REM seed 1014465174 -1514409915 361256260 -791435864 -31144161 -1994946936 -632067878 -979305142 1567467089 1552006717 918795009 1370158961 1760024961 1155537281 -1185240525 -677825127 413457495 2123470331 677812862 -1011542977 -562003351 -678910597 1290260691 -1456655326 1282941104 1935409579 1092337929 262484809 -114960301 -185316343 -1711605273 -452800229 1335699967
REM
CELL 1.54180   50.00000   50.00000   50.00000   90.00000   90.00000   90.00000
LATT -1
SFAC C  
C      1  0.4709220000000  0.4496250000000  0.5187470000000 1.0
C      1  0.4775860000000  0.4687650000000  0.5381080000000 1.0
C      1  0.4865920000000  0.5718900000000  0.4173670000000 1.0
C      1  0.4410630000000  0.4683080000000  0.6217150000000 1.0
C      1  0.5125660000000  0.4912900000000  0.4933010000000 1.0
C      1  0.4772090000000  0.4661740000000  0.6537310000000 1.0
C      1  0.4693520000000  0.5322680000000  0.5645150000000 1.0
C      1  0.5416430000000  0.4884470000000  0.4142670000000 1.0
C      1  0.5122240000000  0.5789540000000  0.4689140000000 1.0
C      1  0.5671550000000  0.4825400000000  0.4972960000000 1.0
C      1  0.4208760000000  0.5405160000000  0.4199400000000 1.0
C      1  0.4951340000000  0.4539150000000  0.6376300000000 1.0
C      1  0.4923920000000  0.5148160000000  0.4475680000000 1.0
C      1  0.4520770000000  0.4723600000000  0.6459210000000 1.0
C      1  0.4480070000000  0.4826970000000  0.4298950000000 1.0
C      1  0.5128550000000  0.4846010000000  0.4147740000000 1.0
C      1  0.5241330000000  0.4750640000000  0.4732010000000 1.0
C      1  0.5708510000000  0.5092860000000  0.5386830000000 1.0
C      1  0.4698630000000  0.4959630000000  0.5357940000000 1.0
C      1  0.4140480000000  0.4503020000000  0.5607080000000 1.0
C      1  0.4263280000000  0.5482520000000  0.5452120000000 1.0
C      1  0.5539130000000  0.5146080000000  0.6055580000000 1.0
C      1  0.5269250000000  0.5032170000000  0.5154240000000 1.0
C      1  0.4264600000000  0.4183920000000  0.4907730000000 1.0
C      1  0.4696000000000  0.5510480000000  0.4086670000000 1.0
C      1  0.4474740000000  0.4595260000000  0.5955080000000 1.0
C      1  0.4170880000000  0.5522420000000  0.4737090000000 1.0
C      1  0.5942770000000  0.4433650000000  0.4978200000000 1.0
C      1  0.4415600000000  0.3946300000000  0.4848920000000 1.0
C      1  0.4131030000000  0.5323920000000  0.4979130000000 1.0
C      1  0.5036360000000  0.4602140000000  0.4579160000000 1.0
C      1  0.5094760000000  0.5866360000000  0.5556820000000 1.0
C      1  0.4148710000000  0.5008670000000  0.5391400000000 1.0
C      1  0.5146480000000  0.4961770000000  0.5861190000000 1.0
C      1  0.5766110000000  0.5130090000000  0.5885510000000 1.0
C      1  0.4765880000000  0.4234970000000  0.5724540000000 1.0
C      1  0.4534140000000  0.4289410000000  0.5258200000000 1.0
C      1  0.4305120000000  0.4688730000000  0.5746360000000 1.0
C      1  0.5486580000000  0.5759260000000  0.4363190000000 1.0
C      1  0.5626700000000  0.5964910000000  0.4509230000000 1.0
C      1  0.5749360000000  0.5510780000000  0.5607790000000 1.0
C      1  0.4199830000000  0.5102470000000  0.4568080000000 1.0
C      1  0.4757760000000  0.5548270000000  0.4970370000000 1.0
C      1  0.5715240000000  0.4103980000000  0.5246040000000 1.0
C      1  0.4542900000000  0.5888680000000  0.5272170000000 1.0
C      1  0.4382290000000  0.4648260000000  0.4855800000000 1.0
C      1  0.4518880000000  0.4238920000000  0.4300040000000 1.0
C      1  0.4562200000000  0.4350040000000  0.4553890000000 1.0
C      1  0.5105250000000  0.4086700000000  0.4567800000000 1.0
C      1  0.5390310000000  0.5657750000000  0.4109170000000 1.0
C      1  0.5257140000000  0.5419550000000  0.5751590000000 1.0
C      1  0.5373110000000  0.4236280000000  0.4597320000000 1.0
C      1  0.6087330000000  0.4853030000000  0.4750740000000 1.0
C      1  0.5306940000000  0.5630360000000  0.4548810000000 1.0
C      1  0.4256770000000  0.6328840000000  0.5296750000000 1.0
C      1  0.4891090000000  0.4077840000000  0.5546040000000 1.0
C      1  0.5139540000000  0.5084230000000  0.5401540000000 1.0
C      1  0.5564180000000  0.5140050000000  0.4129910000000 1.0
C      1  0.4847560000000  0.4877490000000  0.4952210000000 1.0
C      1  0.5015090000000  0.5655830000000  0.4905710000000 1.0
C      1  0.4675510000000  0.5172940000000  0.4616410000000 1.0
C      1  0.4126820000000  0.5063890000000  0.4837160000000 1.0
C      1  0.4978660000000  0.5640670000000  0.5384210000000 1.0
C      1  0.5384930000000  0.5833270000000  0.5512100000000 1.0
C      1  0.4436080000000  0.4652040000000  0.4101220000000 1.0
C      1  0.4113800000000  0.4501770000000  0.5323490000000 1.0
C      1  0.4479200000000  0.5511260000000  0.5618950000000 1.0
C      1  0.5860350000000  0.5231050000000  0.4558940000000 1.0
C      1  0.4141330000000  0.5369770000000  0.4476770000000 1.0
C      1  0.5875500000000  0.5387080000000  0.5831040000000 1.0
C      1  0.4183510000000  0.4817260000000  0.4955860000000 1.0
C      1  0.4687120000000  0.4630470000000  0.4918960000000 1.0
C      1  0.5625130000000  0.4699960000000  0.5674110000000 1.0
C      1  0.4418560000000  0.5581690000000  0.4123650000000 1.0
C      1  0.6005750000000  0.5409580000000  0.5173860000000 1.0
C      1  0.5465070000000  0.5391040000000  0.4035510000000 1.0
C      1  0.4155100000000  0.5286520000000  0.5272650000000 1.0
C      1  0.5554440000000  0.4657670000000  0.4270000000000 1.0
C      1  0.4988190000000  0.3980830000000  0.5314930000000 1.0
C      1  0.5555390000000  0.4990500000000  0.5169290000000 1.0
C      1  0.4713270000000  0.4429030000000  0.5923150000000 1.0
C      1  0.4324220000000  0.4952490000000  0.5624190000000 1.0
C      1  0.5504650000000  0.6058900000000  0.4758390000000 1.0
C      1  0.4498600000000  0.5115010000000  0.3923190000000 1.0
C      1  0.4401010000000  0.6111900000000  0.5287770000000 1.0
C      1  0.4257190000000  0.4288100000000  0.5182800000000 1.0
C      1  0.6069940000000  0.5139310000000  0.4735830000000 1.0
C      1  0.5415560000000  0.5823670000000  0.5217760000000 1.0
C      1  0.5370170000000  0.4652800000000  0.5542920000000 1.0
C      1  0.5217270000000  0.6056300000000  0.4720690000000 1.0
C      1  0.5478120000000  0.5600160000000  0.5652300000000 1.0
C      1  0.4708740000000  0.5079550000000  0.5095710000000 1.0
C      1  0.4244720000000  0.5184000000000  0.4011700000000 1.0
C      1  0.4337810000000  0.5752400000000  0.4706420000000 1.0
C      1  0.5740710000000  0.4232670000000  0.4990520000000 1.0
C      1  0.5541360000000  0.4203380000000  0.5432640000000 1.0
C      1  0.5158190000000  0.5192030000000  0.4619420000000 1.0
C      1  0.5103940000000  0.4509720000000  0.4301870000000 1.0
C      1  0.5702030000000  0.4720680000000  0.4497950000000 1.0
C      1  0.4668130000000  0.3894880000000  0.4759930000000 1.0
C      1  0.5177890000000  0.5667810000000  0.5142010000000 1.0
C      1  0.4585550000000  0.5067000000000  0.5587230000000 1.0
C      1  0.5180970000000  0.4869190000000  0.5594130000000 1.0
C      1  0.5566400000000  0.5967940000000  0.5024110000000 1.0
C      1  0.5477430000000  0.4285190000000  0.4868020000000 1.0
C      1  0.4459870000000  0.5020800000000  0.4498590000000 1.0
C      1  0.5035700000000  0.3952620000000  0.5051630000000 1.0
C      1  0.4785690000000  0.4498140000000  0.4669470000000 1.0
C      1  0.5012310000000  0.5369600000000  0.5543100000000 1.0
C      1  0.5368790000000  0.4425030000000  0.5364770000000 1.0
C      1  0.5365430000000  0.5373170000000  0.4637590000000 1.0
C      1  0.5311220000000  0.4407960000000  0.5081230000000 1.0
C      1  0.4676450000000  0.5286630000000  0.4894210000000 1.0
C      1  0.4714210000000  0.5672470000000  0.5232480000000 1.0
C      1  0.5938850000000  0.4718010000000  0.4964180000000 1.0
C      1  0.5631450000000  0.5322790000000  0.4694000000000 1.0
C      1  0.4744560000000  0.5224210000000  0.4031750000000 1.0
C      1  0.5747160000000  0.4513740000000  0.5832580000000 1.0
C      1  0.5730500000000  0.4962900000000  0.5646890000000 1.0
C      1  0.4946340000000  0.3963840000000  0.4781140000000 1.0
C      1  0.4102650000000  0.4775140000000  0.5221680000000 1.0
C      1  0.4935450000000  0.5064690000000  0.4196410000000 1.0
C      1  0.4741850000000  0.5870440000000  0.4383660000000 1.0
C      1  0.5811530000000  0.5361610000000  0.5370060000000 1.0
C      1  0.5805900000000  0.5167060000000  0.4286670000000 1.0
C      1  0.5397620000000  0.4429080000000  0.4346660000000 1.0
C      1  0.6124940000000  0.5305520000000  0.4956860000000 1.0
C      1  0.5285780000000  0.5198170000000  0.5940610000000 1.0
C      1  0.4329590000000  0.4393350000000  0.4724080000000 1.0
C      1  0.5122470000000  0.5741020000000  0.4059460000000 1.0
C      1  0.5983990000000  0.4727030000000  0.4513980000000 1.0
C      1  0.4452140000000  0.4384680000000  0.4083610000000 1.0
C      1  0.4992680000000  0.4218950000000  0.4322330000000 1.0
C      1  0.4913110000000  0.4454780000000  0.6123770000000 1.0
C      1  0.4540540000000  0.5865760000000  0.4566180000000 1.0
C      1  0.5530550000000  0.4767230000000  0.4727750000000 1.0
END
