TITL C-612605-9286-282 90.8830939286482 125000 -936.018015103154 0 0 151 (C1) n - 1
REM
REM in /home/nfs/bkarasulu/CARBON/AIRSS/Generating-Clusters/TERSOFF/Only-C1/FIRE-HFTN
REM
REM
REM
REM
REM
REM ./C.cell (11c1c37f851c82e70ff6c80c92926a4b)
REM AIRSS Version 0.9.1 bugfix July 2018 build 013d7b7c2542+ Fri, 06 Jul 2018 19:26:36 +0100
REM compiler GCC version 9.2.1 20190827 (Red Hat 9.2.1-1)
REM options -cpp -mtune=generic -march=x86-64 -g -O0 -fpre-include=/usr/include/finclude/math-vector-fortran.h
REM seed -1299604886 844388244 -35339773 -812212293 -2083480750 332869293 1390496800 306895184 367658924 2004563620 166517197 2023762269 496089509 -1981677517 2034292917 -1712411178 -1092138579 370177251 -1712047693 1689233686 -846939084 -1532141248 -1558819357 1486900394 1083288055 -1522428208 -656799769 -463235877 1864064008 293316399 -956285079 450297891 1541135793
REM
CELL 1.54180   50.00000   50.00000   50.00000   90.00000   90.00000   90.00000
LATT -1
SFAC C  
C      1  0.4267220000000  0.4259600000000  0.4526860000000 1.0
C      1  0.5476400000000  0.5601840000000  0.4275010000000 1.0
C      1  0.4611830000000  0.5969650000000  0.4650830000000 1.0
C      1  0.5539170000000  0.4417700000000  0.5313540000000 1.0
C      1  0.4321610000000  0.5452820000000  0.4351970000000 1.0
C      1  0.5894920000000  0.4966910000000  0.5630430000000 1.0
C      1  0.4502700000000  0.4091490000000  0.4511480000000 1.0
C      1  0.4762260000000  0.5483360000000  0.4868190000000 1.0
C      1  0.5351410000000  0.5297320000000  0.5269820000000 1.0
C      1  0.5395880000000  0.5665480000000  0.6064450000000 1.0
C      1  0.4209440000000  0.4362060000000  0.4053710000000 1.0
C      1  0.5899660000000  0.5447290000000  0.5302860000000 1.0
C      1  0.5203530000000  0.5108970000000  0.3873590000000 1.0
C      1  0.4714340000000  0.4156600000000  0.4693320000000 1.0
C      1  0.4634150000000  0.4717070000000  0.5324400000000 1.0
C      1  0.4184180000000  0.5619440000000  0.4780640000000 1.0
C      1  0.5016540000000  0.5687250000000  0.5741990000000 1.0
C      1  0.4148220000000  0.4719630000000  0.4371870000000 1.0
C      1  0.5500370000000  0.5652050000000  0.5586280000000 1.0
C      1  0.3986290000000  0.4813940000000  0.5180810000000 1.0
C      1  0.4355510000000  0.5461070000000  0.4629600000000 1.0
C      1  0.5298470000000  0.4954490000000  0.4096370000000 1.0
C      1  0.5611440000000  0.5812820000000  0.4375980000000 1.0
C      1  0.5566600000000  0.4835440000000  0.4147600000000 1.0
C      1  0.4912220000000  0.5745620000000  0.5480360000000 1.0
C      1  0.4888630000000  0.5623350000000  0.6445990000000 1.0
C      1  0.4063070000000  0.4928450000000  0.5742590000000 1.0
C      1  0.5055150000000  0.4302620000000  0.5108570000000 1.0
C      1  0.6109180000000  0.5083700000000  0.4939790000000 1.0
C      1  0.5351270000000  0.4474840000000  0.4437290000000 1.0
C      1  0.4882900000000  0.5898000000000  0.4247390000000 1.0
C      1  0.5226300000000  0.4441930000000  0.4929270000000 1.0
C      1  0.5967420000000  0.5225940000000  0.4715740000000 1.0
C      1  0.4985480000000  0.3931130000000  0.5364230000000 1.0
C      1  0.4794630000000  0.3855580000000  0.5150630000000 1.0
C      1  0.4476090000000  0.4709180000000  0.6039220000000 1.0
C      1  0.4114080000000  0.4620330000000  0.5361170000000 1.0
C      1  0.5429760000000  0.5836370000000  0.5370680000000 1.0
C      1  0.4112310000000  0.4301790000000  0.4767150000000 1.0
C      1  0.5600080000000  0.5142380000000  0.5971030000000 1.0
C      1  0.4420840000000  0.5126620000000  0.5302880000000 1.0
C      1  0.3958560000000  0.5102920000000  0.5210550000000 1.0
C      1  0.5775510000000  0.5425990000000  0.4831470000000 1.0
C      1  0.4009920000000  0.5025610000000  0.4732620000000 1.0
C      1  0.4606880000000  0.3915820000000  0.4313210000000 1.0
C      1  0.5745060000000  0.5194680000000  0.5726570000000 1.0
C      1  0.3932100000000  0.4521070000000  0.4767180000000 1.0
C      1  0.5187240000000  0.4852130000000  0.6045830000000 1.0
C      1  0.4436070000000  0.5692430000000  0.4248790000000 1.0
C      1  0.4959850000000  0.5958370000000  0.5033150000000 1.0
C      1  0.4256740000000  0.5186690000000  0.4268230000000 1.0
C      1  0.4856750000000  0.4783040000000  0.4276160000000 1.0
C      1  0.5355970000000  0.5718240000000  0.4958340000000 1.0
C      1  0.5112690000000  0.5250870000000  0.5422390000000 1.0
C      1  0.5008240000000  0.4938850000000  0.5064560000000 1.0
C      1  0.4997020000000  0.5287860000000  0.3783160000000 1.0
C      1  0.5293190000000  0.4868560000000  0.5113870000000 1.0
C      1  0.5503330000000  0.6010230000000  0.4526560000000 1.0
C      1  0.4979740000000  0.4653600000000  0.6105580000000 1.0
C      1  0.5082390000000  0.5408120000000  0.4509120000000 1.0
C      1  0.4375180000000  0.4560630000000  0.5815300000000 1.0
C      1  0.5152390000000  0.5634000000000  0.6499320000000 1.0
C      1  0.5303930000000  0.5658430000000  0.5798700000000 1.0
C      1  0.4560830000000  0.4954380000000  0.5457270000000 1.0
C      1  0.4820100000000  0.4527260000000  0.4383550000000 1.0
C      1  0.4168410000000  0.5535360000000  0.5273400000000 1.0
C      1  0.5946140000000  0.4724830000000  0.5486190000000 1.0
C      1  0.5019910000000  0.5680230000000  0.4116620000000 1.0
C      1  0.5686520000000  0.4702390000000  0.4989020000000 1.0
C      1  0.5127650000000  0.3839090000000  0.4329330000000 1.0
C      1  0.4123280000000  0.4994700000000  0.4457340000000 1.0
C      1  0.5914500000000  0.4356150000000  0.4653810000000 1.0
C      1  0.4763260000000  0.5633620000000  0.6208630000000 1.0
C      1  0.5201860000000  0.5538540000000  0.4287200000000 1.0
C      1  0.4897490000000  0.4024560000000  0.5621780000000 1.0
C      1  0.5852360000000  0.5089330000000  0.4472000000000 1.0
C      1  0.4675440000000  0.5989290000000  0.4938740000000 1.0
C      1  0.5744530000000  0.4522100000000  0.5479040000000 1.0
C      1  0.4043810000000  0.5189000000000  0.5672710000000 1.0
C      1  0.4734700000000  0.5064160000000  0.5654780000000 1.0
C      1  0.5358960000000  0.5654450000000  0.6328800000000 1.0
C      1  0.5131060000000  0.5836940000000  0.4808460000000 1.0
C      1  0.4781420000000  0.5427140000000  0.5141170000000 1.0
C      1  0.4806810000000  0.4237700000000  0.5790710000000 1.0
C      1  0.5234110000000  0.4691700000000  0.5607100000000 1.0
C      1  0.5017550000000  0.5116320000000  0.5655010000000 1.0
C      1  0.4551460000000  0.4460720000000  0.5236840000000 1.0
C      1  0.5803330000000  0.5015250000000  0.4194350000000 1.0
C      1  0.4062950000000  0.5499700000000  0.4997820000000 1.0
C      1  0.4044440000000  0.5298470000000  0.5413320000000 1.0
C      1  0.6145690000000  0.4783240000000  0.4985020000000 1.0
C      1  0.5723260000000  0.4940760000000  0.5146330000000 1.0
C      1  0.4830200000000  0.5658160000000  0.5951250000000 1.0
C      1  0.5726720000000  0.5441720000000  0.5555190000000 1.0
C      1  0.5574890000000  0.5796390000000  0.5124740000000 1.0
C      1  0.5685900000000  0.4725900000000  0.4718240000000 1.0
C      1  0.4498290000000  0.5171070000000  0.3813330000000 1.0
C      1  0.4977900000000  0.5583750000000  0.4712850000000 1.0
C      1  0.4999600000000  0.5560420000000  0.3864510000000 1.0
C      1  0.5662420000000  0.4066850000000  0.5022810000000 1.0
C      1  0.4741790000000  0.5199110000000  0.3699270000000 1.0
C      1  0.4972670000000  0.4394230000000  0.5970490000000 1.0
C      1  0.4461640000000  0.5934160000000  0.5125060000000 1.0
C      1  0.4210320000000  0.4447980000000  0.4314140000000 1.0
C      1  0.4167730000000  0.4680200000000  0.5646660000000 1.0
C      1  0.5591140000000  0.3983330000000  0.4555980000000 1.0
C      1  0.4715010000000  0.4745890000000  0.6162290000000 1.0
C      1  0.6136700000000  0.4719090000000  0.5270350000000 1.0
C      1  0.5624520000000  0.4956150000000  0.4589240000000 1.0
C      1  0.5099470000000  0.4935670000000  0.4308610000000 1.0
C      1  0.4929870000000  0.5201550000000  0.5206270000000 1.0
C      1  0.5579860000000  0.4570750000000  0.4290960000000 1.0
C      1  0.4762350000000  0.4304240000000  0.5119620000000 1.0
C      1  0.5075360000000  0.4600290000000  0.5415230000000 1.0
C      1  0.3962250000000  0.4772630000000  0.4886910000000 1.0
C      1  0.5227390000000  0.6023270000000  0.4593600000000 1.0
C      1  0.5085350000000  0.5895580000000  0.5302840000000 1.0
C      1  0.4905520000000  0.4349460000000  0.4583680000000 1.0
C      1  0.4628600000000  0.4898390000000  0.4167970000000 1.0
C      1  0.4864070000000  0.3837240000000  0.4272110000000 1.0
C      1  0.4935170000000  0.4989960000000  0.4774240000000 1.0
C      1  0.4625320000000  0.5869740000000  0.4373520000000 1.0
C      1  0.5428570000000  0.4596040000000  0.5086320000000 1.0
C      1  0.4705330000000  0.4063380000000  0.4965150000000 1.0
C      1  0.6089630000000  0.5248410000000  0.5194150000000 1.0
C      1  0.5423390000000  0.4997680000000  0.6124250000000 1.0
C      1  0.5500680000000  0.5331330000000  0.4812740000000 1.0
C      1  0.5171500000000  0.4909720000000  0.5766820000000 1.0
C      1  0.4659250000000  0.5054950000000  0.4721530000000 1.0
C      1  0.4896920000000  0.4732720000000  0.5244130000000 1.0
C      1  0.4435680000000  0.5076600000000  0.4071270000000 1.0
C      1  0.5201090000000  0.4088700000000  0.5250600000000 1.0
C      1  0.6091500000000  0.4547150000000  0.4805990000000 1.0
C      1  0.4183550000000  0.4234450000000  0.5032100000000 1.0
C      1  0.4571980000000  0.5322970000000  0.4736020000000 1.0
C      1  0.5050940000000  0.6083820000000  0.4381060000000 1.0
C      1  0.5796790000000  0.5604510000000  0.5078030000000 1.0
C      1  0.4273320000000  0.4412410000000  0.5233210000000 1.0
C      1  0.5481430000000  0.5055540000000  0.5225610000000 1.0
C      1  0.5372590000000  0.3888930000000  0.4429640000000 1.0
C      1  0.4537510000000  0.4333000000000  0.5759470000000 1.0
C      1  0.4690220000000  0.5604580000000  0.5347250000000 1.0
C      1  0.5178170000000  0.4406710000000  0.4653880000000 1.0
C      1  0.3972120000000  0.5230380000000  0.4944000000000 1.0
C      1  0.5485890000000  0.4142340000000  0.5237780000000 1.0
C      1  0.5826720000000  0.4452510000000  0.4389130000000 1.0
C      1  0.5413290000000  0.5117600000000  0.4657540000000 1.0
C      1  0.4416070000000  0.5701100000000  0.5294550000000 1.0
C      1  0.5130490000000  0.5104800000000  0.4562270000000 1.0
C      1  0.5745350000000  0.4127140000000  0.4753180000000 1.0
C      1  0.5339860000000  0.5439710000000  0.5017770000000 1.0
END
