TITL C-612600-6631-28 283.117412073309 125000 -463.651269614518 0 0 78 (C1) n - 1
REM
REM in /home/nfs/bkarasulu/CARBON/AIRSS/Generating-Clusters/TERSOFF/Only-C1/FIRE-HFTN
REM
REM
REM
REM
REM
REM ./C.cell (11c1c37f851c82e70ff6c80c92926a4b)
REM AIRSS Version 0.9.1 bugfix July 2018 build 013d7b7c2542+ Fri, 06 Jul 2018 19:26:36 +0100
REM compiler GCC version 9.2.1 20190827 (Red Hat 9.2.1-1)
REM options -cpp -mtune=generic -march=x86-64 -g -O0 -fpre-include=/usr/include/finclude/math-vector-fortran.h
REM seed 1965657440 -309457109 838601117 -2033897797 -128246262 -1106974841 -1945203074 700269825 -890813440 -516024869 2062846071 75791157 1343588625 -1270519831 1324107357 -238531243 -538969293 -567432909 1706951377 274202898 1620279872 -1635816770 586771545 -500759287 44497115 -769518975 -646299968 705657860 -932067106 953132766 222430069 -49743416 1979390609
REM
CELL 1.54180   50.00000   50.00000   50.00000   90.00000   90.00000   90.00000
LATT -1
SFAC C  
C      1  0.4591740000000  0.5670200000000  0.4749060000000 1.0
C      1  0.4310750000000  0.4317090000000  0.4949670000000 1.0
C      1  0.5691400000000  0.5387710000000  0.5310590000000 1.0
C      1  0.5279410000000  0.4332030000000  0.5774300000000 1.0
C      1  0.5090280000000  0.4182040000000  0.4380920000000 1.0
C      1  0.5221070000000  0.5059650000000  0.5772780000000 1.0
C      1  0.5618980000000  0.4866780000000  0.4551210000000 1.0
C      1  0.5009040000000  0.5622340000000  0.5058590000000 1.0
C      1  0.5123970000000  0.4837850000000  0.4469930000000 1.0
C      1  0.5011170000000  0.5571820000000  0.4402760000000 1.0
C      1  0.4768480000000  0.5416160000000  0.5780140000000 1.0
C      1  0.4660680000000  0.4638490000000  0.5120190000000 1.0
C      1  0.5330660000000  0.5711220000000  0.5384880000000 1.0
C      1  0.4337750000000  0.4797290000000  0.5131860000000 1.0
C      1  0.4884060000000  0.5194400000000  0.4719320000000 1.0
C      1  0.4177390000000  0.5025080000000  0.5119770000000 1.0
C      1  0.4623910000000  0.5333820000000  0.5552250000000 1.0
C      1  0.4280060000000  0.5262300000000  0.4994070000000 1.0
C      1  0.5066980000000  0.5687130000000  0.5518600000000 1.0
C      1  0.5070420000000  0.5334510000000  0.4550760000000 1.0
C      1  0.4605580000000  0.5068930000000  0.4365930000000 1.0
C      1  0.4643650000000  0.4489250000000  0.5375520000000 1.0
C      1  0.5189950000000  0.3950290000000  0.4786140000000 1.0
C      1  0.5035690000000  0.4698490000000  0.5138880000000 1.0
C      1  0.5707570000000  0.4946630000000  0.5089480000000 1.0
C      1  0.4053310000000  0.4629130000000  0.4688720000000 1.0
C      1  0.5474630000000  0.5645730000000  0.4884940000000 1.0
C      1  0.5883310000000  0.4584490000000  0.4176200000000 1.0
C      1  0.5166270000000  0.4608890000000  0.4914160000000 1.0
C      1  0.5944140000000  0.4621630000000  0.5454380000000 1.0
C      1  0.5226160000000  0.3987170000000  0.4518080000000 1.0
C      1  0.5370120000000  0.4990480000000  0.4492150000000 1.0
C      1  0.5340430000000  0.5261780000000  0.4563920000000 1.0
C      1  0.4600730000000  0.5530430000000  0.5345450000000 1.0
C      1  0.4365220000000  0.5022040000000  0.4546530000000 1.0
C      1  0.4396880000000  0.5469050000000  0.5155840000000 1.0
C      1  0.6026650000000  0.4466630000000  0.5647050000000 1.0
C      1  0.4288940000000  0.4757810000000  0.4598620000000 1.0
C      1  0.4938470000000  0.4391790000000  0.4530260000000 1.0
C      1  0.5846390000000  0.4779230000000  0.5265200000000 1.0
C      1  0.4796860000000  0.5524340000000  0.4226200000000 1.0
C      1  0.4601180000000  0.4596690000000  0.5619200000000 1.0
C      1  0.4586620000000  0.4445200000000  0.4883960000000 1.0
C      1  0.6204710000000  0.5488850000000  0.5180350000000 1.0
C      1  0.5166850000000  0.4879620000000  0.5318790000000 1.0
C      1  0.4073170000000  0.4411050000000  0.4852500000000 1.0
C      1  0.4716400000000  0.5001010000000  0.5192390000000 1.0
C      1  0.5503520000000  0.5453450000000  0.5751670000000 1.0
C      1  0.4849230000000  0.5677090000000  0.5316250000000 1.0
C      1  0.5242670000000  0.4578610000000  0.5698430000000 1.0
C      1  0.5132230000000  0.4596620000000  0.4637460000000 1.0
C      1  0.5298240000000  0.5721890000000  0.5094190000000 1.0
C      1  0.5503130000000  0.5451600000000  0.4697540000000 1.0
C      1  0.5269280000000  0.5135110000000  0.5213350000000 1.0
C      1  0.5065710000000  0.5307730000000  0.5104190000000 1.0
C      1  0.4320470000000  0.5258170000000  0.4711700000000 1.0
C      1  0.3925670000000  0.5026010000000  0.5227070000000 1.0
C      1  0.5957550000000  0.5443030000000  0.5249020000000 1.0
C      1  0.5251560000000  0.5337780000000  0.5809100000000 1.0
C      1  0.5032240000000  0.5511290000000  0.5746790000000 1.0
C      1  0.5010780000000  0.5793350000000  0.4579500000000 1.0
C      1  0.5206040000000  0.4836760000000  0.5599290000000 1.0
C      1  0.4464800000000  0.5475170000000  0.4584630000000 1.0
C      1  0.4639820000000  0.5066540000000  0.5462160000000 1.0
C      1  0.4608920000000  0.4017590000000  0.4634240000000 1.0
C      1  0.4991870000000  0.4082770000000  0.4922250000000 1.0
C      1  0.4515760000000  0.4592270000000  0.4622870000000 1.0
C      1  0.5546080000000  0.5553930000000  0.5490250000000 1.0
C      1  0.5713150000000  0.4894090000000  0.4814420000000 1.0
C      1  0.4784190000000  0.4237100000000  0.4767950000000 1.0
C      1  0.5760810000000  0.4725390000000  0.4358010000000 1.0
C      1  0.5553950000000  0.5162810000000  0.5197570000000 1.0
C      1  0.4725720000000  0.4589280000000  0.4430170000000 1.0
C      1  0.4849800000000  0.5151340000000  0.4997060000000 1.0
C      1  0.4593750000000  0.5364730000000  0.4339510000000 1.0
C      1  0.4861820000000  0.5738040000000  0.4817800000000 1.0
C      1  0.4830190000000  0.4862580000000  0.4370350000000 1.0
C      1  0.4592970000000  0.4863350000000  0.5652720000000 1.0
END
