TITL C-612604-1799-185 -858.641299131178 125000 -926.51950020919 0 0 152 (C1) n - 1
REM
REM in /home/nfs/bkarasulu/CARBON/AIRSS/Generating-Clusters/TERSOFF/Only-C1/FIRE-HFTN
REM
REM
REM
REM
REM
REM ./C.cell (11c1c37f851c82e70ff6c80c92926a4b)
REM AIRSS Version 0.9.1 bugfix July 2018 build 013d7b7c2542+ Fri, 06 Jul 2018 19:26:36 +0100
REM compiler GCC version 9.2.1 20190827 (Red Hat 9.2.1-1)
REM options -cpp -mtune=generic -march=x86-64 -g -O0 -fpre-include=/usr/include/finclude/math-vector-fortran.h
REM seed -21696134 2082679754 -804327168 -861064707 -242920297 1945688183 -523150029 1439132702 -2021829387 -689493432 1075447308 -2137442891 1957033344 1760210651 -1357424490 1988046991 -1021630111 -1878506093 631772974 405056970 -1162059417 481910718 -305837030 413793789 360834607 102283242 1215549546 658513201 -882539824 712494468 -1251896798 -667244869 828680721
REM
CELL 1.54180   50.00000   50.00000   50.00000   90.00000   90.00000   90.00000
LATT -1
SFAC C  
C      1  0.4599080000000  0.5474900000000  0.6004660000000 1.0
C      1  0.4391610000000  0.6227930000000  0.4778770000000 1.0
C      1  0.4671860000000  0.4161860000000  0.5829020000000 1.0
C      1  0.5561880000000  0.5052500000000  0.4832010000000 1.0
C      1  0.4292240000000  0.4229640000000  0.4950100000000 1.0
C      1  0.4829020000000  0.4813750000000  0.5911920000000 1.0
C      1  0.4897400000000  0.4017170000000  0.5195090000000 1.0
C      1  0.5731220000000  0.5382500000000  0.4484750000000 1.0
C      1  0.4551420000000  0.4655690000000  0.5536530000000 1.0
C      1  0.5288950000000  0.5516740000000  0.4784970000000 1.0
C      1  0.5279510000000  0.5212710000000  0.5487190000000 1.0
C      1  0.5132410000000  0.4848680000000  0.5142280000000 1.0
C      1  0.4753290000000  0.5158250000000  0.4949730000000 1.0
C      1  0.3751660000000  0.4607320000000  0.4536360000000 1.0
C      1  0.5950900000000  0.4659910000000  0.4374160000000 1.0
C      1  0.4460170000000  0.5445910000000  0.5758720000000 1.0
C      1  0.4652070000000  0.4352070000000  0.6040550000000 1.0
C      1  0.5024090000000  0.4957260000000  0.5797770000000 1.0
C      1  0.5488630000000  0.4549000000000  0.5708480000000 1.0
C      1  0.4303440000000  0.5243270000000  0.4090910000000 1.0
C      1  0.4273280000000  0.5583200000000  0.5046150000000 1.0
C      1  0.4977450000000  0.6003810000000  0.5025960000000 1.0
C      1  0.5650970000000  0.4316840000000  0.4547420000000 1.0
C      1  0.4428850000000  0.4108380000000  0.5692900000000 1.0
C      1  0.4931710000000  0.5412650000000  0.3998290000000 1.0
C      1  0.5235350000000  0.5951810000000  0.5692320000000 1.0
C      1  0.4113020000000  0.5041390000000  0.4060750000000 1.0
C      1  0.5206300000000  0.5929950000000  0.4530620000000 1.0
C      1  0.5019230000000  0.5725600000000  0.5099960000000 1.0
C      1  0.5578890000000  0.4415540000000  0.3866950000000 1.0
C      1  0.5674780000000  0.5525690000000  0.5622510000000 1.0
C      1  0.5844610000000  0.5115800000000  0.4522710000000 1.0
C      1  0.5518570000000  0.5475260000000  0.5167060000000 1.0
C      1  0.5309550000000  0.4053570000000  0.4362930000000 1.0
C      1  0.4970870000000  0.4635410000000  0.5255410000000 1.0
C      1  0.4371640000000  0.5692420000000  0.5307390000000 1.0
C      1  0.5642240000000  0.4434300000000  0.4999540000000 1.0
C      1  0.5458980000000  0.4623400000000  0.3745610000000 1.0
C      1  0.5297570000000  0.3413050000000  0.4626970000000 1.0
C      1  0.5582110000000  0.5203090000000  0.5046840000000 1.0
C      1  0.3934170000000  0.4856530000000  0.4124900000000 1.0
C      1  0.6001920000000  0.5064690000000  0.4768940000000 1.0
C      1  0.3914070000000  0.5217900000000  0.5513740000000 1.0
C      1  0.4792680000000  0.4011170000000  0.4926260000000 1.0
C      1  0.4243630000000  0.5717260000000  0.3840000000000 1.0
C      1  0.5096510000000  0.5014200000000  0.3782100000000 1.0
C      1  0.5103560000000  0.5102930000000  0.5284680000000 1.0
C      1  0.4973830000000  0.5105970000000  0.4786640000000 1.0
C      1  0.5866750000000  0.4551210000000  0.5393490000000 1.0
C      1  0.5740170000000  0.5902790000000  0.5174850000000 1.0
C      1  0.4937250000000  0.4252670000000  0.4521990000000 1.0
C      1  0.5868480000000  0.4261170000000  0.5358610000000 1.0
C      1  0.3924170000000  0.4986880000000  0.5376570000000 1.0
C      1  0.4318830000000  0.4569730000000  0.5667320000000 1.0
C      1  0.5484300000000  0.5409760000000  0.5451040000000 1.0
C      1  0.5310370000000  0.4502990000000  0.5940990000000 1.0
C      1  0.4570180000000  0.6281490000000  0.4974180000000 1.0
C      1  0.3808810000000  0.4590700000000  0.4794980000000 1.0
C      1  0.5630040000000  0.3929340000000  0.5055200000000 1.0
C      1  0.4712290000000  0.4614040000000  0.6046910000000 1.0
C      1  0.4941900000000  0.5157800000000  0.6242910000000 1.0
C      1  0.5408130000000  0.5126040000000  0.6203440000000 1.0
C      1  0.5757560000000  0.4867720000000  0.4377950000000 1.0
C      1  0.5030260000000  0.4736400000000  0.4170040000000 1.0
C      1  0.4046000000000  0.5127420000000  0.4940850000000 1.0
C      1  0.4245260000000  0.4302350000000  0.5597870000000 1.0
C      1  0.4934680000000  0.4152600000000  0.5713120000000 1.0
C      1  0.5511060000000  0.6047980000000  0.5257380000000 1.0
C      1  0.4080520000000  0.4286300000000  0.5372310000000 1.0
C      1  0.4504110000000  0.5185690000000  0.4531210000000 1.0
C      1  0.4797010000000  0.5600200000000  0.4975100000000 1.0
C      1  0.5270140000000  0.5190250000000  0.4459430000000 1.0
C      1  0.5355040000000  0.4463110000000  0.5473460000000 1.0
C      1  0.4688400000000  0.4661510000000  0.5293320000000 1.0
C      1  0.5187230000000  0.4558900000000  0.4774180000000 1.0
C      1  0.4023750000000  0.5458560000000  0.5561980000000 1.0
C      1  0.5192060000000  0.3882150000000  0.4568600000000 1.0
C      1  0.4523410000000  0.4704520000000  0.5073230000000 1.0
C      1  0.5955550000000  0.4836470000000  0.4944630000000 1.0
C      1  0.5929350000000  0.5866460000000  0.5387730000000 1.0
C      1  0.5054680000000  0.5602200000000  0.6049760000000 1.0
C      1  0.5242720000000  0.4583450000000  0.4286570000000 1.0
C      1  0.5155540000000  0.4858650000000  0.4827140000000 1.0
C      1  0.4506370000000  0.5209210000000  0.4816180000000 1.0
C      1  0.4975530000000  0.4170140000000  0.5424020000000 1.0
C      1  0.5709180000000  0.4182070000000  0.5134100000000 1.0
C      1  0.4783090000000  0.5179080000000  0.4111120000000 1.0
C      1  0.4736730000000  0.5610450000000  0.4714670000000 1.0
C      1  0.5149140000000  0.4296300000000  0.4327820000000 1.0
C      1  0.5296280000000  0.4833350000000  0.3703030000000 1.0
C      1  0.3853760000000  0.5189880000000  0.4753800000000 1.0
C      1  0.4266910000000  0.5490810000000  0.3966860000000 1.0
C      1  0.5101630000000  0.6062820000000  0.4769200000000 1.0
C      1  0.5879560000000  0.5699340000000  0.5595710000000 1.0
C      1  0.4748630000000  0.5755270000000  0.4473880000000 1.0
C      1  0.5472130000000  0.4768870000000  0.4403090000000 1.0
C      1  0.6106990000000  0.5299870000000  0.4887090000000 1.0
C      1  0.5375050000000  0.4953030000000  0.4626310000000 1.0
C      1  0.5228320000000  0.4694020000000  0.6152180000000 1.0
C      1  0.5159620000000  0.5791790000000  0.5892740000000 1.0
C      1  0.5346470000000  0.6052040000000  0.5470380000000 1.0
C      1  0.4172900000000  0.4719980000000  0.5849790000000 1.0
C      1  0.5472610000000  0.4430000000000  0.4765020000000 1.0
C      1  0.4932700000000  0.4946150000000  0.4017360000000 1.0
C      1  0.4926680000000  0.4484510000000  0.4672280000000 1.0
C      1  0.4718480000000  0.6094940000000  0.5126290000000 1.0
C      1  0.3799680000000  0.4700820000000  0.4292550000000 1.0
C      1  0.4951400000000  0.4008460000000  0.4680010000000 1.0
C      1  0.5504120000000  0.3749530000000  0.4905900000000 1.0
C      1  0.5125280000000  0.5321940000000  0.4668180000000 1.0
C      1  0.3997840000000  0.4901270000000  0.5117370000000 1.0
C      1  0.5260630000000  0.5103220000000  0.5745510000000 1.0
C      1  0.5991200000000  0.5529330000000  0.4964490000000 1.0
C      1  0.5720130000000  0.5657060000000  0.4993690000000 1.0
C      1  0.5058620000000  0.5299760000000  0.3758970000000 1.0
C      1  0.5489200000000  0.5854300000000  0.4514770000000 1.0
C      1  0.5570430000000  0.4152110000000  0.4326760000000 1.0
C      1  0.4856180000000  0.5409830000000  0.6118030000000 1.0
C      1  0.4696290000000  0.4635450000000  0.4640260000000 1.0
C      1  0.5330740000000  0.3674150000000  0.4698870000000 1.0
C      1  0.5172020000000  0.4971490000000  0.6251590000000 1.0
C      1  0.5140580000000  0.4270000000000  0.5886460000000 1.0
C      1  0.4516550000000  0.4087120000000  0.4905340000000 1.0
C      1  0.5479470000000  0.5141140000000  0.5931870000000 1.0
C      1  0.4510260000000  0.5904580000000  0.4440490000000 1.0
C      1  0.4515570000000  0.5193960000000  0.5645440000000 1.0
C      1  0.4338910000000  0.5976230000000  0.4659670000000 1.0
C      1  0.5815530000000  0.4650380000000  0.5111690000000 1.0
C      1  0.5572680000000  0.5627220000000  0.4714270000000 1.0
C      1  0.5108180000000  0.4414000000000  0.5358340000000 1.0
C      1  0.5016320000000  0.5769090000000  0.4362530000000 1.0
C      1  0.5745280000000  0.5085190000000  0.5867000000000 1.0
C      1  0.5329690000000  0.5375010000000  0.4249730000000 1.0
C      1  0.4109230000000  0.4382280000000  0.5108140000000 1.0
C      1  0.4502330000000  0.4700360000000  0.4808870000000 1.0
C      1  0.4557600000000  0.5913650000000  0.5288520000000 1.0
C      1  0.4051120000000  0.4842470000000  0.6044990000000 1.0
C      1  0.5908880000000  0.4429960000000  0.4509390000000 1.0
C      1  0.4274990000000  0.5302110000000  0.4958960000000 1.0
C      1  0.4828590000000  0.5177220000000  0.5224360000000 1.0
C      1  0.4282960000000  0.5578410000000  0.5564660000000 1.0
C      1  0.5255720000000  0.5584240000000  0.5061960000000 1.0
C      1  0.5635360000000  0.4238910000000  0.4062600000000 1.0
C      1  0.5598720000000  0.5765070000000  0.4259790000000 1.0
C      1  0.5598360000000  0.5475670000000  0.4252110000000 1.0
C      1  0.5754480000000  0.4644700000000  0.5640790000000 1.0
C      1  0.5862500000000  0.4866330000000  0.5769950000000 1.0
C      1  0.4233170000000  0.5775210000000  0.4834100000000 1.0
C      1  0.4536420000000  0.5197110000000  0.4250050000000 1.0
C      1  0.4637130000000  0.5146300000000  0.5417690000000 1.0
C      1  0.5101830000000  0.5549430000000  0.4182730000000 1.0
C      1  0.3975890000000  0.4625680000000  0.5019800000000 1.0
END
