TITL C-612605-9286-1116 2.16491989375766 125000 -445.703008020866 0 0 75 (C1) n - 1
REM
REM in /home/nfs/bkarasulu/CARBON/AIRSS/Generating-Clusters/TERSOFF/Only-C1/FIRE-HFTN
REM
REM
REM
REM
REM
REM ./C.cell (11c1c37f851c82e70ff6c80c92926a4b)
REM AIRSS Version 0.9.1 bugfix July 2018 build 013d7b7c2542+ Fri, 06 Jul 2018 19:26:36 +0100
REM compiler GCC version 9.2.1 20190827 (Red Hat 9.2.1-1)
REM options -cpp -mtune=generic -march=x86-64 -g -O0 -fpre-include=/usr/include/finclude/math-vector-fortran.h
REM seed 826242484 -847503778 977338521 -94176065 1189051026 1307024589 236967813 -1377864985 -71678222 -2026639897 -1132556462 718814639 1424921950 222617387 -948485970 -472498001 851342138 1968762921 901626126 333278237 -758528836 281678572 -963220632 1980661003 -278192185 1283775751 -800563788 1534790222 -1876428928 -536762915 1577279408 1638664822 2106928990
REM
CELL 1.54180   50.00000   50.00000   50.00000   90.00000   90.00000   90.00000
LATT -1
SFAC C  
C      1  0.5362730000000  0.4813640000000  0.4753290000000 1.0
C      1  0.5170160000000  0.4511150000000  0.5108640000000 1.0
C      1  0.5198170000000  0.5045080000000  0.5710340000000 1.0
C      1  0.4999490000000  0.4101730000000  0.5250590000000 1.0
C      1  0.5577270000000  0.4814260000000  0.5604010000000 1.0
C      1  0.5241970000000  0.5163800000000  0.5033530000000 1.0
C      1  0.4644280000000  0.5423470000000  0.4091840000000 1.0
C      1  0.4326840000000  0.5420910000000  0.4442600000000 1.0
C      1  0.4465660000000  0.5267100000000  0.4249070000000 1.0
C      1  0.4449610000000  0.5588630000000  0.4614610000000 1.0
C      1  0.5506240000000  0.4619040000000  0.4616220000000 1.0
C      1  0.5101580000000  0.5031580000000  0.5247650000000 1.0
C      1  0.4733990000000  0.4364270000000  0.4308750000000 1.0
C      1  0.4933790000000  0.4198710000000  0.5494480000000 1.0
C      1  0.4739090000000  0.5066940000000  0.5561850000000 1.0
C      1  0.5457850000000  0.4371670000000  0.4494540000000 1.0
C      1  0.4913430000000  0.5546190000000  0.4481880000000 1.0
C      1  0.4110810000000  0.4598920000000  0.5016500000000 1.0
C      1  0.6014230000000  0.3920140000000  0.4132330000000 1.0
C      1  0.4835760000000  0.5578250000000  0.4208320000000 1.0
C      1  0.5199670000000  0.4544000000000  0.3877820000000 1.0
C      1  0.4614320000000  0.4468950000000  0.5064980000000 1.0
C      1  0.4535740000000  0.5005650000000  0.4319640000000 1.0
C      1  0.5239720000000  0.4400930000000  0.5999290000000 1.0
C      1  0.5320790000000  0.5735510000000  0.5859090000000 1.0
C      1  0.4897360000000  0.6291400000000  0.5520800000000 1.0
C      1  0.5057100000000  0.6153110000000  0.5680890000000 1.0
C      1  0.4723050000000  0.5635510000000  0.4678680000000 1.0
C      1  0.5661050000000  0.5067560000000  0.5724060000000 1.0
C      1  0.5693850000000  0.4929230000000  0.5135710000000 1.0
C      1  0.5654580000000  0.4216140000000  0.4375880000000 1.0
C      1  0.4468230000000  0.5605070000000  0.5338550000000 1.0
C      1  0.4311060000000  0.4891660000000  0.5422340000000 1.0
C      1  0.5916120000000  0.5143230000000  0.5777960000000 1.0
C      1  0.4917810000000  0.4440860000000  0.5641730000000 1.0
C      1  0.4276330000000  0.6378590000000  0.4689510000000 1.0
C      1  0.4633190000000  0.4793720000000  0.4472290000000 1.0
C      1  0.4573780000000  0.6409470000000  0.5121560000000 1.0
C      1  0.4708230000000  0.4665610000000  0.4921830000000 1.0
C      1  0.4421320000000  0.6402700000000  0.4904830000000 1.0
C      1  0.5142960000000  0.5145610000000  0.4304990000000 1.0
C      1  0.5080070000000  0.4892910000000  0.4708960000000 1.0
C      1  0.6159040000000  0.5195110000000  0.5066290000000 1.0
C      1  0.5419440000000  0.5217050000000  0.5780020000000 1.0
C      1  0.4179110000000  0.4714160000000  0.5248390000000 1.0
C      1  0.5098050000000  0.5184600000000  0.4778440000000 1.0
C      1  0.5116470000000  0.4620510000000  0.4128800000000 1.0
C      1  0.5300110000000  0.4767190000000  0.5695400000000 1.0
C      1  0.4774820000000  0.5714930000000  0.4941650000000 1.0
C      1  0.4813490000000  0.4794600000000  0.4695480000000 1.0
C      1  0.5136950000000  0.4897280000000  0.4197110000000 1.0
C      1  0.5182810000000  0.4294250000000  0.4504060000000 1.0
C      1  0.4148130000000  0.4503330000000  0.4768960000000 1.0
C      1  0.5934660000000  0.5065800000000  0.5095230000000 1.0
C      1  0.5397220000000  0.5481720000000  0.5856330000000 1.0
C      1  0.5096470000000  0.4191880000000  0.4754740000000 1.0
C      1  0.5010730000000  0.5106480000000  0.5506530000000 1.0
C      1  0.4294700000000  0.5416100000000  0.5410280000000 1.0
C      1  0.5099590000000  0.4249250000000  0.5031360000000 1.0
C      1  0.5079840000000  0.5319840000000  0.4528410000000 1.0
C      1  0.4295690000000  0.4459370000000  0.4549130000000 1.0
C      1  0.5678790000000  0.4736850000000  0.5350020000000 1.0
C      1  0.5202650000000  0.5964780000000  0.5797650000000 1.0
C      1  0.4733760000000  0.6376110000000  0.5330220000000 1.0
C      1  0.5013670000000  0.4412690000000  0.4304390000000 1.0
C      1  0.5474810000000  0.4984050000000  0.4964830000000 1.0
C      1  0.4223520000000  0.5160010000000  0.5432680000000 1.0
C      1  0.4682730000000  0.4598500000000  0.5623120000000 1.0
C      1  0.4660510000000  0.5703940000000  0.5182820000000 1.0
C      1  0.5107190000000  0.4748090000000  0.5212290000000 1.0
C      1  0.4564750000000  0.4843270000000  0.5546490000000 1.0
C      1  0.5767600000000  0.4480840000000  0.5309490000000 1.0
C      1  0.5153920000000  0.4537860000000  0.5776870000000 1.0
C      1  0.5836270000000  0.4066990000000  0.4253690000000 1.0
C      1  0.4533260000000  0.4529680000000  0.4416390000000 1.0
END
