TITL C-612600-6631-1474 1.52441118873249 125000 -388.962713821614 0 0 66 (C1) n - 1
REM
REM in /home/nfs/bkarasulu/CARBON/AIRSS/Generating-Clusters/TERSOFF/Only-C1/FIRE-HFTN
REM
REM
REM
REM
REM
REM ./C.cell (11c1c37f851c82e70ff6c80c92926a4b)
REM AIRSS Version 0.9.1 bugfix July 2018 build 013d7b7c2542+ Fri, 06 Jul 2018 19:26:36 +0100
REM compiler GCC version 9.2.1 20190827 (Red Hat 9.2.1-1)
REM options -cpp -mtune=generic -march=x86-64 -g -O0 -fpre-include=/usr/include/finclude/math-vector-fortran.h
REM seed -1458958435 -1196170709 -718512278 2050690379 1545828943 -696845505 1578646646 26197257 794447457 654194568 -1190851698 -477017570 -1536150462 -809751696 -1847098563 548197688 -955389141 620789803 -231426620 591440569 -2029760871 -175299460 650306726 818769919 -1269651985 1447332560 557028516 -1877640914 1083230289 1088557471 1792956276 1811993469 1651013354
REM
CELL 1.54180   50.00000   50.00000   50.00000   90.00000   90.00000   90.00000
LATT -1
SFAC C  
C      1  0.6617660000000  0.4579530000000  0.6492780000000 1.0
C      1  0.4248490000000  0.4803220000000  0.4957860000000 1.0
C      1  0.5343960000000  0.4948720000000  0.5439050000000 1.0
C      1  0.4652600000000  0.5389330000000  0.5303130000000 1.0
C      1  0.4252860000000  0.4821640000000  0.5240450000000 1.0
C      1  0.4837840000000  0.5904220000000  0.4474250000000 1.0
C      1  0.5991840000000  0.4741130000000  0.6012750000000 1.0
C      1  0.4910790000000  0.4427210000000  0.5542100000000 1.0
C      1  0.4905690000000  0.4864990000000  0.5761280000000 1.0
C      1  0.6415000000000  0.4631820000000  0.6337350000000 1.0
C      1  0.4780730000000  0.4460310000000  0.3184220000000 1.0
C      1  0.4323190000000  0.5554000000000  0.4509830000000 1.0
C      1  0.5160320000000  0.5064290000000  0.4896060000000 1.0
C      1  0.4742720000000  0.5470780000000  0.4232140000000 1.0
C      1  0.4655580000000  0.4690490000000  0.4731720000000 1.0
C      1  0.5090420000000  0.5531610000000  0.5001440000000 1.0
C      1  0.6036560000000  0.4999230000000  0.5536480000000 1.0
C      1  0.4998940000000  0.4253910000000  0.5729310000000 1.0
C      1  0.5193300000000  0.5344080000000  0.4193220000000 1.0
C      1  0.4851060000000  0.5080810000000  0.3933930000000 1.0
C      1  0.5117520000000  0.4824490000000  0.5328720000000 1.0
C      1  0.4722760000000  0.4834990000000  0.3482670000000 1.0
C      1  0.5476930000000  0.4612300000000  0.6129510000000 1.0
C      1  0.4473150000000  0.5488740000000  0.4299020000000 1.0
C      1  0.5212490000000  0.4560560000000  0.6056960000000 1.0
C      1  0.4285460000000  0.4366020000000  0.4736500000000 1.0
C      1  0.5513770000000  0.5266320000000  0.5824790000000 1.0
C      1  0.4914010000000  0.5695760000000  0.4297690000000 1.0
C      1  0.4656140000000  0.4703130000000  0.3245270000000 1.0
C      1  0.5139270000000  0.5728910000000  0.4802430000000 1.0
C      1  0.4183430000000  0.5115260000000  0.5624800000000 1.0
C      1  0.4290350000000  0.5518140000000  0.4772320000000 1.0
C      1  0.4856710000000  0.4692650000000  0.4930070000000 1.0
C      1  0.4912520000000  0.5213900000000  0.4188480000000 1.0
C      1  0.4198060000000  0.5055860000000  0.4841340000000 1.0
C      1  0.4938360000000  0.5916730000000  0.4727550000000 1.0
C      1  0.4293180000000  0.5302510000000  0.4948400000000 1.0
C      1  0.5034720000000  0.4772040000000  0.5994330000000 1.0
C      1  0.6036180000000  0.4861510000000  0.5763700000000 1.0
C      1  0.4903850000000  0.5027190000000  0.4425640000000 1.0
C      1  0.5951430000000  0.5142670000000  0.5329270000000 1.0
C      1  0.5133970000000  0.4307290000000  0.5957160000000 1.0
C      1  0.4787270000000  0.4958250000000  0.3708070000000 1.0
C      1  0.4897770000000  0.4234120000000  0.3128870000000 1.0
C      1  0.4845520000000  0.5513540000000  0.5140220000000 1.0
C      1  0.6209050000000  0.4684960000000  0.6179380000000 1.0
C      1  0.5536110000000  0.5325460000000  0.5072410000000 1.0
C      1  0.5106850000000  0.5057940000000  0.4620350000000 1.0
C      1  0.4800250000000  0.5122110000000  0.5732080000000 1.0
C      1  0.4945530000000  0.4706250000000  0.5522630000000 1.0
C      1  0.4403620000000  0.5280920000000  0.5212420000000 1.0
C      1  0.5265880000000  0.5305410000000  0.5003680000000 1.0
C      1  0.5732620000000  0.4676530000000  0.6097070000000 1.0
C      1  0.5052010000000  0.4852530000000  0.5055420000000 1.0
C      1  0.4471210000000  0.4810450000000  0.3074680000000 1.0
C      1  0.5775480000000  0.5262320000000  0.5169500000000 1.0
C      1  0.4283250000000  0.5071130000000  0.5374630000000 1.0
C      1  0.5191970000000  0.5600600000000  0.4324200000000 1.0
C      1  0.5455890000000  0.5099610000000  0.5626910000000 1.0
C      1  0.5305540000000  0.5659420000000  0.4577350000000 1.0
C      1  0.4709940000000  0.4833010000000  0.4492300000000 1.0
C      1  0.4392680000000  0.4612650000000  0.4806880000000 1.0
C      1  0.4184470000000  0.4130380000000  0.4669690000000 1.0
C      1  0.4085280000000  0.3898430000000  0.4603970000000 1.0
C      1  0.5577070000000  0.5418310000000  0.6026860000000 1.0
C      1  0.4730920000000  0.5317390000000  0.5564490000000 1.0
END
