TITL C-612607-4507-1185 -14577.4236875623 125000 -1202.15343640635 0 0 196 (C1) n - 1
REM
REM in /home/nfs/bkarasulu/CARBON/AIRSS/Generating-Clusters/TERSOFF/Only-C1/FIRE-HFTN
REM
REM
REM
REM
REM
REM ./C.cell (11c1c37f851c82e70ff6c80c92926a4b)
REM AIRSS Version 0.9.1 bugfix July 2018 build 013d7b7c2542+ Fri, 06 Jul 2018 19:26:36 +0100
REM compiler GCC version 9.2.1 20190827 (Red Hat 9.2.1-1)
REM options -cpp -mtune=generic -march=x86-64 -g -O0 -fpre-include=/usr/include/finclude/math-vector-fortran.h
REM seed -1269196741 -981540008 -905663183 -1003946506 -1839259313 -22238239 502933978 794387176 -490704181 554829998 1125800932 300526319 1537603742 1051884438 1372508902 110571293 -236762809 290418101 1936714357 1214027036 -1504555521 1740847308 -1449356281 -1315649723 -1716798789 -324478170 -1629141987 -1477792189 -1254511294 -1164414631 2139792992 -1219819226 1651626971
REM
CELL 1.54180   50.00000   50.00000   50.00000   90.00000   90.00000   90.00000
LATT -1
SFAC C  
C      1  0.3659120000000  0.4783490000000  0.5021190000000 1.0
C      1  0.5379570000000  0.5225030000000  0.3832550000000 1.0
C      1  0.4464640000000  0.4909880000000  0.4437750000000 1.0
C      1  0.5588560000000  0.5610100000000  0.4581920000000 1.0
C      1  0.5897300000000  0.4808690000000  0.5668290000000 1.0
C      1  0.4914290000000  0.4245390000000  0.5320690000000 1.0
C      1  0.5061440000000  0.5051410000000  0.4826070000000 1.0
C      1  0.5254500000000  0.5829110000000  0.5970680000000 1.0
C      1  0.4295760000000  0.4897750000000  0.5581270000000 1.0
C      1  0.4322010000000  0.5607950000000  0.4169330000000 1.0
C      1  0.5875770000000  0.4546580000000  0.5788170000000 1.0
C      1  0.5571860000000  0.4180340000000  0.4320950000000 1.0
C      1  0.4483180000000  0.5050500000000  0.4872120000000 1.0
C      1  0.3986060000000  0.5630550000000  0.4900920000000 1.0
C      1  0.5797110000000  0.5068220000000  0.3994760000000 1.0
C      1  0.4701730000000  0.4228290000000  0.5136670000000 1.0
C      1  0.5072170000000  0.4170510000000  0.5771610000000 1.0
C      1  0.4826660000000  0.6457590000000  0.5283590000000 1.0
C      1  0.4456770000000  0.4924910000000  0.3953650000000 1.0
C      1  0.4968900000000  0.4956770000000  0.3840490000000 1.0
C      1  0.6253080000000  0.4902090000000  0.5191890000000 1.0
C      1  0.5255390000000  0.4499590000000  0.5009910000000 1.0
C      1  0.4816850000000  0.5528400000000  0.5479820000000 1.0
C      1  0.5468260000000  0.5375610000000  0.5198140000000 1.0
C      1  0.6150750000000  0.6063660000000  0.5598570000000 1.0
C      1  0.4930660000000  0.5239370000000  0.3891590000000 1.0
C      1  0.4210950000000  0.4023740000000  0.5254360000000 1.0
C      1  0.4724430000000  0.4804030000000  0.3899540000000 1.0
C      1  0.4103060000000  0.5570510000000  0.4369140000000 1.0
C      1  0.3839850000000  0.5103730000000  0.5320720000000 1.0
C      1  0.5114520000000  0.3817610000000  0.4872090000000 1.0
C      1  0.3617240000000  0.4851730000000  0.4767060000000 1.0
C      1  0.5431490000000  0.5932680000000  0.5225320000000 1.0
C      1  0.5621880000000  0.5291040000000  0.3971090000000 1.0
C      1  0.4220320000000  0.5134530000000  0.5703810000000 1.0
C      1  0.4050000000000  0.5661600000000  0.4637820000000 1.0
C      1  0.4124190000000  0.4455390000000  0.5537720000000 1.0
C      1  0.5770020000000  0.4307040000000  0.5864260000000 1.0
C      1  0.5129860000000  0.6324730000000  0.4609850000000 1.0
C      1  0.4592490000000  0.5629710000000  0.5642130000000 1.0
C      1  0.4488040000000  0.5297950000000  0.4712620000000 1.0
C      1  0.4645840000000  0.3966170000000  0.5046170000000 1.0
C      1  0.5090990000000  0.4343820000000  0.5995750000000 1.0
C      1  0.4998940000000  0.5172860000000  0.5075710000000 1.0
C      1  0.3840870000000  0.4218820000000  0.5021040000000 1.0
C      1  0.5755050000000  0.4680980000000  0.4833500000000 1.0
C      1  0.4442750000000  0.5855410000000  0.5179380000000 1.0
C      1  0.5570730000000  0.4120160000000  0.5841630000000 1.0
C      1  0.4502560000000  0.6096560000000  0.4675280000000 1.0
C      1  0.5137520000000  0.5654770000000  0.4016000000000 1.0
C      1  0.5481300000000  0.5373250000000  0.4689690000000 1.0
C      1  0.5174590000000  0.4317300000000  0.5249400000000 1.0
C      1  0.5231960000000  0.4574360000000  0.6084170000000 1.0
C      1  0.5274670000000  0.4941880000000  0.3817880000000 1.0
C      1  0.4732220000000  0.4762170000000  0.5828840000000 1.0
C      1  0.5342970000000  0.5298600000000  0.5456080000000 1.0
C      1  0.5960410000000  0.3595570000000  0.4202160000000 1.0
C      1  0.6101430000000  0.5324260000000  0.5003390000000 1.0
C      1  0.6090350000000  0.5464560000000  0.4756880000000 1.0
C      1  0.4584410000000  0.4677800000000  0.5242610000000 1.0
C      1  0.5862850000000  0.3774920000000  0.4962750000000 1.0
C      1  0.5350230000000  0.4943050000000  0.4832020000000 1.0
C      1  0.5793870000000  0.3713490000000  0.5433110000000 1.0
C      1  0.5414610000000  0.4464920000000  0.3956170000000 1.0
C      1  0.5428550000000  0.6039530000000  0.5509700000000 1.0
C      1  0.5490820000000  0.4720900000000  0.4998910000000 1.0
C      1  0.5933520000000  0.3542410000000  0.3948360000000 1.0
C      1  0.5487430000000  0.5226460000000  0.4935330000000 1.0
C      1  0.4527230000000  0.4405650000000  0.4145400000000 1.0
C      1  0.5547440000000  0.5652270000000  0.5200320000000 1.0
C      1  0.5757990000000  0.4485390000000  0.4630600000000 1.0
C      1  0.4869170000000  0.3796120000000  0.5015140000000 1.0
C      1  0.5335420000000  0.4085520000000  0.5672410000000 1.0
C      1  0.6053100000000  0.4950090000000  0.4548530000000 1.0
C      1  0.5142860000000  0.5891550000000  0.5126590000000 1.0
C      1  0.5070490000000  0.5386740000000  0.5557230000000 1.0
C      1  0.4354010000000  0.5058380000000  0.5115480000000 1.0
C      1  0.5969710000000  0.3653090000000  0.4460750000000 1.0
C      1  0.4548320000000  0.5186780000000  0.4458230000000 1.0
C      1  0.4844410000000  0.4193630000000  0.5591910000000 1.0
C      1  0.5361480000000  0.5754510000000  0.4468250000000 1.0
C      1  0.4750190000000  0.4014260000000  0.4307960000000 1.0
C      1  0.4570110000000  0.4271430000000  0.5640180000000 1.0
C      1  0.3843400000000  0.4364610000000  0.4388630000000 1.0
C      1  0.5426200000000  0.5012510000000  0.5885360000000 1.0
C      1  0.4851980000000  0.5639430000000  0.4120990000000 1.0
C      1  0.5402290000000  0.4186220000000  0.5390480000000 1.0
C      1  0.5075680000000  0.3819480000000  0.4592140000000 1.0
C      1  0.4931760000000  0.4993020000000  0.5307100000000 1.0
C      1  0.5543830000000  0.4434130000000  0.5469810000000 1.0
C      1  0.5629860000000  0.5968770000000  0.5698450000000 1.0
C      1  0.4808840000000  0.5257330000000  0.6218570000000 1.0
C      1  0.5605640000000  0.4825270000000  0.5255350000000 1.0
C      1  0.4827090000000  0.4570880000000  0.4744180000000 1.0
C      1  0.5185370000000  0.6161870000000  0.5610640000000 1.0
C      1  0.4978940000000  0.5213840000000  0.5771470000000 1.0
C      1  0.4624720000000  0.5048720000000  0.6230680000000 1.0
C      1  0.4816280000000  0.6017070000000  0.5904770000000 1.0
C      1  0.5534480000000  0.6339250000000  0.4889620000000 1.0
C      1  0.5899890000000  0.6013050000000  0.5647730000000 1.0
C      1  0.5036550000000  0.6073130000000  0.4599320000000 1.0
C      1  0.4115040000000  0.4359660000000  0.4371640000000 1.0
C      1  0.5167140000000  0.4662580000000  0.4357840000000 1.0
C      1  0.5001210000000  0.6258260000000  0.5412700000000 1.0
C      1  0.4372590000000  0.5082380000000  0.6344240000000 1.0
C      1  0.5625590000000  0.5531840000000  0.4132500000000 1.0
C      1  0.5828960000000  0.4556490000000  0.4129870000000 1.0
C      1  0.5370630000000  0.5693650000000  0.4179600000000 1.0
C      1  0.5692200000000  0.4933590000000  0.5500380000000 1.0
C      1  0.4982060000000  0.4634830000000  0.4972920000000 1.0
C      1  0.5642510000000  0.4331990000000  0.4081720000000 1.0
C      1  0.4828670000000  0.5348750000000  0.4130570000000 1.0
C      1  0.6090700000000  0.5168170000000  0.4396120000000 1.0
C      1  0.4955370000000  0.4053380000000  0.4487350000000 1.0
C      1  0.4584260000000  0.5742730000000  0.4166720000000 1.0
C      1  0.5470350000000  0.4732550000000  0.3860970000000 1.0
C      1  0.4564720000000  0.4805060000000  0.4697740000000 1.0
C      1  0.4986200000000  0.5458210000000  0.5039900000000 1.0
C      1  0.4316740000000  0.5601430000000  0.5560920000000 1.0
C      1  0.5337210000000  0.4798240000000  0.4542260000000 1.0
C      1  0.5710830000000  0.5782100000000  0.6148210000000 1.0
C      1  0.4271370000000  0.4456200000000  0.4956940000000 1.0
C      1  0.4514570000000  0.5574660000000  0.4784930000000 1.0
C      1  0.3908830000000  0.4597160000000  0.5404610000000 1.0
C      1  0.5417500000000  0.4602760000000  0.5642620000000 1.0
C      1  0.5961460000000  0.4885500000000  0.4809460000000 1.0
C      1  0.5571480000000  0.6131220000000  0.5053280000000 1.0
C      1  0.5162540000000  0.5413930000000  0.3839170000000 1.0
C      1  0.4364960000000  0.3947610000000  0.5005810000000 1.0
C      1  0.5790000000000  0.5552930000000  0.4379300000000 1.0
C      1  0.5348620000000  0.6433530000000  0.4721100000000 1.0
C      1  0.4299950000000  0.4205900000000  0.5482680000000 1.0
C      1  0.4637750000000  0.6053590000000  0.5203280000000 1.0
C      1  0.4740990000000  0.4592720000000  0.4099440000000 1.0
C      1  0.5228250000000  0.4466810000000  0.4162730000000 1.0
C      1  0.4286160000000  0.4641550000000  0.5693170000000 1.0
C      1  0.6021260000000  0.5426920000000  0.4482930000000 1.0
C      1  0.4300660000000  0.5421470000000  0.3950650000000 1.0
C      1  0.6117080000000  0.4960590000000  0.5735660000000 1.0
C      1  0.4767970000000  0.5526850000000  0.5202110000000 1.0
C      1  0.4641680000000  0.5827320000000  0.5835420000000 1.0
C      1  0.4873520000000  0.4970280000000  0.5659440000000 1.0
C      1  0.5536830000000  0.5856680000000  0.5944150000000 1.0
C      1  0.5321800000000  0.4003600000000  0.4945240000000 1.0
C      1  0.3764870000000  0.5159540000000  0.4370740000000 1.0
C      1  0.4703620000000  0.4801100000000  0.6116220000000 1.0
C      1  0.6093380000000  0.5035960000000  0.5013460000000 1.0
C      1  0.5918430000000  0.4541770000000  0.4397950000000 1.0
C      1  0.3797800000000  0.4825530000000  0.5263490000000 1.0
C      1  0.5941250000000  0.3715040000000  0.4716850000000 1.0
C      1  0.4510630000000  0.5826020000000  0.4644450000000 1.0
C      1  0.5090980000000  0.6036520000000  0.5852990000000 1.0
C      1  0.5498610000000  0.5111690000000  0.5623980000000 1.0
C      1  0.4224240000000  0.5754040000000  0.5327930000000 1.0
C      1  0.5279940000000  0.5278930000000  0.4505150000000 1.0
C      1  0.5545610000000  0.4295010000000  0.4587450000000 1.0
C      1  0.5275600000000  0.4622220000000  0.6349500000000 1.0
C      1  0.6126770000000  0.5466130000000  0.5236810000000 1.0
C      1  0.4509260000000  0.4442020000000  0.5107780000000 1.0
C      1  0.4339220000000  0.4816540000000  0.4202070000000 1.0
C      1  0.4538440000000  0.6315540000000  0.4835160000000 1.0
C      1  0.5737180000000  0.4792170000000  0.3981260000000 1.0
C      1  0.4624940000000  0.6330960000000  0.5105920000000 1.0
C      1  0.4549790000000  0.4545520000000  0.5747110000000 1.0
C      1  0.4359060000000  0.5173520000000  0.3865770000000 1.0
C      1  0.5005660000000  0.4294370000000  0.4631130000000 1.0
C      1  0.5102880000000  0.5697330000000  0.4914230000000 1.0
C      1  0.5877150000000  0.5710520000000  0.6335630000000 1.0
C      1  0.5489880000000  0.3992960000000  0.5179590000000 1.0
C      1  0.5303040000000  0.4275820000000  0.4783020000000 1.0
C      1  0.4924110000000  0.6018370000000  0.5255390000000 1.0
C      1  0.4811350000000  0.5231310000000  0.4379840000000 1.0
C      1  0.5348910000000  0.4736410000000  0.5881030000000 1.0
C      1  0.4516530000000  0.4156190000000  0.4287820000000 1.0
C      1  0.3917300000000  0.5365330000000  0.4297370000000 1.0
C      1  0.4284350000000  0.3999330000000  0.4726170000000 1.0
C      1  0.5020780000000  0.5180440000000  0.4564350000000 1.0
C      1  0.3964130000000  0.5356780000000  0.5354250000000 1.0
C      1  0.4018160000000  0.5593020000000  0.5182360000000 1.0
C      1  0.5717930000000  0.3827410000000  0.5196470000000 1.0
C      1  0.3659150000000  0.4983050000000  0.4539460000000 1.0
C      1  0.4984810000000  0.5348030000000  0.6023680000000 1.0
C      1  0.4852200000000  0.4748220000000  0.5198620000000 1.0
C      1  0.4554480000000  0.5623880000000  0.5058790000000 1.0
C      1  0.5491250000000  0.5143930000000  0.6115500000000 1.0
C      1  0.4010670000000  0.4403430000000  0.4917890000000 1.0
C      1  0.4130350000000  0.5109480000000  0.6436420000000 1.0
C      1  0.4704680000000  0.4582210000000  0.6283310000000 1.0
C      1  0.4147060000000  0.5374020000000  0.5583910000000 1.0
C      1  0.4406910000000  0.4885290000000  0.5322430000000 1.0
C      1  0.5135830000000  0.5585790000000  0.6052600000000 1.0
C      1  0.4271830000000  0.4539460000000  0.4208120000000 1.0
C      1  0.5147180000000  0.5816770000000  0.4647760000000 1.0
C      1  0.4288500000000  0.4141450000000  0.4473500000000 1.0
C      1  0.3928630000000  0.4033710000000  0.5200270000000 1.0
C      1  0.4889610000000  0.4687470000000  0.4322460000000 1.0
END
