TITL C-612604-1799-811 -42038.4642602423 125000 -1106.76312850205 0 0 181 (C1) n - 1
REM
REM in /home/nfs/bkarasulu/CARBON/AIRSS/Generating-Clusters/TERSOFF/Only-C1/FIRE-HFTN
REM
REM
REM
REM
REM
REM ./C.cell (11c1c37f851c82e70ff6c80c92926a4b)
REM AIRSS Version 0.9.1 bugfix July 2018 build 013d7b7c2542+ Fri, 06 Jul 2018 19:26:36 +0100
REM compiler GCC version 9.2.1 20190827 (Red Hat 9.2.1-1)
REM options -cpp -mtune=generic -march=x86-64 -g -O0 -fpre-include=/usr/include/finclude/math-vector-fortran.h
REM seed -63283874 -526947763 -276516099 2096075231 885958146 -1172789613 1978609187 114443785 -1454227394 1630898273 -1201989055 1344335297 -1935130073 -1133390440 -449038354 -561575532 548051844 -32389726 -414101716 669030262 -1980578235 -1848354455 -720701457 -1153206202 759409962 -2096170509 233764843 1871632617 -1865112942 1468869770 -587815670 -1240135187 284939863
REM
CELL 1.54180   50.00000   50.00000   50.00000   90.00000   90.00000   90.00000
LATT -1
SFAC C  
C      1  0.6000830000000  0.5325650000000  0.4324610000000 1.0
C      1  0.4440890000000  0.4750320000000  0.6005150000000 1.0
C      1  0.4558050000000  0.5237890000000  0.5855520000000 1.0
C      1  0.5170330000000  0.5899260000000  0.4215630000000 1.0
C      1  0.5453390000000  0.4738870000000  0.5662460000000 1.0
C      1  0.4752300000000  0.3997700000000  0.5580900000000 1.0
C      1  0.5144330000000  0.5704680000000  0.5262340000000 1.0
C      1  0.4878020000000  0.5826200000000  0.5737840000000 1.0
C      1  0.4803790000000  0.4425150000000  0.4990770000000 1.0
C      1  0.4720380000000  0.4352620000000  0.4147440000000 1.0
C      1  0.4460060000000  0.5488630000000  0.4536520000000 1.0
C      1  0.4384570000000  0.4676600000000  0.4936830000000 1.0
C      1  0.5920070000000  0.4656930000000  0.4346280000000 1.0
C      1  0.5973180000000  0.4432380000000  0.5384680000000 1.0
C      1  0.3990480000000  0.4455100000000  0.5122970000000 1.0
C      1  0.6091100000000  0.4695420000000  0.5471740000000 1.0
C      1  0.5217340000000  0.4228560000000  0.5124250000000 1.0
C      1  0.5820420000000  0.5120240000000  0.4412500000000 1.0
C      1  0.5790750000000  0.4576260000000  0.4125530000000 1.0
C      1  0.4735750000000  0.6093360000000  0.4410290000000 1.0
C      1  0.4982900000000  0.5013090000000  0.3811850000000 1.0
C      1  0.4936230000000  0.5319660000000  0.5193740000000 1.0
C      1  0.4207520000000  0.4572650000000  0.5930570000000 1.0
C      1  0.5640680000000  0.4239730000000  0.4845070000000 1.0
C      1  0.6019300000000  0.4420450000000  0.5088460000000 1.0
C      1  0.4781580000000  0.5796600000000  0.3979200000000 1.0
C      1  0.4886810000000  0.4726280000000  0.5615970000000 1.0
C      1  0.4740460000000  0.5982120000000  0.5926410000000 1.0
C      1  0.5130990000000  0.4954130000000  0.4336490000000 1.0
C      1  0.4482950000000  0.4394000000000  0.5624020000000 1.0
C      1  0.4987440000000  0.5655630000000  0.4682520000000 1.0
C      1  0.3918880000000  0.5486890000000  0.5032260000000 1.0
C      1  0.4798880000000  0.4912690000000  0.5426380000000 1.0
C      1  0.5917600000000  0.5268770000000  0.5456370000000 1.0
C      1  0.5310030000000  0.3956940000000  0.5179940000000 1.0
C      1  0.6238070000000  0.5351990000000  0.4481140000000 1.0
C      1  0.5161550000000  0.5872400000000  0.5716220000000 1.0
C      1  0.5735580000000  0.4383290000000  0.5554680000000 1.0
C      1  0.5336030000000  0.5911180000000  0.4879010000000 1.0
C      1  0.4636080000000  0.4583770000000  0.3971270000000 1.0
C      1  0.4279090000000  0.4501340000000  0.5135820000000 1.0
C      1  0.5908870000000  0.5533190000000  0.4160720000000 1.0
C      1  0.5697130000000  0.6475990000000  0.4816780000000 1.0
C      1  0.4970350000000  0.5055210000000  0.4815310000000 1.0
C      1  0.4919720000000  0.5295080000000  0.3827500000000 1.0
C      1  0.4331560000000  0.5413130000000  0.5875530000000 1.0
C      1  0.5044170000000  0.4311410000000  0.4892950000000 1.0
C      1  0.3693040000000  0.5645310000000  0.5096840000000 1.0
C      1  0.5856020000000  0.5094260000000  0.5689270000000 1.0
C      1  0.4945110000000  0.5484700000000  0.4465640000000 1.0
C      1  0.3707870000000  0.5791780000000  0.5336260000000 1.0
C      1  0.4086370000000  0.4701010000000  0.5502340000000 1.0
C      1  0.4240250000000  0.5644520000000  0.5761240000000 1.0
C      1  0.5174220000000  0.5051670000000  0.5784560000000 1.0
C      1  0.5319100000000  0.4655940000000  0.4656280000000 1.0
C      1  0.4638030000000  0.4968590000000  0.5946490000000 1.0
C      1  0.5795760000000  0.5791790000000  0.5332950000000 1.0
C      1  0.4399250000000  0.4595390000000  0.3835560000000 1.0
C      1  0.3923570000000  0.5276900000000  0.4841900000000 1.0
C      1  0.5225370000000  0.4369170000000  0.4676350000000 1.0
C      1  0.4846720000000  0.4827680000000  0.5174370000000 1.0
C      1  0.5128160000000  0.3890810000000  0.4748280000000 1.0
C      1  0.5342250000000  0.4676410000000  0.3856990000000 1.0
C      1  0.4957710000000  0.5569560000000  0.3913060000000 1.0
C      1  0.5331120000000  0.5903330000000  0.5164700000000 1.0
C      1  0.4521520000000  0.5642890000000  0.4764610000000 1.0
C      1  0.3826040000000  0.4901100000000  0.5133990000000 1.0
C      1  0.4866780000000  0.4744300000000  0.3888560000000 1.0
C      1  0.3825150000000  0.4266170000000  0.5008930000000 1.0
C      1  0.5277950000000  0.5147230000000  0.5463470000000 1.0
C      1  0.5125940000000  0.4376730000000  0.5941410000000 1.0
C      1  0.5595010000000  0.4596860000000  0.3944260000000 1.0
C      1  0.5347730000000  0.4977530000000  0.5224060000000 1.0
C      1  0.3893950000000  0.4677080000000  0.5285920000000 1.0
C      1  0.4827570000000  0.4348790000000  0.5277640000000 1.0
C      1  0.4357200000000  0.4019560000000  0.4768640000000 1.0
C      1  0.5703360000000  0.4639680000000  0.5690400000000 1.0
C      1  0.4322640000000  0.5999240000000  0.5386110000000 1.0
C      1  0.4416140000000  0.6096700000000  0.5149400000000 1.0
C      1  0.4840100000000  0.4907870000000  0.4391380000000 1.0
C      1  0.4195440000000  0.4569220000000  0.4327010000000 1.0
C      1  0.5173260000000  0.5430120000000  0.4306080000000 1.0
C      1  0.5514970000000  0.5551380000000  0.5588680000000 1.0
C      1  0.4726240000000  0.5625020000000  0.5597530000000 1.0
C      1  0.4875050000000  0.5614490000000  0.5159930000000 1.0
C      1  0.5144540000000  0.4089050000000  0.4112060000000 1.0
C      1  0.5143150000000  0.4752140000000  0.5119820000000 1.0
C      1  0.4280080000000  0.4953350000000  0.4955970000000 1.0
C      1  0.4390990000000  0.3960170000000  0.5055540000000 1.0
C      1  0.5389520000000  0.6098870000000  0.4669340000000 1.0
C      1  0.6147970000000  0.4854030000000  0.5245020000000 1.0
C      1  0.4856380000000  0.4284930000000  0.5966820000000 1.0
C      1  0.5300940000000  0.5189580000000  0.4360690000000 1.0
C      1  0.5949370000000  0.3936520000000  0.5068880000000 1.0
C      1  0.4149710000000  0.4095410000000  0.5574540000000 1.0
C      1  0.4983770000000  0.4476210000000  0.5503480000000 1.0
C      1  0.4732770000000  0.5008790000000  0.4974700000000 1.0
C      1  0.4016710000000  0.4724680000000  0.5775310000000 1.0
C      1  0.6276730000000  0.5303640000000  0.4747060000000 1.0
C      1  0.5559750000000  0.5242590000000  0.4809920000000 1.0
C      1  0.5394030000000  0.5033100000000  0.5971490000000 1.0
C      1  0.5377880000000  0.5999670000000  0.4382100000000 1.0
C      1  0.3991150000000  0.5326900000000  0.4575290000000 1.0
C      1  0.4513140000000  0.6151090000000  0.4900780000000 1.0
C      1  0.5572040000000  0.4491380000000  0.4992380000000 1.0
C      1  0.4741560000000  0.5346030000000  0.5662210000000 1.0
C      1  0.5095060000000  0.5259380000000  0.4962680000000 1.0
C      1  0.3473340000000  0.5657590000000  0.4935400000000 1.0
C      1  0.5183490000000  0.5623170000000  0.4100180000000 1.0
C      1  0.5907130000000  0.4189240000000  0.4950340000000 1.0
C      1  0.5251440000000  0.5660490000000  0.4779340000000 1.0
C      1  0.4167800000000  0.4161470000000  0.4606970000000 1.0
C      1  0.4289950000000  0.4317250000000  0.4400530000000 1.0
C      1  0.5295700000000  0.4729550000000  0.4378810000000 1.0
C      1  0.5428570000000  0.5834010000000  0.5621120000000 1.0
C      1  0.4881900000000  0.5973280000000  0.4196600000000 1.0
C      1  0.4696710000000  0.5374630000000  0.4413010000000 1.0
C      1  0.5266280000000  0.4941090000000  0.3765270000000 1.0
C      1  0.4348480000000  0.4563270000000  0.5417260000000 1.0
C      1  0.6053720000000  0.5188540000000  0.4923040000000 1.0
C      1  0.5228700000000  0.3772790000000  0.4979290000000 1.0
C      1  0.5886590000000  0.5645090000000  0.4827280000000 1.0
C      1  0.4233860000000  0.3998480000000  0.5315720000000 1.0
C      1  0.4685410000000  0.3931940000000  0.5078150000000 1.0
C      1  0.4159520000000  0.5502360000000  0.5176890000000 1.0
C      1  0.3809310000000  0.4866190000000  0.5878280000000 1.0
C      1  0.4571410000000  0.4227450000000  0.4363200000000 1.0
C      1  0.4623230000000  0.6095130000000  0.6129940000000 1.0
C      1  0.5368390000000  0.4824710000000  0.6171940000000 1.0
C      1  0.5664190000000  0.5961110000000  0.4318450000000 1.0
C      1  0.6094520000000  0.4694900000000  0.4997820000000 1.0
C      1  0.4001820000000  0.5027700000000  0.4953710000000 1.0
C      1  0.4161230000000  0.5848840000000  0.5573360000000 1.0
C      1  0.5554170000000  0.5181940000000  0.4506190000000 1.0
C      1  0.4686550000000  0.4220750000000  0.5746670000000 1.0
C      1  0.5000990000000  0.4316520000000  0.4071900000000 1.0
C      1  0.4220210000000  0.4833390000000  0.4303330000000 1.0
C      1  0.5094340000000  0.4547860000000  0.3927960000000 1.0
C      1  0.4784570000000  0.4061460000000  0.5309010000000 1.0
C      1  0.5952060000000  0.5870720000000  0.4699760000000 1.0
C      1  0.4783160000000  0.5678430000000  0.4877150000000 1.0
C      1  0.5818460000000  0.6063820000000  0.4545520000000 1.0
C      1  0.5398370000000  0.4141150000000  0.4686680000000 1.0
C      1  0.5348100000000  0.4477330000000  0.5164200000000 1.0
C      1  0.5541160000000  0.5944270000000  0.5360530000000 1.0
C      1  0.4617970000000  0.4039960000000  0.4603550000000 1.0
C      1  0.6066250000000  0.5135640000000  0.5229480000000 1.0
C      1  0.5206040000000  0.4350700000000  0.5660640000000 1.0
C      1  0.5791600000000  0.3820280000000  0.5254410000000 1.0
C      1  0.4633900000000  0.4587880000000  0.4817830000000 1.0
C      1  0.5536290000000  0.4984350000000  0.4979250000000 1.0
C      1  0.4916770000000  0.4898850000000  0.5847750000000 1.0
C      1  0.5453030000000  0.4872180000000  0.6428330000000 1.0
C      1  0.4828440000000  0.5192890000000  0.5438970000000 1.0
C      1  0.4354540000000  0.5074820000000  0.4335200000000 1.0
C      1  0.5301790000000  0.5435020000000  0.5439700000000 1.0
C      1  0.5939250000000  0.4877470000000  0.4519680000000 1.0
C      1  0.4837520000000  0.3936300000000  0.4765120000000 1.0
C      1  0.5782720000000  0.5527770000000  0.5461100000000 1.0
C      1  0.4484760000000  0.5148680000000  0.5038830000000 1.0
C      1  0.4645040000000  0.5105940000000  0.4329050000000 1.0
C      1  0.3883320000000  0.5866110000000  0.5523450000000 1.0
C      1  0.5648810000000  0.5141170000000  0.5886330000000 1.0
C      1  0.5253480000000  0.4570510000000  0.6105000000000 1.0
C      1  0.3638970000000  0.4100330000000  0.4932810000000 1.0
C      1  0.6032470000000  0.4890060000000  0.4792850000000 1.0
C      1  0.4620080000000  0.6150920000000  0.4649970000000 1.0
C      1  0.5560950000000  0.4726040000000  0.4831120000000 1.0
C      1  0.5321150000000  0.5405250000000  0.4874070000000 1.0
C      1  0.4737440000000  0.4699460000000  0.4570280000000 1.0
C      1  0.5126410000000  0.4814510000000  0.4814120000000 1.0
C      1  0.5535640000000  0.3868530000000  0.5322820000000 1.0
C      1  0.4428950000000  0.5410910000000  0.5193490000000 1.0
C      1  0.5472930000000  0.4264680000000  0.5589810000000 1.0
C      1  0.4622340000000  0.5612020000000  0.5320970000000 1.0
C      1  0.5642900000000  0.6241970000000  0.4693100000000 1.0
C      1  0.4242160000000  0.4311060000000  0.5772700000000 1.0
C      1  0.5924740000000  0.4817340000000  0.5667860000000 1.0
C      1  0.5776190000000  0.5765090000000  0.4154170000000 1.0
C      1  0.4242910000000  0.5314630000000  0.4457280000000 1.0
C      1  0.5821700000000  0.5375010000000  0.4870480000000 1.0
END
