TITL C-612600-6631-818 0.562645168830734 125000 -189.403834502333 0 0 33 (C1) n - 1
REM
REM in /home/nfs/bkarasulu/CARBON/AIRSS/Generating-Clusters/TERSOFF/Only-C1/FIRE-HFTN
REM
REM
REM
REM
REM
REM ./C.cell (11c1c37f851c82e70ff6c80c92926a4b)
REM AIRSS Version 0.9.1 bugfix July 2018 build 013d7b7c2542+ Fri, 06 Jul 2018 19:26:36 +0100
REM compiler GCC version 9.2.1 20190827 (Red Hat 9.2.1-1)
REM options -cpp -mtune=generic -march=x86-64 -g -O0 -fpre-include=/usr/include/finclude/math-vector-fortran.h
REM seed -1630486349 1721227720 1038435818 -574390350 510674593 264681063 1046791592 -1978256401 -260797446 -768492731 -341883277 -848826623 -1651252091 1034471057 -1072094862 193769310 1812840703 -1296393099 1094375735 -957175490 1743479906 760997717 1148041822 1912748604 -979567190 -1737674761 -266885319 1002426117 842860526 1408531180 -1655459028 2026065537 -1487445052
REM
CELL 1.54180   50.00000   50.00000   50.00000   90.00000   90.00000   90.00000
LATT -1
SFAC C  
C      1  0.4847640000000  0.5471010000000  0.5494130000000 1.0
C      1  0.5752930000000  0.4426810000000  0.4377960000000 1.0
C      1  0.4680870000000  0.4650100000000  0.6062080000000 1.0
C      1  0.5846550000000  0.5587670000000  0.5418080000000 1.0
C      1  0.5119870000000  0.5526260000000  0.5450450000000 1.0
C      1  0.5234300000000  0.5367840000000  0.4757770000000 1.0
C      1  0.4542040000000  0.5186000000000  0.4919800000000 1.0
C      1  0.4544930000000  0.5415920000000  0.5081050000000 1.0
C      1  0.4924890000000  0.4934120000000  0.4441210000000 1.0
C      1  0.5147710000000  0.4955190000000  0.5309980000000 1.0
C      1  0.5347350000000  0.5398830000000  0.5344200000000 1.0
C      1  0.4658180000000  0.4493810000000  0.5219370000000 1.0
C      1  0.4565610000000  0.5206240000000  0.4637010000000 1.0
C      1  0.4998570000000  0.4458960000000  0.4385790000000 1.0
C      1  0.4839820000000  0.3977330000000  0.4247550000000 1.0
C      1  0.4348510000000  0.5247020000000  0.4476680000000 1.0
C      1  0.5020670000000  0.5377070000000  0.4595460000000 1.0
C      1  0.5355570000000  0.4736150000000  0.4572760000000 1.0
C      1  0.5604270000000  0.5497520000000  0.5385090000000 1.0
C      1  0.5300700000000  0.5160690000000  0.5193580000000 1.0
C      1  0.5341780000000  0.5158430000000  0.4913100000000 1.0
C      1  0.5406960000000  0.4922730000000  0.4775880000000 1.0
C      1  0.4828160000000  0.5181600000000  0.4531230000000 1.0
C      1  0.4659730000000  0.5529670000000  0.5293810000000 1.0
C      1  0.4804820000000  0.4979160000000  0.5654180000000 1.0
C      1  0.4706310000000  0.4762600000000  0.5221910000000 1.0
C      1  0.4741590000000  0.4812250000000  0.5867310000000 1.0
C      1  0.4786930000000  0.5259770000000  0.5671050000000 1.0
C      1  0.4894220000000  0.4876980000000  0.5402810000000 1.0
C      1  0.5563630000000  0.4578390000000  0.4473370000000 1.0
C      1  0.5092380000000  0.4710220000000  0.4464050000000 1.0
C      1  0.4917710000000  0.4216570000000  0.4315810000000 1.0
C      1  0.4574780000000  0.4937100000000  0.5045500000000 1.0
END
