TITL C-612607-4507-360 8.7059552194742 125000 -317.986825818063 0 0 54 (C1) n - 1
REM
REM in /home/nfs/bkarasulu/CARBON/AIRSS/Generating-Clusters/TERSOFF/Only-C1/FIRE-HFTN
REM
REM
REM
REM
REM
REM ./C.cell (11c1c37f851c82e70ff6c80c92926a4b)
REM AIRSS Version 0.9.1 bugfix July 2018 build 013d7b7c2542+ Fri, 06 Jul 2018 19:26:36 +0100
REM compiler GCC version 9.2.1 20190827 (Red Hat 9.2.1-1)
REM options -cpp -mtune=generic -march=x86-64 -g -O0 -fpre-include=/usr/include/finclude/math-vector-fortran.h
REM seed 97687062 257562388 181112904 376827295 -1096774726 -973678995 -1468802406 1663177267 732194680 -273296917 336742324 -610955487 -801823213 259946142 48912828 -1767783310 1589648256 -633596331 -110741668 -210096588 -1612809009 -463625073 -480185948 2020695272 1230488882 1932175377 1041066719 -2113690574 945519561 489087485 1029839551 1333031153 -1584094631
REM
CELL 1.54180   50.00000   50.00000   50.00000   90.00000   90.00000   90.00000
LATT -1
SFAC C  
C      1  0.4247660000000  0.4916930000000  0.5242850000000 1.0
C      1  0.4600580000000  0.4725630000000  0.5603710000000 1.0
C      1  0.4409410000000  0.4809540000000  0.5440710000000 1.0
C      1  0.5823810000000  0.4423810000000  0.4807010000000 1.0
C      1  0.5477510000000  0.4878340000000  0.5312040000000 1.0
C      1  0.4014960000000  0.4827320000000  0.4522970000000 1.0
C      1  0.4873990000000  0.5345090000000  0.4500830000000 1.0
C      1  0.5331900000000  0.4726870000000  0.4499570000000 1.0
C      1  0.4722080000000  0.4048400000000  0.6930580000000 1.0
C      1  0.6010800000000  0.5489520000000  0.4892780000000 1.0
C      1  0.5296210000000  0.4787010000000  0.5503240000000 1.0
C      1  0.4764700000000  0.4287960000000  0.6464510000000 1.0
C      1  0.6256560000000  0.5575900000000  0.4845670000000 1.0
C      1  0.5895810000000  0.5056750000000  0.4397420000000 1.0
C      1  0.4003090000000  0.4797190000000  0.5149570000000 1.0
C      1  0.5605630000000  0.5285680000000  0.4711490000000 1.0
C      1  0.3837890000000  0.5047350000000  0.4587310000000 1.0
C      1  0.5078700000000  0.4746890000000  0.4422060000000 1.0
C      1  0.6516660000000  0.5663050000000  0.4789980000000 1.0
C      1  0.4807650000000  0.4529390000000  0.5994790000000 1.0
C      1  0.5114820000000  0.5439700000000  0.4562260000000 1.0
C      1  0.4830230000000  0.4656630000000  0.5747250000000 1.0
C      1  0.4786180000000  0.4408700000000  0.6229600000000 1.0
C      1  0.6145300000000  0.4021540000000  0.4701640000000 1.0
C      1  0.5370170000000  0.5412680000000  0.4629760000000 1.0
C      1  0.5692100000000  0.5048010000000  0.4580100000000 1.0
C      1  0.5637290000000  0.5388880000000  0.5191180000000 1.0
C      1  0.5604250000000  0.5628660000000  0.5330170000000 1.0
C      1  0.3813310000000  0.4998760000000  0.5070960000000 1.0
C      1  0.6646970000000  0.5567580000000  0.4568900000000 1.0
C      1  0.4433680000000  0.5126510000000  0.4492010000000 1.0
C      1  0.4712870000000  0.5119660000000  0.4457190000000 1.0
C      1  0.4264820000000  0.4910630000000  0.4417790000000 1.0
C      1  0.5082510000000  0.4715320000000  0.5642370000000 1.0
C      1  0.4743210000000  0.4167180000000  0.6699480000000 1.0
C      1  0.4849010000000  0.4879910000000  0.4405240000000 1.0
C      1  0.5562610000000  0.4801370000000  0.4638890000000 1.0
C      1  0.6637920000000  0.5842810000000  0.4957180000000 1.0
C      1  0.4307870000000  0.5158780000000  0.5102610000000 1.0
C      1  0.3994700000000  0.5608530000000  0.4341960000000 1.0
C      1  0.5576790000000  0.5855670000000  0.5455170000000 1.0
C      1  0.5655320000000  0.4640780000000  0.4854260000000 1.0
C      1  0.5753240000000  0.5389030000000  0.4931340000000 1.0
C      1  0.5985730000000  0.4220840000000  0.4754360000000 1.0
C      1  0.5553530000000  0.5147130000000  0.5303290000000 1.0
C      1  0.3714250000000  0.5210730000000  0.4395380000000 1.0
C      1  0.4013710000000  0.4581020000000  0.4965270000000 1.0
C      1  0.4005430000000  0.4601080000000  0.4694470000000 1.0
C      1  0.3779920000000  0.5452330000000  0.4295670000000 1.0
C      1  0.5574420000000  0.4707360000000  0.5113270000000 1.0
C      1  0.4214320000000  0.5565160000000  0.4492020000000 1.0
C      1  0.4168510000000  0.5262330000000  0.4876300000000 1.0
C      1  0.3896220000000  0.5156640000000  0.4847850000000 1.0
C      1  0.4303170000000  0.5339430000000  0.4635700000000 1.0
END
