TITL C-612604-1799-1009 0.270465627925304 125000 -218.303832288246 0 0 38 (C1) n - 1
REM
REM in /home/nfs/bkarasulu/CARBON/AIRSS/Generating-Clusters/TERSOFF/Only-C1/FIRE-HFTN
REM
REM
REM
REM
REM
REM ./C.cell (11c1c37f851c82e70ff6c80c92926a4b)
REM AIRSS Version 0.9.1 bugfix July 2018 build 013d7b7c2542+ Fri, 06 Jul 2018 19:26:36 +0100
REM compiler GCC version 9.2.1 20190827 (Red Hat 9.2.1-1)
REM options -cpp -mtune=generic -march=x86-64 -g -O0 -fpre-include=/usr/include/finclude/math-vector-fortran.h
REM seed 397998438 -134656629 -1050936358 944770290 -650045960 980194568 1350343356 1174938261 -1211152119 -556844252 -877131088 257683523 -1169434360 1274041484 1256726342 -1677803512 -1992015632 96840211 -1344902834 -852648208 508065592 -1127226078 472801761 -854820388 328325723 854939306 -892914425 -256871934 667172199 1241664312 658598837 253162241 53570506
REM
CELL 1.54180   50.00000   50.00000   50.00000   90.00000   90.00000   90.00000
LATT -1
SFAC C  
C      1  0.4799310000000  0.5607240000000  0.4997190000000 1.0
C      1  0.6557710000000  0.5077260000000  0.4945810000000 1.0
C      1  0.5802510000000  0.4915910000000  0.5115230000000 1.0
C      1  0.5157530000000  0.4533600000000  0.5156790000000 1.0
C      1  0.5388390000000  0.4655520000000  0.5012690000000 1.0
C      1  0.5352610000000  0.4650290000000  0.4721420000000 1.0
C      1  0.5047710000000  0.5190130000000  0.5159540000000 1.0
C      1  0.6055600000000  0.4969770000000  0.5058740000000 1.0
C      1  0.5159990000000  0.4857000000000  0.5489830000000 1.0
C      1  0.5173640000000  0.4578600000000  0.5437690000000 1.0
C      1  0.4662860000000  0.4904460000000  0.5304490000000 1.0
C      1  0.4859300000000  0.4712480000000  0.4431620000000 1.0
C      1  0.4288000000000  0.5183140000000  0.4596470000000 1.0
C      1  0.5533070000000  0.4863640000000  0.5169530000000 1.0
C      1  0.4427150000000  0.4654690000000  0.4659670000000 1.0
C      1  0.4584250000000  0.5171430000000  0.4936860000000 1.0
C      1  0.4415390000000  0.4931550000000  0.4533150000000 1.0
C      1  0.4709160000000  0.4974540000000  0.4494900000000 1.0
C      1  0.4628400000000  0.5389610000000  0.5379440000000 1.0
C      1  0.4960980000000  0.4827100000000  0.4845370000000 1.0
C      1  0.5273460000000  0.5282770000000  0.5330130000000 1.0
C      1  0.4643600000000  0.4522710000000  0.4501130000000 1.0
C      1  0.4820420000000  0.5581830000000  0.5292450000000 1.0
C      1  0.4551150000000  0.5155840000000  0.5221430000000 1.0
C      1  0.5394070000000  0.5015690000000  0.5383820000000 1.0
C      1  0.5204490000000  0.5566100000000  0.5326540000000 1.0
C      1  0.6308740000000  0.5023950000000  0.5001810000000 1.0
C      1  0.4785480000000  0.5040160000000  0.4777030000000 1.0
C      1  0.4423880000000  0.5358300000000  0.4782210000000 1.0
C      1  0.4560070000000  0.5605150000000  0.4837700000000 1.0
C      1  0.5043440000000  0.5468630000000  0.4923110000000 1.0
C      1  0.4635520000000  0.4667960000000  0.5131560000000 1.0
C      1  0.4907810000000  0.4622520000000  0.5038790000000 1.0
C      1  0.5254660000000  0.5630870000000  0.5048070000000 1.0
C      1  0.4182980000000  0.4503130000000  0.5053720000000 1.0
C      1  0.4937370000000  0.4981070000000  0.5345920000000 1.0
C      1  0.4414620000000  0.4608250000000  0.4948700000000 1.0
C      1  0.5094680000000  0.4717110000000  0.4609460000000 1.0
END
