TITL C-612605-9286-37 -0.000283451832508122 125000 -395.679772470681 0 0 67 (C1) n - 1
REM
REM in /home/nfs/bkarasulu/CARBON/AIRSS/Generating-Clusters/TERSOFF/Only-C1/FIRE-HFTN
REM
REM
REM
REM
REM
REM ./C.cell (11c1c37f851c82e70ff6c80c92926a4b)
REM AIRSS Version 0.9.1 bugfix July 2018 build 013d7b7c2542+ Fri, 06 Jul 2018 19:26:36 +0100
REM compiler GCC version 9.2.1 20190827 (Red Hat 9.2.1-1)
REM options -cpp -mtune=generic -march=x86-64 -g -O0 -fpre-include=/usr/include/finclude/math-vector-fortran.h
REM seed -955781910 -984594625 1617609477 -1431103396 1399269157 1415431377 944624831 1034202349 1523642554 2007386426 1347209315 -659895356 -569898946 398177324 1911393708 -1681278722 -1013539448 487895151 -2137719143 -310808970 2078411663 -1340760930 -27266532 -1666192164 191920777 231218644 685328575 -244015270 -707912314 -614327500 -630001575 -1623413586 -1080324114
REM
CELL 1.54180   50.00000   50.00000   50.00000   90.00000   90.00000   90.00000
LATT -1
SFAC C  
C      1  0.4943790000000  0.5426990000000  0.5435530000000 1.0
C      1  0.5223460000000  0.4162820000000  0.4591500000000 1.0
C      1  0.4733850000000  0.4628380000000  0.4653580000000 1.0
C      1  0.5090240000000  0.4402930000000  0.5453600000000 1.0
C      1  0.4126310000000  0.5323560000000  0.4696260000000 1.0
C      1  0.5647410000000  0.4891490000000  0.4362860000000 1.0
C      1  0.4783310000000  0.5619570000000  0.5298270000000 1.0
C      1  0.5594630000000  0.5503750000000  0.5165850000000 1.0
C      1  0.5765240000000  0.4973990000000  0.5178710000000 1.0
C      1  0.4699660000000  0.5896250000000  0.4513970000000 1.0
C      1  0.5684570000000  0.4699500000000  0.4819880000000 1.0
C      1  0.4580790000000  0.5510830000000  0.4149210000000 1.0
C      1  0.4538540000000  0.5682540000000  0.4609400000000 1.0
C      1  0.4658510000000  0.5226120000000  0.4865880000000 1.0
C      1  0.4808340000000  0.4881950000000  0.5868830000000 1.0
C      1  0.4586440000000  0.4825460000000  0.5694300000000 1.0
C      1  0.5642140000000  0.5406350000000  0.4915860000000 1.0
C      1  0.5351580000000  0.4526100000000  0.5430570000000 1.0
C      1  0.5197570000000  0.5045150000000  0.5118070000000 1.0
C      1  0.5506990000000  0.4987060000000  0.5662140000000 1.0
C      1  0.4996260000000  0.5189320000000  0.5286440000000 1.0
C      1  0.5850330000000  0.4780140000000  0.4208580000000 1.0
C      1  0.4187220000000  0.5516500000000  0.4881340000000 1.0
C      1  0.4794410000000  0.5916190000000  0.4259630000000 1.0
C      1  0.5876360000000  0.5094950000000  0.5405690000000 1.0
C      1  0.4872840000000  0.4472750000000  0.5625230000000 1.0
C      1  0.4309360000000  0.5247010000000  0.4489240000000 1.0
C      1  0.4994590000000  0.5032010000000  0.4556020000000 1.0
C      1  0.5159470000000  0.5044030000000  0.4333350000000 1.0
C      1  0.4400370000000  0.4551190000000  0.5327180000000 1.0
C      1  0.5854100000000  0.4733920000000  0.5060710000000 1.0
C      1  0.4323740000000  0.4887140000000  0.4162110000000 1.0
C      1  0.4854820000000  0.5242250000000  0.4680930000000 1.0
C      1  0.4734880000000  0.5723170000000  0.4076970000000 1.0
C      1  0.4651390000000  0.4437160000000  0.4863370000000 1.0
C      1  0.4459350000000  0.5071980000000  0.4966700000000 1.0
C      1  0.4839600000000  0.4779310000000  0.5172980000000 1.0
C      1  0.4938480000000  0.5371400000000  0.5717000000000 1.0
C      1  0.4254610000000  0.4995540000000  0.5421830000000 1.0
C      1  0.5676090000000  0.5199280000000  0.4742800000000 1.0
C      1  0.4898190000000  0.5152090000000  0.5874090000000 1.0
C      1  0.4967520000000  0.4641230000000  0.5852620000000 1.0
C      1  0.5576210000000  0.5442880000000  0.5432900000000 1.0
C      1  0.5666340000000  0.5203850000000  0.5566590000000 1.0
C      1  0.4530170000000  0.5023290000000  0.5490110000000 1.0
C      1  0.5404080000000  0.4975780000000  0.4252390000000 1.0
C      1  0.5405440000000  0.4719110000000  0.5652180000000 1.0
C      1  0.4761760000000  0.5013380000000  0.5318690000000 1.0
C      1  0.5333850000000  0.4334870000000  0.4753150000000 1.0
C      1  0.5048520000000  0.4825110000000  0.4982120000000 1.0
C      1  0.4600670000000  0.4557030000000  0.5550590000000 1.0
C      1  0.5523280000000  0.4457490000000  0.5212040000000 1.0
C      1  0.4473700000000  0.5470650000000  0.4409370000000 1.0
C      1  0.5675190000000  0.4927340000000  0.4643980000000 1.0
C      1  0.6042250000000  0.4672340000000  0.4069080000000 1.0
C      1  0.5477940000000  0.5024370000000  0.5143000000000 1.0
C      1  0.4455910000000  0.4556390000000  0.5043420000000 1.0
C      1  0.5811010000000  0.4508640000000  0.5237000000000 1.0
C      1  0.5486130000000  0.4499470000000  0.4917120000000 1.0
C      1  0.4969330000000  0.4790540000000  0.4707420000000 1.0
C      1  0.4602450000000  0.5687550000000  0.5108310000000 1.0
C      1  0.4479950000000  0.4785420000000  0.4608650000000 1.0
C      1  0.5246790000000  0.4654240000000  0.5881650000000 1.0
C      1  0.4371990000000  0.4971900000000  0.4418810000000 1.0
C      1  0.4384890000000  0.4807310000000  0.4890350000000 1.0
C      1  0.4178710000000  0.4732960000000  0.5383690000000 1.0
C      1  0.4436080000000  0.5658740000000  0.4878290000000 1.0
END
