TITL C-612605-9286-290 -0.00015548872730073 125000 -1206.53752606281 0 0 195 (C1) n - 1
REM
REM in /home/nfs/bkarasulu/CARBON/AIRSS/Generating-Clusters/TERSOFF/Only-C1/FIRE-HFTN
REM
REM
REM
REM
REM
REM ./C.cell (11c1c37f851c82e70ff6c80c92926a4b)
REM AIRSS Version 0.9.1 bugfix July 2018 build 013d7b7c2542+ Fri, 06 Jul 2018 19:26:36 +0100
REM compiler GCC version 9.2.1 20190827 (Red Hat 9.2.1-1)
REM options -cpp -mtune=generic -march=x86-64 -g -O0 -fpre-include=/usr/include/finclude/math-vector-fortran.h
REM seed 1961670118 -1448106705 156575021 -1278975522 1556663653 96478431 651363186 211548588 1131208777 1744391692 -1518783810 2043240812 1828509159 -17287262 -1333382661 1968233944 448392880 -1886531937 -1263917076 -896568240 -1797686038 -834323293 2031879827 -915269434 -5608366 1409116510 162775123 1873209287 658415062 -765356352 1415804788 -366417643 -1113330451
REM
CELL 1.54180   50.00000   50.00000   50.00000   90.00000   90.00000   90.00000
LATT -1
SFAC C  
C      1  0.5300060000000  0.4420000000000  0.4057040000000 1.0
C      1  0.4730980000000  0.4246220000000  0.5656600000000 1.0
C      1  0.6048950000000  0.5235020000000  0.4464640000000 1.0
C      1  0.5628730000000  0.5708900000000  0.3912640000000 1.0
C      1  0.4670690000000  0.4975830000000  0.6176850000000 1.0
C      1  0.5462450000000  0.6108190000000  0.4496820000000 1.0
C      1  0.4930810000000  0.5166940000000  0.4097240000000 1.0
C      1  0.5702980000000  0.4237310000000  0.5043030000000 1.0
C      1  0.4245370000000  0.4389780000000  0.5112800000000 1.0
C      1  0.5711490000000  0.5203280000000  0.4925640000000 1.0
C      1  0.4477570000000  0.6006160000000  0.5041880000000 1.0
C      1  0.5092660000000  0.3879580000000  0.4431370000000 1.0
C      1  0.4587110000000  0.5646330000000  0.3979210000000 1.0
C      1  0.4990130000000  0.5221710000000  0.5261270000000 1.0
C      1  0.5693290000000  0.5282670000000  0.5933550000000 1.0
C      1  0.4599840000000  0.5503290000000  0.5573520000000 1.0
C      1  0.3789640000000  0.5620170000000  0.4775360000000 1.0
C      1  0.5676620000000  0.5222780000000  0.3841760000000 1.0
C      1  0.5576870000000  0.4429960000000  0.5780460000000 1.0
C      1  0.4754400000000  0.4711200000000  0.3709810000000 1.0
C      1  0.5127570000000  0.4812020000000  0.6221000000000 1.0
C      1  0.4753470000000  0.5390810000000  0.4489960000000 1.0
C      1  0.4676290000000  0.4562440000000  0.4945520000000 1.0
C      1  0.4732560000000  0.3790550000000  0.5308320000000 1.0
C      1  0.5578910000000  0.4951540000000  0.3871900000000 1.0
C      1  0.5010000000000  0.5282820000000  0.4367840000000 1.0
C      1  0.5217300000000  0.5390040000000  0.5978800000000 1.0
C      1  0.4384400000000  0.4860050000000  0.4249470000000 1.0
C      1  0.3789010000000  0.5103340000000  0.5179170000000 1.0
C      1  0.4441150000000  0.6003530000000  0.4755190000000 1.0
C      1  0.6144380000000  0.5458530000000  0.4606320000000 1.0
C      1  0.6089350000000  0.4487880000000  0.4658580000000 1.0
C      1  0.5223750000000  0.3864700000000  0.5459590000000 1.0
C      1  0.6011050000000  0.5679450000000  0.4678820000000 1.0
C      1  0.3615900000000  0.5405290000000  0.4834120000000 1.0
C      1  0.4473240000000  0.5153000000000  0.5088620000000 1.0
C      1  0.3878690000000  0.4935180000000  0.4172130000000 1.0
C      1  0.4258550000000  0.4471640000000  0.4433910000000 1.0
C      1  0.5726070000000  0.4612460000000  0.5630170000000 1.0
C      1  0.3860180000000  0.4685420000000  0.4723230000000 1.0
C      1  0.6158440000000  0.5074030000000  0.5502530000000 1.0
C      1  0.4130060000000  0.4636540000000  0.4636300000000 1.0
C      1  0.5374220000000  0.3915820000000  0.5216340000000 1.0
C      1  0.4516700000000  0.3927070000000  0.5225110000000 1.0
C      1  0.5295840000000  0.4914030000000  0.3878110000000 1.0
C      1  0.5757960000000  0.5792480000000  0.4647960000000 1.0
C      1  0.4992520000000  0.4564390000000  0.3704490000000 1.0
C      1  0.4947480000000  0.5035770000000  0.6215940000000 1.0
C      1  0.6007260000000  0.4651930000000  0.5665010000000 1.0
C      1  0.4500120000000  0.4586630000000  0.5944560000000 1.0
C      1  0.5632860000000  0.4046450000000  0.5240440000000 1.0
C      1  0.4614730000000  0.5683350000000  0.6181890000000 1.0
C      1  0.4361060000000  0.5057230000000  0.4483230000000 1.0
C      1  0.5053200000000  0.4589360000000  0.4507580000000 1.0
C      1  0.5727570000000  0.4806030000000  0.6022330000000 1.0
C      1  0.5033790000000  0.4336980000000  0.5244820000000 1.0
C      1  0.5123250000000  0.4258390000000  0.4961400000000 1.0
C      1  0.4863700000000  0.5587860000000  0.5668990000000 1.0
C      1  0.6102600000000  0.4767870000000  0.4714490000000 1.0
C      1  0.4856360000000  0.3999790000000  0.5723380000000 1.0
C      1  0.3883570000000  0.5073970000000  0.4423650000000 1.0
C      1  0.4371800000000  0.5972440000000  0.5814230000000 1.0
C      1  0.4880940000000  0.4771090000000  0.4921950000000 1.0
C      1  0.5157760000000  0.4666850000000  0.5573350000000 1.0
C      1  0.5868170000000  0.5979150000000  0.5788110000000 1.0
C      1  0.5568560000000  0.4485490000000  0.4978460000000 1.0
C      1  0.5129300000000  0.5974120000000  0.5245090000000 1.0
C      1  0.5340230000000  0.4019650000000  0.4438710000000 1.0
C      1  0.4880780000000  0.5852830000000  0.5768620000000 1.0
C      1  0.5141400000000  0.5422340000000  0.5682040000000 1.0
C      1  0.5731470000000  0.4754500000000  0.4013070000000 1.0
C      1  0.5493650000000  0.5466960000000  0.5275780000000 1.0
C      1  0.5533720000000  0.5112500000000  0.4711810000000 1.0
C      1  0.4119940000000  0.5508000000000  0.4458670000000 1.0
C      1  0.5048270000000  0.4353590000000  0.6018460000000 1.0
C      1  0.4466850000000  0.5020730000000  0.5715520000000 1.0
C      1  0.5163790000000  0.4805960000000  0.5054990000000 1.0
C      1  0.4414490000000  0.4628780000000  0.5059090000000 1.0
C      1  0.4844380000000  0.3918550000000  0.4523980000000 1.0
C      1  0.3722210000000  0.5144460000000  0.4898040000000 1.0
C      1  0.5151810000000  0.5724870000000  0.5113950000000 1.0
C      1  0.5379710000000  0.5560230000000  0.5528490000000 1.0
C      1  0.6101770000000  0.4792500000000  0.5437120000000 1.0
C      1  0.4684290000000  0.5084370000000  0.5271130000000 1.0
C      1  0.5012860000000  0.5314260000000  0.6165970000000 1.0
C      1  0.6035130000000  0.4875480000000  0.4966890000000 1.0
C      1  0.4513200000000  0.4608260000000  0.4346380000000 1.0
C      1  0.5200720000000  0.4839230000000  0.4470020000000 1.0
C      1  0.5513290000000  0.5464540000000  0.3818860000000 1.0
C      1  0.5409380000000  0.4274970000000  0.5620860000000 1.0
C      1  0.4757020000000  0.5586020000000  0.4686830000000 1.0
C      1  0.5088920000000  0.4077200000000  0.5891450000000 1.0
C      1  0.4815530000000  0.4980880000000  0.4719160000000 1.0
C      1  0.5634100000000  0.4893690000000  0.5273380000000 1.0
C      1  0.4369200000000  0.6013530000000  0.5547090000000 1.0
C      1  0.5230700000000  0.4422920000000  0.5450540000000 1.0
C      1  0.5026080000000  0.6068060000000  0.5698850000000 1.0
C      1  0.5525880000000  0.5176840000000  0.5175520000000 1.0
C      1  0.5440210000000  0.4696330000000  0.5119380000000 1.0
C      1  0.5486990000000  0.4892860000000  0.4525760000000 1.0
C      1  0.5231620000000  0.5435570000000  0.3855790000000 1.0
C      1  0.3339290000000  0.5442870000000  0.4829630000000 1.0
C      1  0.4632260000000  0.4928090000000  0.3804260000000 1.0
C      1  0.5964000000000  0.4245980000000  0.4644880000000 1.0
C      1  0.4822880000000  0.5771180000000  0.4078840000000 1.0
C      1  0.5067230000000  0.5074620000000  0.4583620000000 1.0
C      1  0.5293540000000  0.5415270000000  0.4352770000000 1.0
C      1  0.5525420000000  0.4571470000000  0.6033210000000 1.0
C      1  0.5613030000000  0.4640670000000  0.4498260000000 1.0
C      1  0.5186720000000  0.4427240000000  0.4710750000000 1.0
C      1  0.4961030000000  0.5513650000000  0.5125840000000 1.0
C      1  0.5226970000000  0.6024040000000  0.5506710000000 1.0
C      1  0.3670390000000  0.4949780000000  0.3997230000000 1.0
C      1  0.4935540000000  0.3833820000000  0.5497000000000 1.0
C      1  0.5241680000000  0.4565680000000  0.6118710000000 1.0
C      1  0.4815900000000  0.5511120000000  0.6231060000000 1.0
C      1  0.4178770000000  0.5925420000000  0.4679800000000 1.0
C      1  0.4780810000000  0.4469450000000  0.5882040000000 1.0
C      1  0.6130590000000  0.4969220000000  0.4515770000000 1.0
C      1  0.6108410000000  0.5569440000000  0.5903860000000 1.0
C      1  0.5742780000000  0.4618000000000  0.4247680000000 1.0
C      1  0.4525630000000  0.5387430000000  0.3944980000000 1.0
C      1  0.5287450000000  0.4916870000000  0.5551770000000 1.0
C      1  0.4790680000000  0.4563540000000  0.4390940000000 1.0
C      1  0.5070490000000  0.4159200000000  0.3357160000000 1.0
C      1  0.5220310000000  0.5110290000000  0.5081080000000 1.0
C      1  0.5395720000000  0.6045520000000  0.4757300000000 1.0
C      1  0.5029930000000  0.4356730000000  0.3522240000000 1.0
C      1  0.5147700000000  0.5161500000000  0.3914050000000 1.0
C      1  0.4100350000000  0.4492820000000  0.4185160000000 1.0
C      1  0.5835950000000  0.5296430000000  0.4287040000000 1.0
C      1  0.4042020000000  0.4599730000000  0.5700540000000 1.0
C      1  0.4376350000000  0.4154350000000  0.5208170000000 1.0
C      1  0.3757540000000  0.4851790000000  0.5313200000000 1.0
C      1  0.3641810000000  0.4650080000000  0.5154180000000 1.0
C      1  0.4347520000000  0.4909320000000  0.4983900000000 1.0
C      1  0.4576630000000  0.4908420000000  0.5466360000000 1.0
C      1  0.4732670000000  0.5537690000000  0.4958610000000 1.0
C      1  0.5549760000000  0.5815910000000  0.4856990000000 1.0
C      1  0.5090820000000  0.5147380000000  0.5560230000000 1.0
C      1  0.4774330000000  0.5936340000000  0.4313470000000 1.0
C      1  0.5989910000000  0.5164540000000  0.5008300000000 1.0
C      1  0.5577990000000  0.4888850000000  0.5571800000000 1.0
C      1  0.4509080000000  0.4876220000000  0.5967310000000 1.0
C      1  0.3790380000000  0.4531970000000  0.4949110000000 1.0
C      1  0.4772210000000  0.4382120000000  0.5392640000000 1.0
C      1  0.4249640000000  0.4499390000000  0.5841490000000 1.0
C      1  0.5896410000000  0.5269010000000  0.4012640000000 1.0
C      1  0.4123390000000  0.5232230000000  0.4446160000000 1.0
C      1  0.5692040000000  0.5857130000000  0.4128660000000 1.0
C      1  0.6017520000000  0.4816930000000  0.5913090000000 1.0
C      1  0.4896100000000  0.5004000000000  0.5743290000000 1.0
C      1  0.5255870000000  0.5181230000000  0.4786840000000 1.0
C      1  0.5474760000000  0.4005730000000  0.4702470000000 1.0
C      1  0.5565220000000  0.5382460000000  0.4346710000000 1.0
C      1  0.3080300000000  0.5471540000000  0.4825730000000 1.0
C      1  0.4116790000000  0.4781850000000  0.4122470000000 1.0
C      1  0.4475440000000  0.5603440000000  0.5329240000000 1.0
C      1  0.4894750000000  0.4698220000000  0.5704690000000 1.0
C      1  0.5479280000000  0.4484810000000  0.4703980000000 1.0
C      1  0.4675600000000  0.5151570000000  0.3967480000000 1.0
C      1  0.4431890000000  0.5887500000000  0.5300580000000 1.0
C      1  0.3975990000000  0.4330900000000  0.5024980000000 1.0
C      1  0.6085500000000  0.5828410000000  0.5839180000000 1.0
C      1  0.5547410000000  0.5734460000000  0.6045290000000 1.0
C      1  0.4678900000000  0.4313720000000  0.4810320000000 1.0
C      1  0.4697840000000  0.4088020000000  0.4669100000000 1.0
C      1  0.5429380000000  0.5841740000000  0.5597900000000 1.0
C      1  0.5491340000000  0.5458090000000  0.6031290000000 1.0
C      1  0.5064050000000  0.5659390000000  0.3954690000000 1.0
C      1  0.5976890000000  0.5323250000000  0.5900110000000 1.0
C      1  0.4272790000000  0.4877220000000  0.4711970000000 1.0
C      1  0.4493080000000  0.5443170000000  0.5086240000000 1.0
C      1  0.4620730000000  0.5148710000000  0.4579430000000 1.0
C      1  0.3895460000000  0.4762710000000  0.5544450000000 1.0
C      1  0.5616630000000  0.5022180000000  0.5852010000000 1.0
C      1  0.3893620000000  0.4068970000000  0.5008590000000 1.0
C      1  0.5745860000000  0.4115060000000  0.4774320000000 1.0
C      1  0.5306870000000  0.4026000000000  0.5699070000000 1.0
C      1  0.5669870000000  0.5931600000000  0.4398280000000 1.0
C      1  0.5282640000000  0.4007060000000  0.4947860000000 1.0
C      1  0.4455290000000  0.5845600000000  0.6037160000000 1.0
C      1  0.5367260000000  0.4216220000000  0.4226920000000 1.0
C      1  0.3780360000000  0.4963000000000  0.4676140000000 1.0
C      1  0.5429620000000  0.5656320000000  0.5058010000000 1.0
C      1  0.4017980000000  0.5701830000000  0.4633190000000 1.0
C      1  0.3882800000000  0.5317150000000  0.5324750000000 1.0
C      1  0.4707020000000  0.4658290000000  0.5464820000000 1.0
C      1  0.6108310000000  0.5088800000000  0.5797960000000 1.0
C      1  0.5601970000000  0.5894040000000  0.5816280000000 1.0
C      1  0.4636620000000  0.6015510000000  0.4538620000000 1.0
C      1  0.4456310000000  0.5303030000000  0.5713330000000 1.0
C      1  0.6108770000000  0.5244070000000  0.5268250000000 1.0
C      1  0.5925250000000  0.4778250000000  0.5210290000000 1.0
C      1  0.5200260000000  0.4635520000000  0.3889160000000 1.0
END
