TITL C-612605-9286-538 0.00146571624243883 125000 -922.376727421072 0 0 150 (C1) n - 1
REM
REM in /home/nfs/bkarasulu/CARBON/AIRSS/Generating-Clusters/TERSOFF/Only-C1/FIRE-HFTN
REM
REM
REM
REM
REM
REM ./C.cell (11c1c37f851c82e70ff6c80c92926a4b)
REM AIRSS Version 0.9.1 bugfix July 2018 build 013d7b7c2542+ Fri, 06 Jul 2018 19:26:36 +0100
REM compiler GCC version 9.2.1 20190827 (Red Hat 9.2.1-1)
REM options -cpp -mtune=generic -march=x86-64 -g -O0 -fpre-include=/usr/include/finclude/math-vector-fortran.h
REM seed -1996828882 -506322378 -881765787 718294594 -1744742051 1005972236 -929698551 525906630 -928088241 712356081 -1465644870 364196141 -457508279 1390125017 -451295867 -1941189682 -956186329 1851654249 2106097553 2123816644 123927456 264713343 -1895866089 -488932283 -2085995645 -1808237003 1250452125 1646045039 -1359551715 -1377977020 -1934358050 2009093674 1704826718
REM
CELL 1.54180   50.00000   50.00000   50.00000   90.00000   90.00000   90.00000
LATT -1
SFAC C  
C      1  0.4857280000000  0.5708870000000  0.4025630000000 1.0
C      1  0.4157040000000  0.5836940000000  0.4932110000000 1.0
C      1  0.4786240000000  0.4054780000000  0.5296320000000 1.0
C      1  0.5183920000000  0.5416330000000  0.5616340000000 1.0
C      1  0.4868740000000  0.5417480000000  0.5985110000000 1.0
C      1  0.4386830000000  0.4844300000000  0.5385930000000 1.0
C      1  0.5907530000000  0.5422920000000  0.3917890000000 1.0
C      1  0.5255990000000  0.3973090000000  0.5151560000000 1.0
C      1  0.5165270000000  0.4400100000000  0.4346030000000 1.0
C      1  0.4150850000000  0.4248500000000  0.5513310000000 1.0
C      1  0.5173380000000  0.4255980000000  0.5540970000000 1.0
C      1  0.4841960000000  0.4681850000000  0.5634740000000 1.0
C      1  0.5866350000000  0.4926590000000  0.5392690000000 1.0
C      1  0.3897200000000  0.5398440000000  0.5117720000000 1.0
C      1  0.4040490000000  0.4887220000000  0.4392850000000 1.0
C      1  0.4601660000000  0.6050300000000  0.5015750000000 1.0
C      1  0.5324320000000  0.4806570000000  0.4906350000000 1.0
C      1  0.5985820000000  0.5311790000000  0.5039840000000 1.0
C      1  0.5459800000000  0.4958150000000  0.5579620000000 1.0
C      1  0.4189150000000  0.4909720000000  0.5189480000000 1.0
C      1  0.4486060000000  0.4578300000000  0.5379370000000 1.0
C      1  0.4124230000000  0.5347270000000  0.4228470000000 1.0
C      1  0.4793430000000  0.5119680000000  0.4873110000000 1.0
C      1  0.5478160000000  0.3987640000000  0.4998410000000 1.0
C      1  0.5301380000000  0.4316200000000  0.6095940000000 1.0
C      1  0.5010810000000  0.5175870000000  0.5563090000000 1.0
C      1  0.5347610000000  0.5645740000000  0.4079460000000 1.0
C      1  0.4413410000000  0.5919750000000  0.4843800000000 1.0
C      1  0.5472690000000  0.4975580000000  0.5879120000000 1.0
C      1  0.3936720000000  0.4805310000000  0.5133590000000 1.0
C      1  0.5599870000000  0.4719650000000  0.5951040000000 1.0
C      1  0.4653030000000  0.4863640000000  0.4468330000000 1.0
C      1  0.6003290000000  0.4105390000000  0.5578080000000 1.0
C      1  0.6112130000000  0.5459520000000  0.3737230000000 1.0
C      1  0.4922760000000  0.4585270000000  0.5114150000000 1.0
C      1  0.5596200000000  0.5002470000000  0.5326600000000 1.0
C      1  0.5651170000000  0.5701580000000  0.5121610000000 1.0
C      1  0.3964620000000  0.4746520000000  0.4648510000000 1.0
C      1  0.5431440000000  0.5167040000000  0.3791240000000 1.0
C      1  0.5094290000000  0.5977400000000  0.5148410000000 1.0
C      1  0.4316190000000  0.5082030000000  0.4986550000000 1.0
C      1  0.5413760000000  0.5465460000000  0.4821150000000 1.0
C      1  0.5233040000000  0.5926610000000  0.4894660000000 1.0
C      1  0.5019060000000  0.5263800000000  0.4971690000000 1.0
C      1  0.4231620000000  0.4288870000000  0.4832030000000 1.0
C      1  0.5302260000000  0.5250670000000  0.4960710000000 1.0
C      1  0.5944330000000  0.5534440000000  0.4180710000000 1.0
C      1  0.5512720000000  0.5197010000000  0.4339100000000 1.0
C      1  0.4936910000000  0.5492320000000  0.5108510000000 1.0
C      1  0.5415480000000  0.4448000000000  0.5187940000000 1.0
C      1  0.5284720000000  0.5090890000000  0.4478280000000 1.0
C      1  0.4753940000000  0.5622330000000  0.4698550000000 1.0
C      1  0.4374050000000  0.4319830000000  0.5374610000000 1.0
C      1  0.5299340000000  0.4828290000000  0.4613580000000 1.0
C      1  0.5881480000000  0.5570730000000  0.4981680000000 1.0
C      1  0.4679210000000  0.5106370000000  0.4609680000000 1.0
C      1  0.4615700000000  0.5807400000000  0.4139240000000 1.0
C      1  0.4773130000000  0.4579830000000  0.5372480000000 1.0
C      1  0.3971830000000  0.5658890000000  0.5012780000000 1.0
C      1  0.4523230000000  0.4135750000000  0.5213640000000 1.0
C      1  0.4582780000000  0.5438150000000  0.5929220000000 1.0
C      1  0.5925510000000  0.4869150000000  0.4385540000000 1.0
C      1  0.4675610000000  0.4616330000000  0.4603700000000 1.0
C      1  0.4456850000000  0.5716090000000  0.4355290000000 1.0
C      1  0.4883410000000  0.4977790000000  0.6185180000000 1.0
C      1  0.5211700000000  0.4597900000000  0.5065990000000 1.0
C      1  0.5440540000000  0.5024250000000  0.5068670000000 1.0
C      1  0.3999310000000  0.5365330000000  0.5389360000000 1.0
C      1  0.4640670000000  0.4009230000000  0.4763930000000 1.0
C      1  0.5444800000000  0.5730840000000  0.4913080000000 1.0
C      1  0.5965710000000  0.4807530000000  0.5616520000000 1.0
C      1  0.6052430000000  0.5058350000000  0.4973410000000 1.0
C      1  0.4365490000000  0.5446260000000  0.4342840000000 1.0
C      1  0.5424790000000  0.4490560000000  0.5914490000000 1.0
C      1  0.4529830000000  0.4897850000000  0.4212050000000 1.0
C      1  0.5156970000000  0.5985970000000  0.4628980000000 1.0
C      1  0.4893020000000  0.4412210000000  0.3886730000000 1.0
C      1  0.4455160000000  0.4304210000000  0.4261260000000 1.0
C      1  0.5023640000000  0.4894270000000  0.5602720000000 1.0
C      1  0.4171280000000  0.5424660000000  0.5595330000000 1.0
C      1  0.5107780000000  0.5772080000000  0.4154420000000 1.0
C      1  0.4569540000000  0.4598430000000  0.6301880000000 1.0
C      1  0.4531830000000  0.5782010000000  0.4625090000000 1.0
C      1  0.5867970000000  0.4710090000000  0.5851290000000 1.0
C      1  0.4444010000000  0.4121390000000  0.4937850000000 1.0
C      1  0.5495410000000  0.5727500000000  0.5372110000000 1.0
C      1  0.5056540000000  0.3893690000000  0.6108010000000 1.0
C      1  0.4980180000000  0.5552730000000  0.4549620000000 1.0
C      1  0.5057880000000  0.4171130000000  0.6080620000000 1.0
C      1  0.4842970000000  0.5461990000000  0.3889150000000 1.0
C      1  0.4211490000000  0.4608460000000  0.4004250000000 1.0
C      1  0.5285460000000  0.5929100000000  0.5359190000000 1.0
C      1  0.4766960000000  0.4601640000000  0.4873690000000 1.0
C      1  0.5951150000000  0.4567380000000  0.4772700000000 1.0
C      1  0.4899510000000  0.5184290000000  0.3899310000000 1.0
C      1  0.5168000000000  0.5115230000000  0.3828850000000 1.0
C      1  0.5032690000000  0.5196330000000  0.6093100000000 1.0
C      1  0.4247230000000  0.4815240000000  0.4196160000000 1.0
C      1  0.5865000000000  0.5640140000000  0.5824310000000 1.0
C      1  0.5935140000000  0.5649890000000  0.4707070000000 1.0
C      1  0.3975710000000  0.5171580000000  0.4398850000000 1.0
C      1  0.4256070000000  0.5242460000000  0.4763680000000 1.0
C      1  0.3985850000000  0.5264410000000  0.4667970000000 1.0
C      1  0.6042970000000  0.4794080000000  0.4917350000000 1.0
C      1  0.5619480000000  0.4514300000000  0.4428670000000 1.0
C      1  0.5091190000000  0.5791960000000  0.4435590000000 1.0
C      1  0.4626420000000  0.4368860000000  0.4471190000000 1.0
C      1  0.4403200000000  0.4400420000000  0.4001990000000 1.0
C      1  0.4697880000000  0.5012840000000  0.4009600000000 1.0
C      1  0.5080060000000  0.4424550000000  0.4077900000000 1.0
C      1  0.5068270000000  0.4080720000000  0.5338620000000 1.0
C      1  0.4629540000000  0.4396430000000  0.3833450000000 1.0
C      1  0.5030070000000  0.5571270000000  0.5808490000000 1.0
C      1  0.4456580000000  0.5282370000000  0.4566110000000 1.0
C      1  0.5762890000000  0.5075290000000  0.4340640000000 1.0
C      1  0.5677320000000  0.5276550000000  0.3826040000000 1.0
C      1  0.5607570000000  0.5536040000000  0.5816150000000 1.0
C      1  0.4698090000000  0.5775480000000  0.5395620000000 1.0
C      1  0.4720140000000  0.4763160000000  0.6119380000000 1.0
C      1  0.4396910000000  0.5548290000000  0.5731160000000 1.0
C      1  0.4755180000000  0.5258190000000  0.5463800000000 1.0
C      1  0.3834050000000  0.4896320000000  0.4882680000000 1.0
C      1  0.5348600000000  0.4584910000000  0.4459920000000 1.0
C      1  0.4620430000000  0.4332340000000  0.6247120000000 1.0
C      1  0.4501520000000  0.5782240000000  0.5597700000000 1.0
C      1  0.4816590000000  0.4313340000000  0.6032260000000 1.0
C      1  0.5876520000000  0.4309640000000  0.4866250000000 1.0
C      1  0.3826400000000  0.5197300000000  0.4898650000000 1.0
C      1  0.4590580000000  0.5086150000000  0.5064930000000 1.0
C      1  0.4801850000000  0.5969640000000  0.5203230000000 1.0
C      1  0.5863760000000  0.4625310000000  0.4507790000000 1.0
C      1  0.4774540000000  0.5511190000000  0.5331620000000 1.0
C      1  0.5052740000000  0.3633590000000  0.6123730000000 1.0
C      1  0.5295620000000  0.4489410000000  0.5654900000000 1.0
C      1  0.5471970000000  0.5444290000000  0.4207580000000 1.0
C      1  0.4086990000000  0.4490870000000  0.4719150000000 1.0
C      1  0.4797500000000  0.4580830000000  0.5896270000000 1.0
C      1  0.5638300000000  0.4381430000000  0.5319440000000 1.0
C      1  0.4785020000000  0.4153830000000  0.4572020000000 1.0
C      1  0.5079390000000  0.5290940000000  0.4495660000000 1.0
C      1  0.5956710000000  0.5614420000000  0.4439370000000 1.0
C      1  0.5700510000000  0.4107550000000  0.4902310000000 1.0
C      1  0.5828360000000  0.4253680000000  0.5454130000000 1.0
C      1  0.6108850000000  0.5731390000000  0.5813310000000 1.0
C      1  0.5264050000000  0.4755670000000  0.5553980000000 1.0
C      1  0.4592530000000  0.5059060000000  0.5351200000000 1.0
C      1  0.5327510000000  0.5176300000000  0.6033500000000 1.0
C      1  0.5448440000000  0.5531170000000  0.5576050000000 1.0
C      1  0.5054720000000  0.4186530000000  0.4500020000000 1.0
C      1  0.5483200000000  0.5416500000000  0.6042610000000 1.0
END
