TITL C-612600-6631-1402 -926.995695361703 125000 -994.528136842589 0 0 162 (C1) n - 1
REM
REM in /home/nfs/bkarasulu/CARBON/AIRSS/Generating-Clusters/TERSOFF/Only-C1/FIRE-HFTN
REM
REM
REM
REM
REM
REM ./C.cell (11c1c37f851c82e70ff6c80c92926a4b)
REM AIRSS Version 0.9.1 bugfix July 2018 build 013d7b7c2542+ Fri, 06 Jul 2018 19:26:36 +0100
REM compiler GCC version 9.2.1 20190827 (Red Hat 9.2.1-1)
REM options -cpp -mtune=generic -march=x86-64 -g -O0 -fpre-include=/usr/include/finclude/math-vector-fortran.h
REM seed 1374126439 -1029048560 755179916 1495795328 1214172523 -1084612238 -229733955 -931354593 992646756 804934688 -1346507088 1354066645 -1416126675 -1478947441 -999998186 1285316792 -1553640171 -562729648 1116749571 -356389350 -726045766 5819565 780828105 -793056253 1910146607 208324215 -1086652385 -861500032 410630140 427471235 1572288074 -216162055 -1409980645
REM
CELL 1.54180   50.00000   50.00000   50.00000   90.00000   90.00000   90.00000
LATT -1
SFAC C  
C      1  0.4784460000000  0.5522260000000  0.6228710000000 1.0
C      1  0.4273690000000  0.4296950000000  0.4792750000000 1.0
C      1  0.4216450000000  0.5778990000000  0.4475410000000 1.0
C      1  0.5366890000000  0.5710220000000  0.5211400000000 1.0
C      1  0.4907300000000  0.4196400000000  0.4168530000000 1.0
C      1  0.4008210000000  0.4492510000000  0.5157880000000 1.0
C      1  0.5829870000000  0.5507960000000  0.5702050000000 1.0
C      1  0.5119550000000  0.4196190000000  0.5819210000000 1.0
C      1  0.4707860000000  0.4533870000000  0.5099850000000 1.0
C      1  0.4891070000000  0.5072910000000  0.4508180000000 1.0
C      1  0.4443710000000  0.5769260000000  0.5466970000000 1.0
C      1  0.5539950000000  0.4365870000000  0.5573670000000 1.0
C      1  0.5214610000000  0.6252290000000  0.5007360000000 1.0
C      1  0.4632200000000  0.3960940000000  0.4838610000000 1.0
C      1  0.4185630000000  0.6034720000000  0.5140260000000 1.0
C      1  0.4955130000000  0.4650160000000  0.5920580000000 1.0
C      1  0.4718450000000  0.4377020000000  0.4579510000000 1.0
C      1  0.5048470000000  0.5174560000000  0.5148620000000 1.0
C      1  0.5310050000000  0.5076450000000  0.4764040000000 1.0
C      1  0.4594380000000  0.3731210000000  0.4683470000000 1.0
C      1  0.5557480000000  0.5200620000000  0.4856070000000 1.0
C      1  0.5321720000000  0.5567460000000  0.5725920000000 1.0
C      1  0.5536220000000  0.5503220000000  0.5301470000000 1.0
C      1  0.5625800000000  0.6048490000000  0.5391820000000 1.0
C      1  0.5352210000000  0.4285710000000  0.5377560000000 1.0
C      1  0.4214850000000  0.5795860000000  0.5286760000000 1.0
C      1  0.4852870000000  0.5023030000000  0.5025330000000 1.0
C      1  0.5124780000000  0.6138460000000  0.5250280000000 1.0
C      1  0.6120500000000  0.5060320000000  0.4944040000000 1.0
C      1  0.4687780000000  0.4603780000000  0.3999020000000 1.0
C      1  0.5062320000000  0.4653750000000  0.5501110000000 1.0
C      1  0.5457770000000  0.4234200000000  0.4402010000000 1.0
C      1  0.5495130000000  0.5818810000000  0.4438100000000 1.0
C      1  0.5935140000000  0.4358820000000  0.4611740000000 1.0
C      1  0.4492720000000  0.4872550000000  0.4625790000000 1.0
C      1  0.5264070000000  0.4074900000000  0.4997630000000 1.0
C      1  0.4437610000000  0.5603220000000  0.4483060000000 1.0
C      1  0.4666460000000  0.5390180000000  0.6010910000000 1.0
C      1  0.4061330000000  0.4311570000000  0.5368440000000 1.0
C      1  0.3967120000000  0.4671200000000  0.4669560000000 1.0
C      1  0.5314810000000  0.6147440000000  0.4781560000000 1.0
C      1  0.3918750000000  0.5497070000000  0.4160390000000 1.0
C      1  0.4633990000000  0.4263060000000  0.5783140000000 1.0
C      1  0.5669950000000  0.5206790000000  0.3410730000000 1.0
C      1  0.5165830000000  0.5333640000000  0.5787680000000 1.0
C      1  0.4493440000000  0.5244570000000  0.5459150000000 1.0
C      1  0.5591400000000  0.4870290000000  0.5562680000000 1.0
C      1  0.5468350000000  0.4847240000000  0.5827060000000 1.0
C      1  0.4402620000000  0.4604420000000  0.4058150000000 1.0
C      1  0.5844120000000  0.4991420000000  0.5522300000000 1.0
C      1  0.6062390000000  0.4932580000000  0.5674410000000 1.0
C      1  0.5362220000000  0.4373970000000  0.5812060000000 1.0
C      1  0.5570580000000  0.5511580000000  0.5591070000000 1.0
C      1  0.5099350000000  0.5217010000000  0.4626780000000 1.0
C      1  0.5719190000000  0.4289230000000  0.4439830000000 1.0
C      1  0.6103910000000  0.5232190000000  0.5185890000000 1.0
C      1  0.4377050000000  0.4392150000000  0.5800680000000 1.0
C      1  0.5261620000000  0.4310510000000  0.4824260000000 1.0
C      1  0.3903000000000  0.5336120000000  0.5126030000000 1.0
C      1  0.4761350000000  0.3937180000000  0.5091030000000 1.0
C      1  0.4243270000000  0.4887110000000  0.5105740000000 1.0
C      1  0.5203500000000  0.5831030000000  0.5651750000000 1.0
C      1  0.5376390000000  0.4581640000000  0.4890350000000 1.0
C      1  0.5332030000000  0.5956380000000  0.5390050000000 1.0
C      1  0.4042970000000  0.4617690000000  0.4395220000000 1.0
C      1  0.4487080000000  0.5274790000000  0.5176560000000 1.0
C      1  0.5459780000000  0.5513850000000  0.4033420000000 1.0
C      1  0.5104450000000  0.4419440000000  0.5358370000000 1.0
C      1  0.3963260000000  0.5246840000000  0.4081930000000 1.0
C      1  0.6030850000000  0.5236000000000  0.4727080000000 1.0
C      1  0.4921480000000  0.5903200000000  0.5697040000000 1.0
C      1  0.4839450000000  0.5635190000000  0.4190180000000 1.0
C      1  0.3880350000000  0.4940360000000  0.4748040000000 1.0
C      1  0.5085790000000  0.5601000000000  0.4319940000000 1.0
C      1  0.5840330000000  0.4610670000000  0.5135580000000 1.0
C      1  0.5472270000000  0.4859150000000  0.5292680000000 1.0
C      1  0.4071390000000  0.4350440000000  0.4282280000000 1.0
C      1  0.4890230000000  0.4365180000000  0.5191840000000 1.0
C      1  0.5172760000000  0.5680080000000  0.4781530000000 1.0
C      1  0.5557260000000  0.4676530000000  0.5096610000000 1.0
C      1  0.5751310000000  0.5007810000000  0.4414950000000 1.0
C      1  0.3885780000000  0.5184060000000  0.4877200000000 1.0
C      1  0.4199740000000  0.6004970000000  0.4637860000000 1.0
C      1  0.4903240000000  0.5509050000000  0.5490930000000 1.0
C      1  0.5091810000000  0.5494390000000  0.4586360000000 1.0
C      1  0.4466740000000  0.5505100000000  0.5591000000000 1.0
C      1  0.5477510000000  0.4110950000000  0.5183690000000 1.0
C      1  0.5267750000000  0.4647450000000  0.5890010000000 1.0
C      1  0.5512900000000  0.4931830000000  0.4274530000000 1.0
C      1  0.5367070000000  0.4745990000000  0.4430030000000 1.0
C      1  0.4581900000000  0.5533780000000  0.4237350000000 1.0
C      1  0.5049920000000  0.3919660000000  0.5127730000000 1.0
C      1  0.4874520000000  0.4810540000000  0.4388070000000 1.0
C      1  0.5112130000000  0.3856020000000  0.5409580000000 1.0
C      1  0.4714720000000  0.5497870000000  0.5738920000000 1.0
C      1  0.3807030000000  0.5183530000000  0.5347330000000 1.0
C      1  0.6136610000000  0.5500030000000  0.5313180000000 1.0
C      1  0.4624370000000  0.5699790000000  0.4993210000000 1.0
C      1  0.5468500000000  0.5261610000000  0.3908330000000 1.0
C      1  0.3860150000000  0.4922580000000  0.5392750000000 1.0
C      1  0.4538880000000  0.4213020000000  0.4735170000000 1.0
C      1  0.5573320000000  0.5235510000000  0.3651050000000 1.0
C      1  0.5004450000000  0.3992500000000  0.5637700000000 1.0
C      1  0.5146750000000  0.5630760000000  0.5058310000000 1.0
C      1  0.4046330000000  0.5575870000000  0.5196480000000 1.0
C      1  0.5214440000000  0.4256830000000  0.4547120000000 1.0
C      1  0.4272440000000  0.4342150000000  0.4091260000000 1.0
C      1  0.6005260000000  0.5699190000000  0.4528600000000 1.0
C      1  0.4033840000000  0.4762540000000  0.5242470000000 1.0
C      1  0.4489570000000  0.4864390000000  0.6011000000000 1.0
C      1  0.6033270000000  0.4154930000000  0.4778160000000 1.0
C      1  0.5846350000000  0.5150480000000  0.5286020000000 1.0
C      1  0.4091880000000  0.5014810000000  0.4093250000000 1.0
C      1  0.5819380000000  0.4385570000000  0.5341410000000 1.0
C      1  0.6002160000000  0.4635310000000  0.4660020000000 1.0
C      1  0.4591580000000  0.5141260000000  0.4524360000000 1.0
C      1  0.5371250000000  0.5032000000000  0.4046480000000 1.0
C      1  0.4910140000000  0.5648620000000  0.6418820000000 1.0
C      1  0.4054630000000  0.4464560000000  0.4869870000000 1.0
C      1  0.4728980000000  0.4834380000000  0.5854400000000 1.0
C      1  0.5630660000000  0.5284220000000  0.5139950000000 1.0
C      1  0.4674950000000  0.4657280000000  0.4537980000000 1.0
C      1  0.4886370000000  0.4788630000000  0.4104340000000 1.0
C      1  0.6080630000000  0.5492900000000  0.5597430000000 1.0
C      1  0.4494710000000  0.5153810000000  0.6069630000000 1.0
C      1  0.5761600000000  0.5180740000000  0.4647520000000 1.0
C      1  0.5560560000000  0.5004500000000  0.6033290000000 1.0
C      1  0.4721090000000  0.5058800000000  0.5662050000000 1.0
C      1  0.5946860000000  0.4044980000000  0.5006870000000 1.0
C      1  0.4337990000000  0.4625110000000  0.5970420000000 1.0
C      1  0.5002260000000  0.5129170000000  0.5672530000000 1.0
C      1  0.5238570000000  0.5017000000000  0.5283690000000 1.0
C      1  0.4345180000000  0.4885720000000  0.4860250000000 1.0
C      1  0.4619070000000  0.3971070000000  0.5342100000000 1.0
C      1  0.5338600000000  0.5891540000000  0.4670550000000 1.0
C      1  0.4798460000000  0.4342040000000  0.3968530000000 1.0
C      1  0.4948310000000  0.4257050000000  0.4442440000000 1.0
C      1  0.5860980000000  0.5950690000000  0.5288800000000 1.0
C      1  0.4713040000000  0.4047720000000  0.5601540000000 1.0
C      1  0.5107320000000  0.4924950000000  0.5516280000000 1.0
C      1  0.5954260000000  0.4808230000000  0.4438010000000 1.0
C      1  0.5775570000000  0.5813900000000  0.4453170000000 1.0
C      1  0.4201010000000  0.4779520000000  0.4196360000000 1.0
C      1  0.4700480000000  0.5943960000000  0.5497490000000 1.0
C      1  0.4565640000000  0.3525390000000  0.4526250000000 1.0
C      1  0.5000900000000  0.5444610000000  0.5221480000000 1.0
C      1  0.6020530000000  0.4757310000000  0.4934460000000 1.0
C      1  0.4182400000000  0.6107240000000  0.4883180000000 1.0
C      1  0.4880910000000  0.4365100000000  0.5900790000000 1.0
C      1  0.5321350000000  0.4791670000000  0.4703740000000 1.0
C      1  0.4551560000000  0.5244820000000  0.4236620000000 1.0
C      1  0.4528260000000  0.5445460000000  0.4950580000000 1.0
C      1  0.5762820000000  0.4136110000000  0.5195150000000 1.0
C      1  0.4004840000000  0.5701630000000  0.4307970000000 1.0
C      1  0.4730010000000  0.4791440000000  0.5048070000000 1.0
C      1  0.5115250000000  0.4913160000000  0.3987930000000 1.0
C      1  0.4841010000000  0.6104370000000  0.5299520000000 1.0
C      1  0.4491700000000  0.5386650000000  0.4676660000000 1.0
C      1  0.5348920000000  0.5673430000000  0.4234980000000 1.0
C      1  0.6125750000000  0.5484120000000  0.4636100000000 1.0
C      1  0.4181300000000  0.4314850000000  0.5609990000000 1.0
C      1  0.6039130000000  0.5755490000000  0.5215560000000 1.0
END
