TITL C-612605-9286-744 -8.410034500941e-07 125000 -505.034631398757 0 0 83 (C1) n - 1
REM
REM in /home/nfs/bkarasulu/CARBON/AIRSS/Generating-Clusters/TERSOFF/Only-C1/FIRE-HFTN
REM
REM
REM
REM
REM
REM ./C.cell (11c1c37f851c82e70ff6c80c92926a4b)
REM AIRSS Version 0.9.1 bugfix July 2018 build 013d7b7c2542+ Fri, 06 Jul 2018 19:26:36 +0100
REM compiler GCC version 9.2.1 20190827 (Red Hat 9.2.1-1)
REM options -cpp -mtune=generic -march=x86-64 -g -O0 -fpre-include=/usr/include/finclude/math-vector-fortran.h
REM seed -599506832 -1026011695 -235124232 -1529970469 1340585295 1252167607 590344599 1113036466 263543074 -2037545223 -581249225 260755012 -677727699 983896220 -1324018219 1111210224 1115588489 -1039233355 -1315573881 1742826427 -613965274 -420591328 1888921327 -994619087 155667857 594670488 -1295468245 -794179697 2032676843 122437389 338367512 -983898291 -1459816643
REM
CELL 1.54180   50.00000   50.00000   50.00000   90.00000   90.00000   90.00000
LATT -1
SFAC C  
C      1  0.5161870000000  0.5008780000000  0.5363920000000 1.0
C      1  0.4777580000000  0.5210840000000  0.4617410000000 1.0
C      1  0.5086840000000  0.5669350000000  0.4375430000000 1.0
C      1  0.4519190000000  0.4793550000000  0.4994000000000 1.0
C      1  0.5009210000000  0.5174410000000  0.5539560000000 1.0
C      1  0.5297910000000  0.4785410000000  0.5763680000000 1.0
C      1  0.5017810000000  0.4730040000000  0.4505370000000 1.0
C      1  0.5289850000000  0.5854180000000  0.4778300000000 1.0
C      1  0.4257150000000  0.5200150000000  0.4974320000000 1.0
C      1  0.4619170000000  0.4458430000000  0.4409900000000 1.0
C      1  0.5578030000000  0.5487410000000  0.5348300000000 1.0
C      1  0.5022350000000  0.4397280000000  0.5135820000000 1.0
C      1  0.5853660000000  0.5091900000000  0.5308650000000 1.0
C      1  0.5516400000000  0.5755470000000  0.4621230000000 1.0
C      1  0.5406050000000  0.4903660000000  0.5318980000000 1.0
C      1  0.4942670000000  0.5429940000000  0.4247030000000 1.0
C      1  0.4523940000000  0.4325510000000  0.4191840000000 1.0
C      1  0.4925400000000  0.4973340000000  0.4642900000000 1.0
C      1  0.4728130000000  0.4790660000000  0.5186910000000 1.0
C      1  0.4798060000000  0.4213170000000  0.5093950000000 1.0
C      1  0.4223580000000  0.5049990000000  0.5423070000000 1.0
C      1  0.4657140000000  0.5584640000000  0.5449490000000 1.0
C      1  0.5176830000000  0.3979120000000  0.5192750000000 1.0
C      1  0.4535030000000  0.4324630000000  0.5084740000000 1.0
C      1  0.4478000000000  0.5078710000000  0.4325250000000 1.0
C      1  0.4688070000000  0.6184270000000  0.4654200000000 1.0
C      1  0.4778310000000  0.5828430000000  0.4984560000000 1.0
C      1  0.5154780000000  0.4039940000000  0.4685830000000 1.0
C      1  0.5282310000000  0.5075000000000  0.4152990000000 1.0
C      1  0.4685290000000  0.5106690000000  0.5924790000000 1.0
C      1  0.4937770000000  0.5630880000000  0.5407620000000 1.0
C      1  0.5038700000000  0.4235820000000  0.4542170000000 1.0
C      1  0.5044100000000  0.5847460000000  0.4609210000000 1.0
C      1  0.4621400000000  0.5601370000000  0.4939910000000 1.0
C      1  0.5310620000000  0.4728740000000  0.4508290000000 1.0
C      1  0.5001450000000  0.4765860000000  0.5772570000000 1.0
C      1  0.5408980000000  0.5375600000000  0.5565750000000 1.0
C      1  0.5263010000000  0.5816690000000  0.5064030000000 1.0
C      1  0.4793600000000  0.4594580000000  0.5633800000000 1.0
C      1  0.5221830000000  0.3916610000000  0.4917860000000 1.0
C      1  0.5413120000000  0.4696250000000  0.4788430000000 1.0
C      1  0.4676230000000  0.4328150000000  0.5563410000000 1.0
C      1  0.4896510000000  0.4472730000000  0.4473020000000 1.0
C      1  0.5800420000000  0.5350780000000  0.4908320000000 1.0
C      1  0.5432470000000  0.5104850000000  0.5731130000000 1.0
C      1  0.5385250000000  0.5700280000000  0.4353390000000 1.0
C      1  0.4996840000000  0.5789640000000  0.5172320000000 1.0
C      1  0.5683950000000  0.4783210000000  0.4836230000000 1.0
C      1  0.5639850000000  0.5522660000000  0.4733130000000 1.0
C      1  0.4811880000000  0.4073870000000  0.5538070000000 1.0
C      1  0.5772320000000  0.5036420000000  0.4738970000000 1.0
C      1  0.5430190000000  0.4943370000000  0.4356660000000 1.0
C      1  0.5475830000000  0.5722770000000  0.5224290000000 1.0
C      1  0.5423570000000  0.4551120000000  0.5665300000000 1.0
C      1  0.5244080000000  0.5272070000000  0.4819230000000 1.0
C      1  0.4471920000000  0.4527020000000  0.4883570000000 1.0
C      1  0.5116370000000  0.5440950000000  0.5530550000000 1.0
C      1  0.4447020000000  0.4339250000000  0.5366830000000 1.0
C      1  0.4827330000000  0.5968540000000  0.4741730000000 1.0
C      1  0.5106240000000  0.5037470000000  0.4855140000000 1.0
C      1  0.4913450000000  0.5045560000000  0.5774260000000 1.0
C      1  0.4393170000000  0.4894380000000  0.4548820000000 1.0
C      1  0.4449330000000  0.4596160000000  0.4591280000000 1.0
C      1  0.5195570000000  0.4793840000000  0.4959440000000 1.0
C      1  0.4638710000000  0.4781500000000  0.5460440000000 1.0
C      1  0.5091450000000  0.5334560000000  0.3791510000000 1.0
C      1  0.4986790000000  0.4669630000000  0.5106620000000 1.0
C      1  0.5451200000000  0.5323330000000  0.4640550000000 1.0
C      1  0.5107540000000  0.5278660000000  0.4059380000000 1.0
C      1  0.4184860000000  0.4342940000000  0.5443470000000 1.0
C      1  0.5250460000000  0.4259090000000  0.5257480000000 1.0
C      1  0.4705010000000  0.5270830000000  0.4348440000000 1.0
C      1  0.4445740000000  0.5010820000000  0.5844350000000 1.0
C      1  0.5592440000000  0.5109190000000  0.4518790000000 1.0
C      1  0.5397960000000  0.4366420000000  0.5470160000000 1.0
C      1  0.5673820000000  0.4893950000000  0.5338610000000 1.0
C      1  0.4271620000000  0.5267450000000  0.5249840000000 1.0
C      1  0.4425240000000  0.5477590000000  0.5363220000000 1.0
C      1  0.4379060000000  0.4989680000000  0.4832240000000 1.0
C      1  0.4683790000000  0.5373540000000  0.4819460000000 1.0
C      1  0.4889810000000  0.3986450000000  0.5272260000000 1.0
C      1  0.4412480000000  0.4915860000000  0.5579350000000 1.0
C      1  0.5777030000000  0.5338650000000  0.5193950000000 1.0
END
