TITL C-612604-1799-1329 2519.08910204402 125000 -1020.73390974012 0 0 166 (C1) n - 1
REM
REM in /home/nfs/bkarasulu/CARBON/AIRSS/Generating-Clusters/TERSOFF/Only-C1/FIRE-HFTN
REM
REM
REM
REM
REM
REM ./C.cell (11c1c37f851c82e70ff6c80c92926a4b)
REM AIRSS Version 0.9.1 bugfix July 2018 build 013d7b7c2542+ Fri, 06 Jul 2018 19:26:36 +0100
REM compiler GCC version 9.2.1 20190827 (Red Hat 9.2.1-1)
REM options -cpp -mtune=generic -march=x86-64 -g -O0 -fpre-include=/usr/include/finclude/math-vector-fortran.h
REM seed -1179254888 1598595484 -392614565 -1606234240 1015603595 -279573357 267880908 -821437323 1283584693 -108468881 -114846983 578241110 -1545036487 -40220529 495934256 1616288281 -1286288430 269883138 -1075130162 -1327791838 773788717 -2047774747 -932481791 1589578632 -617278557 -1568222774 -1774367712 1128543371 -549833871 -72514448 -851467231 -620097226 2129017336
REM
CELL 1.54180   50.00000   50.00000   50.00000   90.00000   90.00000   90.00000
LATT -1
SFAC C  
C      1  0.6177410000000  0.4784180000000  0.5339100000000 1.0
C      1  0.4917990000000  0.5485950000000  0.4865190000000 1.0
C      1  0.5957690000000  0.5056880000000  0.5771270000000 1.0
C      1  0.5678580000000  0.5016670000000  0.5708620000000 1.0
C      1  0.6279880000000  0.6054440000000  0.5807570000000 1.0
C      1  0.5070080000000  0.5762840000000  0.5815100000000 1.0
C      1  0.4772670000000  0.5206760000000  0.5558570000000 1.0
C      1  0.5512960000000  0.5045840000000  0.4544640000000 1.0
C      1  0.6034380000000  0.6021430000000  0.5726350000000 1.0
C      1  0.4355910000000  0.4113870000000  0.5273230000000 1.0
C      1  0.5609860000000  0.5336050000000  0.4977280000000 1.0
C      1  0.4988840000000  0.4554810000000  0.4570800000000 1.0
C      1  0.4760750000000  0.5290810000000  0.4736730000000 1.0
C      1  0.6032760000000  0.4832920000000  0.5091840000000 1.0
C      1  0.4681260000000  0.4469250000000  0.3937610000000 1.0
C      1  0.5160370000000  0.4631050000000  0.5929820000000 1.0
C      1  0.5636010000000  0.4389360000000  0.5970160000000 1.0
C      1  0.5196780000000  0.4873200000000  0.5174040000000 1.0
C      1  0.5840600000000  0.5366430000000  0.3988300000000 1.0
C      1  0.5001250000000  0.5936110000000  0.5408650000000 1.0
C      1  0.5553190000000  0.4808790000000  0.5537720000000 1.0
C      1  0.5562420000000  0.4237790000000  0.4402930000000 1.0
C      1  0.4115020000000  0.4257400000000  0.5191770000000 1.0
C      1  0.4112690000000  0.5109790000000  0.5714390000000 1.0
C      1  0.4038810000000  0.4206680000000  0.4909090000000 1.0
C      1  0.5049000000000  0.5669370000000  0.3923400000000 1.0
C      1  0.5583720000000  0.4648300000000  0.4858160000000 1.0
C      1  0.5431960000000  0.4793720000000  0.4663310000000 1.0
C      1  0.5932580000000  0.5813630000000  0.3824750000000 1.0
C      1  0.4958250000000  0.4003670000000  0.4913580000000 1.0
C      1  0.4581530000000  0.5914870000000  0.5616990000000 1.0
C      1  0.4650480000000  0.5230080000000  0.4000740000000 1.0
C      1  0.5260860000000  0.4954070000000  0.4137540000000 1.0
C      1  0.4672750000000  0.4746050000000  0.3862020000000 1.0
C      1  0.4214440000000  0.5008270000000  0.5059290000000 1.0
C      1  0.6053430000000  0.5253040000000  0.5576630000000 1.0
C      1  0.5881500000000  0.6166320000000  0.4438960000000 1.0
C      1  0.4526530000000  0.4158590000000  0.5054530000000 1.0
C      1  0.4779860000000  0.4849060000000  0.4944480000000 1.0
C      1  0.4422170000000  0.5673950000000  0.5626550000000 1.0
C      1  0.5779690000000  0.6680450000000  0.4476050000000 1.0
C      1  0.5814490000000  0.5366110000000  0.5441490000000 1.0
C      1  0.3878090000000  0.5273450000000  0.4891690000000 1.0
C      1  0.5650460000000  0.4151800000000  0.4644650000000 1.0
C      1  0.5852920000000  0.4704350000000  0.4923050000000 1.0
C      1  0.4233180000000  0.5582080000000  0.4406480000000 1.0
C      1  0.4051840000000  0.4597610000000  0.4288030000000 1.0
C      1  0.5401730000000  0.4513370000000  0.6015250000000 1.0
C      1  0.4325050000000  0.5811930000000  0.4508750000000 1.0
C      1  0.5058070000000  0.4550000000000  0.5672580000000 1.0
C      1  0.4048750000000  0.4825240000000  0.4119200000000 1.0
C      1  0.6159990000000  0.4653570000000  0.5591520000000 1.0
C      1  0.5439740000000  0.4473230000000  0.5041420000000 1.0
C      1  0.4897870000000  0.4309190000000  0.4054060000000 1.0
C      1  0.4605540000000  0.4630300000000  0.4925410000000 1.0
C      1  0.5020860000000  0.4866810000000  0.4214520000000 1.0
C      1  0.4480170000000  0.4530480000000  0.4495170000000 1.0
C      1  0.5645870000000  0.4553150000000  0.5443000000000 1.0
C      1  0.5155070000000  0.4412710000000  0.5444990000000 1.0
C      1  0.5336570000000  0.5833740000000  0.5738160000000 1.0
C      1  0.5528800000000  0.5925320000000  0.5547720000000 1.0
C      1  0.5893390000000  0.5887070000000  0.4439750000000 1.0
C      1  0.4058210000000  0.5168660000000  0.4673760000000 1.0
C      1  0.4474390000000  0.5110390000000  0.5165540000000 1.0
C      1  0.5181620000000  0.4314670000000  0.4036550000000 1.0
C      1  0.5054710000000  0.5485730000000  0.4135960000000 1.0
C      1  0.5002250000000  0.4848260000000  0.6049540000000 1.0
C      1  0.5330950000000  0.4946390000000  0.5403510000000 1.0
C      1  0.4829110000000  0.4694600000000  0.5617520000000 1.0
C      1  0.5458270000000  0.5679940000000  0.4338300000000 1.0
C      1  0.5349370000000  0.5426560000000  0.5040590000000 1.0
C      1  0.4523080000000  0.4984890000000  0.3927350000000 1.0
C      1  0.4626910000000  0.5362390000000  0.5310760000000 1.0
C      1  0.5836020000000  0.6426860000000  0.4454220000000 1.0
C      1  0.3958210000000  0.5124060000000  0.5477390000000 1.0
C      1  0.4697570000000  0.4380740000000  0.5026290000000 1.0
C      1  0.4981190000000  0.3787510000000  0.5588130000000 1.0
C      1  0.5196700000000  0.5561660000000  0.4842290000000 1.0
C      1  0.5058090000000  0.5844830000000  0.3730940000000 1.0
C      1  0.4808150000000  0.5357750000000  0.4205600000000 1.0
C      1  0.4739280000000  0.3917970000000  0.5517750000000 1.0
C      1  0.4306570000000  0.4469810000000  0.4279230000000 1.0
C      1  0.4209910000000  0.4015130000000  0.4768210000000 1.0
C      1  0.4520590000000  0.6077420000000  0.5377170000000 1.0
C      1  0.4783590000000  0.5224640000000  0.4461700000000 1.0
C      1  0.5609140000000  0.4067010000000  0.5164160000000 1.0
C      1  0.5158280000000  0.4735730000000  0.4699720000000 1.0
C      1  0.4802980000000  0.5059610000000  0.6005990000000 1.0
C      1  0.4812070000000  0.4204500000000  0.4311160000000 1.0
C      1  0.3888110000000  0.4515600000000  0.4504280000000 1.0
C      1  0.4490820000000  0.3999730000000  0.4814810000000 1.0
C      1  0.5696340000000  0.5170890000000  0.4099110000000 1.0
C      1  0.5167950000000  0.6086190000000  0.4417930000000 1.0
C      1  0.4376060000000  0.5493080000000  0.5841220000000 1.0
C      1  0.5421160000000  0.5950570000000  0.5004790000000 1.0
C      1  0.5087750000000  0.3797600000000  0.4397560000000 1.0
C      1  0.3973370000000  0.4975920000000  0.5225430000000 1.0
C      1  0.4390540000000  0.5554340000000  0.5361890000000 1.0
C      1  0.4305080000000  0.4684280000000  0.5398960000000 1.0
C      1  0.6061570000000  0.5755000000000  0.4610450000000 1.0
C      1  0.5178650000000  0.4393670000000  0.5156340000000 1.0
C      1  0.6131380000000  0.4840450000000  0.5807620000000 1.0
C      1  0.5726590000000  0.5740410000000  0.4261360000000 1.0
C      1  0.4855840000000  0.3956860000000  0.4444090000000 1.0
C      1  0.6238400000000  0.5143940000000  0.5396840000000 1.0
C      1  0.5152350000000  0.3810460000000  0.4966180000000 1.0
C      1  0.4480680000000  0.4037810000000  0.5517470000000 1.0
C      1  0.5310690000000  0.5812760000000  0.4781010000000 1.0
C      1  0.5585030000000  0.3992120000000  0.4873580000000 1.0
C      1  0.4216710000000  0.4935330000000  0.4776890000000 1.0
C      1  0.5785650000000  0.5985200000000  0.5642630000000 1.0
C      1  0.5625870000000  0.4351100000000  0.5235250000000 1.0
C      1  0.4135650000000  0.5340650000000  0.4466700000000 1.0
C      1  0.4326350000000  0.5212650000000  0.5878790000000 1.0
C      1  0.5480590000000  0.5960610000000  0.5268260000000 1.0
C      1  0.6060230000000  0.4399520000000  0.5667430000000 1.0
C      1  0.5382790000000  0.3795260000000  0.4805090000000 1.0
C      1  0.4874700000000  0.5268130000000  0.5818180000000 1.0
C      1  0.4586810000000  0.6068600000000  0.4857060000000 1.0
C      1  0.5466900000000  0.3909030000000  0.5355880000000 1.0
C      1  0.4752350000000  0.4429170000000  0.4481140000000 1.0
C      1  0.5314400000000  0.5437540000000  0.4260700000000 1.0
C      1  0.4375450000000  0.4127900000000  0.5761130000000 1.0
C      1  0.4863510000000  0.5823950000000  0.5190580000000 1.0
C      1  0.5322860000000  0.5231380000000  0.5463290000000 1.0
C      1  0.4717760000000  0.4927350000000  0.5530700000000 1.0
C      1  0.5824880000000  0.5307730000000  0.5157740000000 1.0
C      1  0.6036540000000  0.5125840000000  0.5099980000000 1.0
C      1  0.4837810000000  0.4954110000000  0.4391830000000 1.0
C      1  0.3850790000000  0.5376420000000  0.5385170000000 1.0
C      1  0.5053450000000  0.4834360000000  0.4942180000000 1.0
C      1  0.4210290000000  0.5818360000000  0.4970050000000 1.0
C      1  0.4362490000000  0.5925340000000  0.4762060000000 1.0
C      1  0.4244870000000  0.4954070000000  0.3983600000000 1.0
C      1  0.4396470000000  0.4691070000000  0.4723650000000 1.0
C      1  0.4335540000000  0.4301170000000  0.5958700000000 1.0
C      1  0.4650980000000  0.6007590000000  0.5126390000000 1.0
C      1  0.4509950000000  0.5033460000000  0.6025320000000 1.0
C      1  0.3892040000000  0.4380760000000  0.4738940000000 1.0
C      1  0.5313590000000  0.3732040000000  0.4534920000000 1.0
C      1  0.5577320000000  0.5275960000000  0.5587230000000 1.0
C      1  0.4870570000000  0.5903050000000  0.5663960000000 1.0
C      1  0.5446670000000  0.5150440000000  0.4263170000000 1.0
C      1  0.4966510000000  0.3582600000000  0.5770840000000 1.0
C      1  0.4870460000000  0.5518040000000  0.5169250000000 1.0
C      1  0.4751940000000  0.3946150000000  0.4712750000000 1.0
C      1  0.5326030000000  0.5872220000000  0.4505340000000 1.0
C      1  0.5838650000000  0.5645260000000  0.4017520000000 1.0
C      1  0.4190060000000  0.5611400000000  0.5154330000000 1.0
C      1  0.5862880000000  0.4327700000000  0.5839010000000 1.0
C      1  0.4964020000000  0.4271860000000  0.5019890000000 1.0
C      1  0.4406830000000  0.4790060000000  0.6121620000000 1.0
C      1  0.4751700000000  0.6211080000000  0.4683170000000 1.0
C      1  0.4498210000000  0.4889770000000  0.5372930000000 1.0
C      1  0.3949990000000  0.5459140000000  0.5124810000000 1.0
C      1  0.4950270000000  0.6214530000000  0.4505370000000 1.0
C      1  0.5003970000000  0.5502880000000  0.5893980000000 1.0
C      1  0.5637870000000  0.5227550000000  0.4719790000000 1.0
C      1  0.3758830000000  0.5042690000000  0.5036410000000 1.0
C      1  0.4424190000000  0.4383650000000  0.4036590000000 1.0
C      1  0.4347390000000  0.4532910000000  0.6088480000000 1.0
C      1  0.5237140000000  0.3852600000000  0.5484430000000 1.0
C      1  0.5404080000000  0.4286370000000  0.4189330000000 1.0
C      1  0.4114540000000  0.4510210000000  0.5318520000000 1.0
C      1  0.4654640000000  0.5099320000000  0.4920720000000 1.0
C      1  0.5196120000000  0.5393280000000  0.5275460000000 1.0
END
