TITL C-612606-7351-727 0.490633130103387 125000 -411.205826505972 0 0 68 (C1) n - 1
REM
REM in /home/nfs/bkarasulu/CARBON/AIRSS/Generating-Clusters/TERSOFF/Only-C1/FIRE-HFTN
REM
REM
REM
REM
REM
REM ./C.cell (11c1c37f851c82e70ff6c80c92926a4b)
REM AIRSS Version 0.9.1 bugfix July 2018 build 013d7b7c2542+ Fri, 06 Jul 2018 19:26:36 +0100
REM compiler GCC version 9.2.1 20190827 (Red Hat 9.2.1-1)
REM options -cpp -mtune=generic -march=x86-64 -g -O0 -fpre-include=/usr/include/finclude/math-vector-fortran.h
REM seed -1975868302 -721750402 1024209341 -794888051 290517700 -571131728 2122638664 -1611031026 351934823 -1858809174 -1956039611 1728715798 2027057653 443224466 721312465 -958093666 -1450508490 -72449366 597818646 -1732147768 1327393753 1511936146 686135746 -1692332012 533187641 -685214942 -1151142259 486461653 -1802803334 1519061551 486154685 924287661 27455775
REM
CELL 1.54180   50.00000   50.00000   50.00000   90.00000   90.00000   90.00000
LATT -1
SFAC C  
C      1  0.5123130000000  0.5236170000000  0.5888220000000 1.0
C      1  0.5809230000000  0.5322420000000  0.4696260000000 1.0
C      1  0.5558910000000  0.4694000000000  0.5967920000000 1.0
C      1  0.5817910000000  0.4126460000000  0.5444400000000 1.0
C      1  0.5068020000000  0.5094960000000  0.6124500000000 1.0
C      1  0.5389860000000  0.4722290000000  0.6173780000000 1.0
C      1  0.4578000000000  0.5129640000000  0.4815970000000 1.0
C      1  0.4693350000000  0.3833560000000  0.4933010000000 1.0
C      1  0.4919730000000  0.5415390000000  0.4267730000000 1.0
C      1  0.5608210000000  0.4789100000000  0.5710520000000 1.0
C      1  0.4340450000000  0.4541010000000  0.4496010000000 1.0
C      1  0.5641700000000  0.4633470000000  0.5471250000000 1.0
C      1  0.5474150000000  0.4672350000000  0.5006630000000 1.0
C      1  0.4126780000000  0.4877810000000  0.5840860000000 1.0
C      1  0.4369750000000  0.4478540000000  0.4777610000000 1.0
C      1  0.5491360000000  0.4982800000000  0.4151910000000 1.0
C      1  0.4327880000000  0.5444070000000  0.5044150000000 1.0
C      1  0.5359930000000  0.5758700000000  0.4486450000000 1.0
C      1  0.4900890000000  0.5572220000000  0.4510090000000 1.0
C      1  0.5356480000000  0.5273790000000  0.4785840000000 1.0
C      1  0.5543930000000  0.5061490000000  0.5630760000000 1.0
C      1  0.5248330000000  0.4835780000000  0.4124690000000 1.0
C      1  0.4608260000000  0.4362520000000  0.4884030000000 1.0
C      1  0.5390250000000  0.4517920000000  0.4520890000000 1.0
C      1  0.4649140000000  0.4089400000000  0.4910620000000 1.0
C      1  0.5590530000000  0.5643490000000  0.4398760000000 1.0
C      1  0.4955560000000  0.5390370000000  0.5428270000000 1.0
C      1  0.4300770000000  0.4734520000000  0.4911140000000 1.0
C      1  0.5142000000000  0.5662740000000  0.4645560000000 1.0
C      1  0.5622110000000  0.5265080000000  0.4902050000000 1.0
C      1  0.5551210000000  0.5078050000000  0.5341560000000 1.0
C      1  0.4593040000000  0.5110630000000  0.4093570000000 1.0
C      1  0.5317270000000  0.4554100000000  0.4805100000000 1.0
C      1  0.5290790000000  0.5150890000000  0.4549110000000 1.0
C      1  0.5325200000000  0.5516040000000  0.5156240000000 1.0
C      1  0.4865710000000  0.5182360000000  0.4107710000000 1.0
C      1  0.5026310000000  0.4605000000000  0.4793100000000 1.0
C      1  0.4065800000000  0.4823840000000  0.6093100000000 1.0
C      1  0.4804200000000  0.4560930000000  0.4963760000000 1.0
C      1  0.4254960000000  0.5258410000000  0.5229700000000 1.0
C      1  0.4006710000000  0.4770930000000  0.6341440000000 1.0
C      1  0.5505010000000  0.5172350000000  0.4356640000000 1.0
C      1  0.5389970000000  0.5226360000000  0.5794200000000 1.0
C      1  0.4405160000000  0.4789460000000  0.5172240000000 1.0
C      1  0.5018010000000  0.4943510000000  0.3713930000000 1.0
C      1  0.5734300000000  0.4372860000000  0.5458760000000 1.0
C      1  0.5227290000000  0.5513510000000  0.4877530000000 1.0
C      1  0.4698140000000  0.4779220000000  0.5122170000000 1.0
C      1  0.4755890000000  0.5047470000000  0.5033750000000 1.0
C      1  0.5198790000000  0.4646160000000  0.4338210000000 1.0
C      1  0.4407570000000  0.4964290000000  0.4215350000000 1.0
C      1  0.5146080000000  0.5591630000000  0.5359810000000 1.0
C      1  0.5043580000000  0.4986590000000  0.3985000000000 1.0
C      1  0.5549170000000  0.5312050000000  0.5181400000000 1.0
C      1  0.5184610000000  0.4882090000000  0.6240260000000 1.0
C      1  0.5692040000000  0.5378330000000  0.4435510000000 1.0
C      1  0.4281990000000  0.4992720000000  0.5333040000000 1.0
C      1  0.4657600000000  0.5572390000000  0.4657800000000 1.0
C      1  0.5151040000000  0.5837420000000  0.5477410000000 1.0
C      1  0.5565930000000  0.4797170000000  0.5241410000000 1.0
C      1  0.4385250000000  0.4941340000000  0.4713080000000 1.0
C      1  0.5040640000000  0.5023240000000  0.4546870000000 1.0
C      1  0.4999650000000  0.4744360000000  0.4536100000000 1.0
C      1  0.4505690000000  0.5405720000000  0.4825430000000 1.0
C      1  0.4193100000000  0.4932710000000  0.5590380000000 1.0
C      1  0.4862150000000  0.5226610000000  0.5220690000000 1.0
C      1  0.4359940000000  0.4825290000000  0.4448740000000 1.0
C      1  0.4933600000000  0.5321860000000  0.5700010000000 1.0
END
