TITL C-612602-9376-480 4553.30112412853 125000 -976.575205752049 0 0 161 (C1) n - 1
REM
REM in /home/nfs/bkarasulu/CARBON/AIRSS/Generating-Clusters/TERSOFF/Only-C1/FIRE-HFTN
REM
REM
REM
REM
REM
REM ./C.cell (11c1c37f851c82e70ff6c80c92926a4b)
REM AIRSS Version 0.9.1 bugfix July 2018 build 013d7b7c2542+ Fri, 06 Jul 2018 19:26:36 +0100
REM compiler GCC version 9.2.1 20190827 (Red Hat 9.2.1-1)
REM options -cpp -mtune=generic -march=x86-64 -g -O0 -fpre-include=/usr/include/finclude/math-vector-fortran.h
REM seed 432683509 -2086524123 -1670009153 886074508 561370413 1538095588 277492436 -1373965693 1651783589 2046293106 563040465 1576492339 -2133216277 -729460149 1945807510 912771357 440872824 849547154 1090554959 -859429702 -1424723906 -197273084 962143889 1470942275 -423943770 1474207761 2042494401 481620066 -1338215581 -103654543 466266847 1241433574 387639648
REM
CELL 1.54180   50.00000   50.00000   50.00000   90.00000   90.00000   90.00000
LATT -1
SFAC C  
C      1  0.4629320000000  0.4423580000000  0.5192580000000 1.0
C      1  0.4689980000000  0.5320980000000  0.5053940000000 1.0
C      1  0.4313810000000  0.5605480000000  0.4602730000000 1.0
C      1  0.4829270000000  0.5700730000000  0.5607050000000 1.0
C      1  0.5312210000000  0.5692980000000  0.4535760000000 1.0
C      1  0.4033540000000  0.4698060000000  0.4440570000000 1.0
C      1  0.4703800000000  0.5231940000000  0.5507240000000 1.0
C      1  0.4484540000000  0.4067360000000  0.4443270000000 1.0
C      1  0.4877130000000  0.4805990000000  0.5788750000000 1.0
C      1  0.4476040000000  0.4971510000000  0.4868360000000 1.0
C      1  0.4884680000000  0.3942330000000  0.5346050000000 1.0
C      1  0.5113830000000  0.5408940000000  0.5249600000000 1.0
C      1  0.4895020000000  0.6123550000000  0.5274300000000 1.0
C      1  0.5082640000000  0.4989230000000  0.4658600000000 1.0
C      1  0.4083860000000  0.5003720000000  0.4051930000000 1.0
C      1  0.4326990000000  0.5632110000000  0.5121230000000 1.0
C      1  0.5117430000000  0.4254000000000  0.5667740000000 1.0
C      1  0.4758260000000  0.4075890000000  0.4341290000000 1.0
C      1  0.5253490000000  0.5323420000000  0.4063070000000 1.0
C      1  0.5492030000000  0.4644410000000  0.4923970000000 1.0
C      1  0.5125810000000  0.4048400000000  0.5460300000000 1.0
C      1  0.5145000000000  0.5090320000000  0.4932250000000 1.0
C      1  0.5104040000000  0.5764970000000  0.5668780000000 1.0
C      1  0.5039830000000  0.4158420000000  0.4325280000000 1.0
C      1  0.4008120000000  0.4460170000000  0.4860640000000 1.0
C      1  0.3934450000000  0.5190940000000  0.5091540000000 1.0
C      1  0.3851990000000  0.4891320000000  0.5057060000000 1.0
C      1  0.5016720000000  0.5153290000000  0.4094840000000 1.0
C      1  0.4118800000000  0.4461940000000  0.4596500000000 1.0
C      1  0.4267070000000  0.5295290000000  0.5810480000000 1.0
C      1  0.3702980000000  0.4842160000000  0.4807430000000 1.0
C      1  0.5219640000000  0.5600410000000  0.5870060000000 1.0
C      1  0.3910160000000  0.5164730000000  0.4586220000000 1.0
C      1  0.5761120000000  0.5082320000000  0.3926610000000 1.0
C      1  0.5696880000000  0.4087530000000  0.4774670000000 1.0
C      1  0.5832920000000  0.4138510000000  0.5007530000000 1.0
C      1  0.3970400000000  0.4623110000000  0.5101420000000 1.0
C      1  0.5971480000000  0.4450020000000  0.5696190000000 1.0
C      1  0.5186880000000  0.5939530000000  0.4620540000000 1.0
C      1  0.4199130000000  0.5269020000000  0.4055700000000 1.0
C      1  0.5631200000000  0.4849980000000  0.3899100000000 1.0
C      1  0.4590190000000  0.5192690000000  0.4418740000000 1.0
C      1  0.6003290000000  0.4568930000000  0.5163420000000 1.0
C      1  0.4159010000000  0.4555140000000  0.5300540000000 1.0
C      1  0.6152350000000  0.5228350000000  0.5534510000000 1.0
C      1  0.4938560000000  0.5997040000000  0.4482010000000 1.0
C      1  0.5282620000000  0.6050390000000  0.4872180000000 1.0
C      1  0.6037720000000  0.5214430000000  0.5081240000000 1.0
C      1  0.4561970000000  0.4512090000000  0.4420810000000 1.0
C      1  0.4128500000000  0.4455770000000  0.5561130000000 1.0
C      1  0.3866200000000  0.4444460000000  0.5689590000000 1.0
C      1  0.4361720000000  0.4324510000000  0.4504620000000 1.0
C      1  0.6184430000000  0.4918220000000  0.4410520000000 1.0
C      1  0.6087370000000  0.5674450000000  0.4983550000000 1.0
C      1  0.5211250000000  0.5886420000000  0.5183780000000 1.0
C      1  0.4189890000000  0.4778410000000  0.4207810000000 1.0
C      1  0.4907720000000  0.4376580000000  0.4801230000000 1.0
C      1  0.4067320000000  0.5580280000000  0.4742320000000 1.0
C      1  0.5153960000000  0.5168560000000  0.6071750000000 1.0
C      1  0.4676030000000  0.5902570000000  0.4834220000000 1.0
C      1  0.5437700000000  0.5241350000000  0.6051380000000 1.0
C      1  0.5491210000000  0.5061970000000  0.5490370000000 1.0
C      1  0.5561890000000  0.5416000000000  0.4987350000000 1.0
C      1  0.4866010000000  0.4273030000000  0.5800000000000 1.0
C      1  0.4151920000000  0.4279810000000  0.5997310000000 1.0
C      1  0.4783950000000  0.5752950000000  0.5043190000000 1.0
C      1  0.4233750000000  0.3597840000000  0.4547310000000 1.0
C      1  0.4728630000000  0.4243580000000  0.4994510000000 1.0
C      1  0.5542230000000  0.4929350000000  0.5751560000000 1.0
C      1  0.4411800000000  0.4595570000000  0.5187740000000 1.0
C      1  0.4475510000000  0.5377670000000  0.4626400000000 1.0
C      1  0.5013190000000  0.4931350000000  0.5989580000000 1.0
C      1  0.5414420000000  0.4678490000000  0.5809240000000 1.0
C      1  0.5494430000000  0.4066870000000  0.4590320000000 1.0
C      1  0.5977000000000  0.4628340000000  0.4889280000000 1.0
C      1  0.4685540000000  0.4783680000000  0.4036350000000 1.0
C      1  0.5332940000000  0.4053730000000  0.5266750000000 1.0
C      1  0.4479820000000  0.5371830000000  0.5961810000000 1.0
C      1  0.5947340000000  0.4252300000000  0.5508540000000 1.0
C      1  0.4866830000000  0.5248700000000  0.4321540000000 1.0
C      1  0.5035610000000  0.5269350000000  0.4535290000000 1.0
C      1  0.5648970000000  0.4893540000000  0.5313820000000 1.0
C      1  0.6043860000000  0.5099710000000  0.4557510000000 1.0
C      1  0.4447910000000  0.5213460000000  0.4170380000000 1.0
C      1  0.5108320000000  0.4393840000000  0.4173730000000 1.0
C      1  0.5083090000000  0.3824280000000  0.4671780000000 1.0
C      1  0.5830820000000  0.4961170000000  0.5790090000000 1.0
C      1  0.4771170000000  0.4761520000000  0.5525240000000 1.0
C      1  0.5323790000000  0.4909100000000  0.4508590000000 1.0
C      1  0.5690460000000  0.5903180000000  0.5063460000000 1.0
C      1  0.3950980000000  0.5330040000000  0.4819000000000 1.0
C      1  0.5734930000000  0.4741440000000  0.4795360000000 1.0
C      1  0.6205670000000  0.5452680000000  0.5114330000000 1.0
C      1  0.4732950000000  0.5437410000000  0.6038050000000 1.0
C      1  0.5310100000000  0.4575080000000  0.5364960000000 1.0
C      1  0.5559990000000  0.5037440000000  0.4494530000000 1.0
C      1  0.4168240000000  0.5554160000000  0.4046080000000 1.0
C      1  0.4307340000000  0.5762020000000  0.4165650000000 1.0
C      1  0.4121460000000  0.3372660000000  0.4615480000000 1.0
C      1  0.4485760000000  0.4868680000000  0.5141960000000 1.0
C      1  0.4474630000000  0.4686190000000  0.4201430000000 1.0
C      1  0.4616500000000  0.4979600000000  0.5389830000000 1.0
C      1  0.4905990000000  0.3808290000000  0.4873540000000 1.0
C      1  0.5178990000000  0.4429570000000  0.4934730000000 1.0
C      1  0.4115260000000  0.5632910000000  0.5306320000000 1.0
C      1  0.5933750000000  0.5234620000000  0.5725410000000 1.0
C      1  0.6014950000000  0.5617310000000  0.4693330000000 1.0
C      1  0.5937830000000  0.4294550000000  0.5227730000000 1.0
C      1  0.5846720000000  0.5676570000000  0.5491610000000 1.0
C      1  0.6291200000000  0.5441750000000  0.5393530000000 1.0
C      1  0.5777190000000  0.5029230000000  0.4693820000000 1.0
C      1  0.3853480000000  0.4887590000000  0.4566250000000 1.0
C      1  0.5729260000000  0.5329500000000  0.4027990000000 1.0
C      1  0.5796090000000  0.5700230000000  0.4519240000000 1.0
C      1  0.5258630000000  0.5907320000000  0.5473910000000 1.0
C      1  0.4598670000000  0.4300110000000  0.5785450000000 1.0
C      1  0.5038780000000  0.5673460000000  0.5138300000000 1.0
C      1  0.5924440000000  0.5812310000000  0.5181980000000 1.0
C      1  0.4350650000000  0.3826910000000  0.4483720000000 1.0
C      1  0.5295640000000  0.4486770000000  0.5635170000000 1.0
C      1  0.5957480000000  0.4731000000000  0.5653450000000 1.0
C      1  0.5313080000000  0.4178150000000  0.5026540000000 1.0
C      1  0.4100790000000  0.5255700000000  0.5598130000000 1.0
C      1  0.4942630000000  0.5195270000000  0.5639230000000 1.0
C      1  0.4322470000000  0.4345460000000  0.5767740000000 1.0
C      1  0.5547130000000  0.5641810000000  0.4377790000000 1.0
C      1  0.5755580000000  0.5480140000000  0.5708290000000 1.0
C      1  0.5943240000000  0.4799950000000  0.5354920000000 1.0
C      1  0.4801250000000  0.4537280000000  0.4590580000000 1.0
C      1  0.5019590000000  0.5429600000000  0.6023620000000 1.0
C      1  0.4798410000000  0.3975300000000  0.5074570000000 1.0
C      1  0.5496480000000  0.5474650000000  0.5874590000000 1.0
C      1  0.4601450000000  0.5572490000000  0.5181850000000 1.0
C      1  0.3887070000000  0.4340310000000  0.5944850000000 1.0
C      1  0.5156980000000  0.4649990000000  0.4048640000000 1.0
C      1  0.5329270000000  0.5316830000000  0.4866580000000 1.0
C      1  0.5413730000000  0.4701820000000  0.3943630000000 1.0
C      1  0.4427330000000  0.5802980000000  0.4425700000000 1.0
C      1  0.4837390000000  0.4553090000000  0.5338120000000 1.0
C      1  0.4602240000000  0.4936640000000  0.4603590000000 1.0
C      1  0.5209720000000  0.5457580000000  0.4646470000000 1.0
C      1  0.4490570000000  0.5252020000000  0.4879300000000 1.0
C      1  0.4395960000000  0.6044150000000  0.5442060000000 1.0
C      1  0.4950780000000  0.5219360000000  0.5097640000000 1.0
C      1  0.6127820000000  0.5370310000000  0.4592940000000 1.0
C      1  0.4662800000000  0.5514610000000  0.5465830000000 1.0
C      1  0.4015580000000  0.5356990000000  0.5341570000000 1.0
C      1  0.4665960000000  0.5927040000000  0.4547350000000 1.0
C      1  0.5504250000000  0.5453370000000  0.4149800000000 1.0
C      1  0.4646830000000  0.6126380000000  0.5366030000000 1.0
C      1  0.4960700000000  0.4867190000000  0.4034150000000 1.0
C      1  0.6088870000000  0.5049420000000  0.5307610000000 1.0
C      1  0.4854790000000  0.4811420000000  0.4617910000000 1.0
C      1  0.4175950000000  0.5876120000000  0.5456580000000 1.0
C      1  0.5516170000000  0.5684690000000  0.5094560000000 1.0
C      1  0.5221480000000  0.4014430000000  0.4508310000000 1.0
C      1  0.5559280000000  0.6107200000000  0.4916910000000 1.0
C      1  0.5786190000000  0.5229520000000  0.4938150000000 1.0
C      1  0.5081890000000  0.4538440000000  0.5209740000000 1.0
C      1  0.5323780000000  0.5277490000000  0.5403060000000 1.0
C      1  0.5498270000000  0.4695980000000  0.5197390000000 1.0
END
