TITL C-612603-7354-1132 172274.880396769 125000 -1182.10054134502 0 0 196 (C1) n - 1
REM
REM in /home/nfs/bkarasulu/CARBON/AIRSS/Generating-Clusters/TERSOFF/Only-C1/FIRE-HFTN
REM
REM
REM
REM
REM
REM ./C.cell (11c1c37f851c82e70ff6c80c92926a4b)
REM AIRSS Version 0.9.1 bugfix July 2018 build 013d7b7c2542+ Fri, 06 Jul 2018 19:26:36 +0100
REM compiler GCC version 9.2.1 20190827 (Red Hat 9.2.1-1)
REM options -cpp -mtune=generic -march=x86-64 -g -O0 -fpre-include=/usr/include/finclude/math-vector-fortran.h
REM seed 650929898 -1840055032 542413375 -40041173 -1806452877 -543493724 -1450036394 -1252781629 -809696159 -312080560 -932062249 1620189189 -21282451 -1561782099 -1280945096 227543932 -1018355467 -1417830312 1661187559 1909023767 -2081150164 1857942239 -362729762 630917605 -1974345651 1376868242 428232491 69178416 964330738 -1894438284 -587549868 1247769543 -1144565736
REM
CELL 1.54180   50.00000   50.00000   50.00000   90.00000   90.00000   90.00000
LATT -1
SFAC C  
C      1  0.4597040000000  0.3959030000000  0.4972520000000 1.0
C      1  0.6164360000000  0.5506960000000  0.4877370000000 1.0
C      1  0.5027200000000  0.4046870000000  0.5581010000000 1.0
C      1  0.3948710000000  0.4191690000000  0.5476790000000 1.0
C      1  0.5647650000000  0.4364640000000  0.3783000000000 1.0
C      1  0.4817040000000  0.4230360000000  0.5562360000000 1.0
C      1  0.6040570000000  0.4908230000000  0.4968810000000 1.0
C      1  0.5540680000000  0.5515030000000  0.4525550000000 1.0
C      1  0.6079450000000  0.4549690000000  0.4628770000000 1.0
C      1  0.4346710000000  0.4646250000000  0.5174110000000 1.0
C      1  0.4415460000000  0.4070880000000  0.4518240000000 1.0
C      1  0.4078520000000  0.4765150000000  0.5586030000000 1.0
C      1  0.4493530000000  0.4139790000000  0.4268160000000 1.0
C      1  0.5132750000000  0.4341690000000  0.4408030000000 1.0
C      1  0.4910930000000  0.5406270000000  0.6062640000000 1.0
C      1  0.5610400000000  0.5916510000000  0.6054000000000 1.0
C      1  0.6072430000000  0.5797820000000  0.5566450000000 1.0
C      1  0.5727350000000  0.4712580000000  0.5751880000000 1.0
C      1  0.5378490000000  0.4450060000000  0.4565060000000 1.0
C      1  0.5783690000000  0.4315710000000  0.4006040000000 1.0
C      1  0.5895680000000  0.5595410000000  0.4923920000000 1.0
C      1  0.5403380000000  0.5158000000000  0.5471880000000 1.0
C      1  0.5073560000000  0.5494350000000  0.4706610000000 1.0
C      1  0.4865300000000  0.3924230000000  0.4895490000000 1.0
C      1  0.5772960000000  0.4393920000000  0.6465320000000 1.0
C      1  0.4381370000000  0.4555830000000  0.4909070000000 1.0
C      1  0.6262670000000  0.5268340000000  0.4452350000000 1.0
C      1  0.3501920000000  0.4396090000000  0.4564000000000 1.0
C      1  0.3974170000000  0.4334990000000  0.4995370000000 1.0
C      1  0.4187180000000  0.5339940000000  0.4117420000000 1.0
C      1  0.5325380000000  0.5682410000000  0.5411690000000 1.0
C      1  0.4314430000000  0.6023220000000  0.5107400000000 1.0
C      1  0.6439430000000  0.4595070000000  0.5064810000000 1.0
C      1  0.5302920000000  0.5872060000000  0.4841940000000 1.0
C      1  0.5555780000000  0.4937150000000  0.4317380000000 1.0
C      1  0.5494010000000  0.5408800000000  0.5921340000000 1.0
C      1  0.5056080000000  0.5502960000000  0.3785000000000 1.0
C      1  0.5127530000000  0.3950730000000  0.4943870000000 1.0
C      1  0.3934320000000  0.5641770000000  0.4981410000000 1.0
C      1  0.5084390000000  0.5163530000000  0.6069940000000 1.0
C      1  0.5847570000000  0.4890070000000  0.4301550000000 1.0
C      1  0.5815590000000  0.4327990000000  0.4282590000000 1.0
C      1  0.4971660000000  0.5068590000000  0.5269250000000 1.0
C      1  0.5714970000000  0.5440510000000  0.4761550000000 1.0
C      1  0.5603220000000  0.4259650000000  0.4459600000000 1.0
C      1  0.4552180000000  0.3929170000000  0.5250890000000 1.0
C      1  0.5098880000000  0.4064710000000  0.4367620000000 1.0
C      1  0.5034670000000  0.4877470000000  0.5968380000000 1.0
C      1  0.4153970000000  0.5542130000000  0.5614170000000 1.0
C      1  0.5349750000000  0.5968700000000  0.5345890000000 1.0
C      1  0.4117740000000  0.4080710000000  0.4939630000000 1.0
C      1  0.5611740000000  0.5243830000000  0.5693020000000 1.0
C      1  0.4629090000000  0.5042000000000  0.5155880000000 1.0
C      1  0.4670180000000  0.5410700000000  0.4426020000000 1.0
C      1  0.3968570000000  0.4854960000000  0.4907080000000 1.0
C      1  0.5134780000000  0.5596820000000  0.5600040000000 1.0
C      1  0.4322220000000  0.5029740000000  0.5964540000000 1.0
C      1  0.5427370000000  0.4472250000000  0.3678650000000 1.0
C      1  0.5015290000000  0.5801960000000  0.5767690000000 1.0
C      1  0.4446460000000  0.5409000000000  0.4000970000000 1.0
C      1  0.5751830000000  0.5703680000000  0.5179210000000 1.0
C      1  0.4602710000000  0.5939940000000  0.5584560000000 1.0
C      1  0.5606350000000  0.4803240000000  0.6307820000000 1.0
C      1  0.5059400000000  0.6036440000000  0.4843220000000 1.0
C      1  0.5832290000000  0.5360960000000  0.5521830000000 1.0
C      1  0.5061820000000  0.5778540000000  0.4186980000000 1.0
C      1  0.4938310000000  0.4466320000000  0.3732770000000 1.0
C      1  0.5471580000000  0.4938270000000  0.4013860000000 1.0
C      1  0.5800560000000  0.4169220000000  0.5248320000000 1.0
C      1  0.3951540000000  0.5663020000000  0.4502330000000 1.0
C      1  0.4374240000000  0.4686930000000  0.4398790000000 1.0
C      1  0.5550450000000  0.4995090000000  0.6113440000000 1.0
C      1  0.4219860000000  0.5982040000000  0.4832980000000 1.0
C      1  0.5899590000000  0.5630640000000  0.5440200000000 1.0
C      1  0.5833750000000  0.5181520000000  0.5309040000000 1.0
C      1  0.5532000000000  0.6046380000000  0.4877700000000 1.0
C      1  0.4572980000000  0.4902760000000  0.5938130000000 1.0
C      1  0.4991810000000  0.4541680000000  0.4290560000000 1.0
C      1  0.4587890000000  0.4261650000000  0.4044900000000 1.0
C      1  0.4145240000000  0.5433110000000  0.4411440000000 1.0
C      1  0.4975870000000  0.6136850000000  0.5092120000000 1.0
C      1  0.5157650000000  0.4968240000000  0.4846230000000 1.0
C      1  0.3510970000000  0.4812340000000  0.4845780000000 1.0
C      1  0.5489590000000  0.5536570000000  0.5232210000000 1.0
C      1  0.4709170000000  0.4476910000000  0.3899480000000 1.0
C      1  0.3847720000000  0.5237190000000  0.5377060000000 1.0
C      1  0.5757610000000  0.4557200000000  0.6227300000000 1.0
C      1  0.5298450000000  0.3884700000000  0.4399960000000 1.0
C      1  0.3646940000000  0.5100720000000  0.5236810000000 1.0
C      1  0.5346130000000  0.4127760000000  0.4961120000000 1.0
C      1  0.4746880000000  0.5107160000000  0.4512070000000 1.0
C      1  0.5730530000000  0.5045770000000  0.3896780000000 1.0
C      1  0.6072650000000  0.4225110000000  0.5182690000000 1.0
C      1  0.3739320000000  0.5733540000000  0.4345330000000 1.0
C      1  0.5190090000000  0.4598150000000  0.3756520000000 1.0
C      1  0.5822120000000  0.4538370000000  0.5955930000000 1.0
C      1  0.4388620000000  0.6032990000000  0.4614020000000 1.0
C      1  0.4434130000000  0.6000440000000  0.5354330000000 1.0
C      1  0.4190990000000  0.4848520000000  0.3979560000000 1.0
C      1  0.3705710000000  0.4963410000000  0.4997320000000 1.0
C      1  0.4755250000000  0.5552020000000  0.5339960000000 1.0
C      1  0.5462140000000  0.5243860000000  0.5177840000000 1.0
C      1  0.4813030000000  0.5554560000000  0.5075740000000 1.0
C      1  0.4898830000000  0.6004890000000  0.5578940000000 1.0
C      1  0.4374040000000  0.4038940000000  0.4799380000000 1.0
C      1  0.5710040000000  0.4716590000000  0.5249200000000 1.0
C      1  0.4696660000000  0.4464000000000  0.6069290000000 1.0
C      1  0.4087550000000  0.4673940000000  0.3796830000000 1.0
C      1  0.5939240000000  0.4678680000000  0.4828120000000 1.0
C      1  0.5601120000000  0.4590360000000  0.5506090000000 1.0
C      1  0.3960530000000  0.4397620000000  0.5282820000000 1.0
C      1  0.4985040000000  0.5003660000000  0.4377160000000 1.0
C      1  0.4118730000000  0.4901460000000  0.5813860000000 1.0
C      1  0.5402110000000  0.4756240000000  0.4492310000000 1.0
C      1  0.5553480000000  0.5672460000000  0.5982460000000 1.0
C      1  0.3620750000000  0.4572540000000  0.4731460000000 1.0
C      1  0.6267130000000  0.5272910000000  0.4740110000000 1.0
C      1  0.5960260000000  0.5053170000000  0.4091510000000 1.0
C      1  0.4831700000000  0.5598100000000  0.4584200000000 1.0
C      1  0.5694400000000  0.4304010000000  0.5475060000000 1.0
C      1  0.4055020000000  0.5424980000000  0.5382900000000 1.0
C      1  0.4678600000000  0.4743620000000  0.4023360000000 1.0
C      1  0.4554370000000  0.4798190000000  0.5269040000000 1.0
C      1  0.4325490000000  0.5313930000000  0.5990870000000 1.0
C      1  0.5643680000000  0.4521010000000  0.6675930000000 1.0
C      1  0.4408060000000  0.5155400000000  0.4990710000000 1.0
C      1  0.5366610000000  0.5217420000000  0.6101140000000 1.0
C      1  0.4724980000000  0.4901370000000  0.4734800000000 1.0
C      1  0.4407500000000  0.5573130000000  0.4446350000000 1.0
C      1  0.4908010000000  0.5847320000000  0.4428470000000 1.0
C      1  0.4075570000000  0.5100960000000  0.4023360000000 1.0
C      1  0.5303520000000  0.6124170000000  0.4434660000000 1.0
C      1  0.4404580000000  0.4003420000000  0.5485800000000 1.0
C      1  0.4074310000000  0.3887090000000  0.5153710000000 1.0
C      1  0.5610190000000  0.5219780000000  0.4910130000000 1.0
C      1  0.3391540000000  0.5100280000000  0.5336070000000 1.0
C      1  0.5386300000000  0.3666440000000  0.5629710000000 1.0
C      1  0.5893120000000  0.4938780000000  0.5211650000000 1.0
C      1  0.5549850000000  0.5715670000000  0.4296440000000 1.0
C      1  0.5509680000000  0.5237700000000  0.4392670000000 1.0
C      1  0.4419360000000  0.4781940000000  0.4137640000000 1.0
C      1  0.4378660000000  0.5442930000000  0.4992620000000 1.0
C      1  0.4707520000000  0.5440350000000  0.4121660000000 1.0
C      1  0.5150160000000  0.5031840000000  0.5504410000000 1.0
C      1  0.5163300000000  0.4815880000000  0.5698840000000 1.0
C      1  0.5294200000000  0.4608040000000  0.5526390000000 1.0
C      1  0.5601100000000  0.5987390000000  0.5157550000000 1.0
C      1  0.3895130000000  0.4563480000000  0.4835330000000 1.0
C      1  0.5207620000000  0.3855440000000  0.5612080000000 1.0
C      1  0.4608540000000  0.5582900000000  0.4897890000000 1.0
C      1  0.5543280000000  0.4764860000000  0.6588020000000 1.0
C      1  0.5519670000000  0.6192730000000  0.4625450000000 1.0
C      1  0.4122890000000  0.5194660000000  0.4594730000000 1.0
C      1  0.4946930000000  0.4769620000000  0.4893460000000 1.0
C      1  0.6052160000000  0.4411290000000  0.4403720000000 1.0
C      1  0.5076800000000  0.6085080000000  0.5354550000000 1.0
C      1  0.4006270000000  0.5794850000000  0.4759350000000 1.0
C      1  0.4416050000000  0.5859410000000  0.4392920000000 1.0
C      1  0.5331060000000  0.5896130000000  0.4240680000000 1.0
C      1  0.4682140000000  0.4946800000000  0.5678770000000 1.0
C      1  0.6286990000000  0.4383820000000  0.5137660000000 1.0
C      1  0.4557520000000  0.5732430000000  0.5810100000000 1.0
C      1  0.4383970000000  0.4580630000000  0.4642760000000 1.0
C      1  0.4123020000000  0.4618240000000  0.5350240000000 1.0
C      1  0.5669840000000  0.4976390000000  0.5843580000000 1.0
C      1  0.4854140000000  0.4489700000000  0.5458550000000 1.0
C      1  0.4818880000000  0.5661570000000  0.5942440000000 1.0
C      1  0.4694130000000  0.4725210000000  0.5496810000000 1.0
C      1  0.6506160000000  0.4852840000000  0.4956140000000 1.0
C      1  0.5543220000000  0.3979150000000  0.4468440000000 1.0
C      1  0.4338580000000  0.5545590000000  0.5824900000000 1.0
C      1  0.4957250000000  0.4809690000000  0.4147000000000 1.0
C      1  0.6164350000000  0.5216020000000  0.4203250000000 1.0
C      1  0.4782620000000  0.5205550000000  0.5643700000000 1.0
C      1  0.5028610000000  0.6076780000000  0.4560730000000 1.0
C      1  0.4420700000000  0.5961610000000  0.4138870000000 1.0
C      1  0.5286140000000  0.4394150000000  0.4861790000000 1.0
C      1  0.5207080000000  0.4816330000000  0.3951540000000 1.0
C      1  0.5168910000000  0.5176630000000  0.5058750000000 1.0
C      1  0.4137460000000  0.5518250000000  0.5129950000000 1.0
C      1  0.5309460000000  0.5635750000000  0.4683390000000 1.0
C      1  0.5600770000000  0.4072180000000  0.5071430000000 1.0
C      1  0.4944740000000  0.5573870000000  0.4024550000000 1.0
C      1  0.6765520000000  0.4929300000000  0.4918130000000 1.0
C      1  0.5194780000000  0.4937110000000  0.4569500000000 1.0
C      1  0.5029730000000  0.5417240000000  0.4968550000000 1.0
C      1  0.4179270000000  0.5041280000000  0.4832700000000 1.0
C      1  0.5104050000000  0.4527490000000  0.5315790000000 1.0
C      1  0.4561320000000  0.4159170000000  0.5674380000000 1.0
C      1  0.4123780000000  0.3974960000000  0.5427990000000 1.0
C      1  0.4547950000000  0.4276300000000  0.5935270000000 1.0
C      1  0.5094940000000  0.4549140000000  0.5024120000000 1.0
C      1  0.4905960000000  0.5431690000000  0.5537950000000 1.0
C      1  0.4780490000000  0.4736610000000  0.6054720000000 1.0
C      1  0.6284970000000  0.5024590000000  0.4890020000000 1.0
C      1  0.5720160000000  0.4588100000000  0.4989340000000 1.0
END
