TITL C-612600-6631-320 1.78926232886046 125000 -927.628354149704 0 0 153 (C1) n - 1
REM
REM in /home/nfs/bkarasulu/CARBON/AIRSS/Generating-Clusters/TERSOFF/Only-C1/FIRE-HFTN
REM
REM
REM
REM
REM
REM ./C.cell (11c1c37f851c82e70ff6c80c92926a4b)
REM AIRSS Version 0.9.1 bugfix July 2018 build 013d7b7c2542+ Fri, 06 Jul 2018 19:26:36 +0100
REM compiler GCC version 9.2.1 20190827 (Red Hat 9.2.1-1)
REM options -cpp -mtune=generic -march=x86-64 -g -O0 -fpre-include=/usr/include/finclude/math-vector-fortran.h
REM seed 784603837 553941789 22471651 632065239 426254246 1453087935 -1890598871 1521582548 197911858 1179958498 -1987302674 -2027167863 1731332448 2109081477 896537013 1304293065 1524613936 1295908305 1144130128 -966635363 -1509573899 401006812 1135353701 -740006888 849974533 1213923788 1673348041 -290776368 596265705 -1486424127 1562582015 -401498901 1925665123
REM
CELL 1.54180   50.00000   50.00000   50.00000   90.00000   90.00000   90.00000
LATT -1
SFAC C  
C      1  0.4390880000000  0.4467590000000  0.5962030000000 1.0
C      1  0.4721410000000  0.3755720000000  0.4685680000000 1.0
C      1  0.5447500000000  0.5880100000000  0.4094530000000 1.0
C      1  0.5375690000000  0.4618240000000  0.6184170000000 1.0
C      1  0.5768570000000  0.4070110000000  0.4702900000000 1.0
C      1  0.5097640000000  0.4584530000000  0.6164140000000 1.0
C      1  0.5674220000000  0.5460330000000  0.5881860000000 1.0
C      1  0.5667240000000  0.5350480000000  0.5374350000000 1.0
C      1  0.4600500000000  0.4864180000000  0.5780050000000 1.0
C      1  0.3745340000000  0.5122470000000  0.5054130000000 1.0
C      1  0.4549200000000  0.3972370000000  0.4788780000000 1.0
C      1  0.3833290000000  0.4389870000000  0.4669720000000 1.0
C      1  0.4105240000000  0.5993190000000  0.4712070000000 1.0
C      1  0.5687270000000  0.4369180000000  0.5560670000000 1.0
C      1  0.5481900000000  0.4322790000000  0.5367650000000 1.0
C      1  0.5159860000000  0.4594090000000  0.4838710000000 1.0
C      1  0.4472780000000  0.4564510000000  0.4659270000000 1.0
C      1  0.4842470000000  0.4581720000000  0.6088850000000 1.0
C      1  0.4096910000000  0.5130610000000  0.4343670000000 1.0
C      1  0.5523470000000  0.4717120000000  0.5961800000000 1.0
C      1  0.5335630000000  0.4686880000000  0.4212810000000 1.0
C      1  0.4294850000000  0.4207930000000  0.4356480000000 1.0
C      1  0.5640320000000  0.5584320000000  0.5207360000000 1.0
C      1  0.3780670000000  0.5370900000000  0.4965440000000 1.0
C      1  0.5101610000000  0.4136290000000  0.4598220000000 1.0
C      1  0.4724920000000  0.4798950000000  0.5052200000000 1.0
C      1  0.5230200000000  0.6075100000000  0.5845360000000 1.0
C      1  0.5119720000000  0.3925060000000  0.5233710000000 1.0
C      1  0.6379040000000  0.3950850000000  0.5553960000000 1.0
C      1  0.5537520000000  0.4878250000000  0.4255380000000 1.0
C      1  0.4606550000000  0.4634400000000  0.5944380000000 1.0
C      1  0.4462750000000  0.4838210000000  0.5131500000000 1.0
C      1  0.5385380000000  0.5584270000000  0.5071820000000 1.0
C      1  0.5053460000000  0.4987810000000  0.3948330000000 1.0
C      1  0.5528120000000  0.4169770000000  0.5119010000000 1.0
C      1  0.4552540000000  0.5587650000000  0.5383600000000 1.0
C      1  0.5229620000000  0.6094410000000  0.5163810000000 1.0
C      1  0.4643790000000  0.5166410000000  0.4575870000000 1.0
C      1  0.3881300000000  0.5792490000000  0.5185310000000 1.0
C      1  0.5604070000000  0.5216820000000  0.6010630000000 1.0
C      1  0.4826990000000  0.5430560000000  0.3881190000000 1.0
C      1  0.4219100000000  0.5050640000000  0.4591990000000 1.0
C      1  0.4763010000000  0.4233820000000  0.5293260000000 1.0
C      1  0.6598040000000  0.3809850000000  0.5564900000000 1.0
C      1  0.5563210000000  0.4210320000000  0.4284720000000 1.0
C      1  0.4176520000000  0.4412030000000  0.4218880000000 1.0
C      1  0.5176700000000  0.5913830000000  0.5377640000000 1.0
C      1  0.3816590000000  0.4882620000000  0.5146030000000 1.0
C      1  0.5322020000000  0.3989920000000  0.5032490000000 1.0
C      1  0.5667850000000  0.5871400000000  0.5278240000000 1.0
C      1  0.5112130000000  0.5587320000000  0.4628110000000 1.0
C      1  0.4804450000000  0.5649570000000  0.4264450000000 1.0
C      1  0.5099090000000  0.5562200000000  0.3864890000000 1.0
C      1  0.4370990000000  0.5095610000000  0.5209990000000 1.0
C      1  0.4666700000000  0.4031230000000  0.5077800000000 1.0
C      1  0.5035420000000  0.4146730000000  0.5382700000000 1.0
C      1  0.4557750000000  0.6147460000000  0.4884930000000 1.0
C      1  0.6047480000000  0.3393820000000  0.4057710000000 1.0
C      1  0.5045170000000  0.6090040000000  0.4940720000000 1.0
C      1  0.5836710000000  0.3810260000000  0.4299480000000 1.0
C      1  0.5467400000000  0.5144740000000  0.5413830000000 1.0
C      1  0.4410620000000  0.5303160000000  0.5008970000000 1.0
C      1  0.4005870000000  0.4697430000000  0.5183900000000 1.0
C      1  0.5950330000000  0.6086790000000  0.4611140000000 1.0
C      1  0.5037810000000  0.4607900000000  0.5496740000000 1.0
C      1  0.5304520000000  0.5389140000000  0.3758250000000 1.0
C      1  0.4686110000000  0.4993270000000  0.4356740000000 1.0
C      1  0.3882870000000  0.5631550000000  0.4946380000000 1.0
C      1  0.6155930000000  0.4093650000000  0.5545200000000 1.0
C      1  0.5184930000000  0.3930540000000  0.4775060000000 1.0
C      1  0.5488450000000  0.5030670000000  0.4956580000000 1.0
C      1  0.4387020000000  0.4079430000000  0.4578470000000 1.0
C      1  0.5071430000000  0.4785170000000  0.4164950000000 1.0
C      1  0.5409020000000  0.4623980000000  0.4752270000000 1.0
C      1  0.5602750000000  0.4804030000000  0.4844310000000 1.0
C      1  0.4017390000000  0.5591520000000  0.4460430000000 1.0
C      1  0.5182130000000  0.5797100000000  0.4031340000000 1.0
C      1  0.3975460000000  0.4616170000000  0.4252220000000 1.0
C      1  0.5842830000000  0.5299380000000  0.4328160000000 1.0
C      1  0.5700640000000  0.5084550000000  0.4288380000000 1.0
C      1  0.4777410000000  0.5982260000000  0.4940030000000 1.0
C      1  0.4079590000000  0.5764850000000  0.5384260000000 1.0
C      1  0.3783220000000  0.4534410000000  0.4446660000000 1.0
C      1  0.5642590000000  0.5202120000000  0.6282460000000 1.0
C      1  0.4313170000000  0.4786330000000  0.4578420000000 1.0
C      1  0.5176870000000  0.5648380000000  0.5271930000000 1.0
C      1  0.5853330000000  0.4698140000000  0.4910660000000 1.0
C      1  0.5063720000000  0.5209470000000  0.5170900000000 1.0
C      1  0.4381070000000  0.5058890000000  0.5739120000000 1.0
C      1  0.5909980000000  0.4442260000000  0.4971120000000 1.0
C      1  0.5493660000000  0.4988510000000  0.5876070000000 1.0
C      1  0.5329920000000  0.5965680000000  0.5611430000000 1.0
C      1  0.4786030000000  0.5464980000000  0.5504690000000 1.0
C      1  0.5604300000000  0.5887670000000  0.5569310000000 1.0
C      1  0.5017150000000  0.5432130000000  0.5347670000000 1.0
C      1  0.4301280000000  0.4456500000000  0.4878340000000 1.0
C      1  0.5942950000000  0.3600360000000  0.4177610000000 1.0
C      1  0.4001030000000  0.4899560000000  0.4199860000000 1.0
C      1  0.5507090000000  0.5480680000000  0.3600260000000 1.0
C      1  0.5467330000000  0.4679080000000  0.6655680000000 1.0
C      1  0.4277660000000  0.5101540000000  0.5478340000000 1.0
C      1  0.5357660000000  0.5545370000000  0.4791920000000 1.0
C      1  0.4906760000000  0.5520310000000  0.4830700000000 1.0
C      1  0.5345150000000  0.5011530000000  0.5635030000000 1.0
C      1  0.4934610000000  0.5255530000000  0.4928520000000 1.0
C      1  0.4309360000000  0.6145550000000  0.4788910000000 1.0
C      1  0.5703110000000  0.5696170000000  0.5755130000000 1.0
C      1  0.5035860000000  0.6257040000000  0.6298570000000 1.0
C      1  0.4723800000000  0.5697260000000  0.4945690000000 1.0
C      1  0.4812410000000  0.5142540000000  0.3916800000000 1.0
C      1  0.5600320000000  0.5964420000000  0.4301240000000 1.0
C      1  0.5512050000000  0.4543960000000  0.6422110000000 1.0
C      1  0.6037630000000  0.3955720000000  0.6285250000000 1.0
C      1  0.4608380000000  0.5059820000000  0.4093390000000 1.0
C      1  0.5723340000000  0.4030140000000  0.4428810000000 1.0
C      1  0.5519170000000  0.6055880000000  0.5077470000000 1.0
C      1  0.5643000000000  0.4536860000000  0.5781910000000 1.0
C      1  0.5930890000000  0.4233290000000  0.5542660000000 1.0
C      1  0.3679620000000  0.5975050000000  0.5220790000000 1.0
C      1  0.4765310000000  0.4502880000000  0.5408870000000 1.0
C      1  0.5495690000000  0.6068550000000  0.4776860000000 1.0
C      1  0.4054930000000  0.4328220000000  0.4810610000000 1.0
C      1  0.4996490000000  0.5866280000000  0.4245210000000 1.0
C      1  0.4942900000000  0.4684110000000  0.4958190000000 1.0
C      1  0.5114370000000  0.5876820000000  0.4515070000000 1.0
C      1  0.4976040000000  0.5451470000000  0.4395600000000 1.0
C      1  0.4967430000000  0.3737580000000  0.4825010000000 1.0
C      1  0.3989360000000  0.5737240000000  0.4701050000000 1.0
C      1  0.4902530000000  0.4304020000000  0.4529190000000 1.0
C      1  0.5325030000000  0.5099530000000  0.5172030000000 1.0
C      1  0.5210010000000  0.6063080000000  0.4703260000000 1.0
C      1  0.5684430000000  0.6040620000000  0.4563670000000 1.0
C      1  0.4320800000000  0.5707710000000  0.5488070000000 1.0
C      1  0.5866750000000  0.4138300000000  0.6358940000000 1.0
C      1  0.4889390000000  0.3814110000000  0.5099760000000 1.0
C      1  0.5752430000000  0.4209780000000  0.4946220000000 1.0
C      1  0.4268330000000  0.4636460000000  0.5099110000000 1.0
C      1  0.4359130000000  0.5501960000000  0.4115040000000 1.0
C      1  0.5412760000000  0.4417840000000  0.4212660000000 1.0
C      1  0.4851570000000  0.5011830000000  0.5713910000000 1.0
C      1  0.5208520000000  0.4371450000000  0.5443020000000 1.0
C      1  0.4632970000000  0.5561560000000  0.4058860000000 1.0
C      1  0.4847040000000  0.4757280000000  0.4358010000000 1.0
C      1  0.5132450000000  0.6167560000000  0.6073560000000 1.0
C      1  0.4532160000000  0.5551550000000  0.5099070000000 1.0
C      1  0.4408310000000  0.5217000000000  0.4732900000000 1.0
C      1  0.4767160000000  0.5298130000000  0.5732190000000 1.0
C      1  0.5274850000000  0.5114350000000  0.3824840000000 1.0
C      1  0.4735850000000  0.4534030000000  0.4515750000000 1.0
C      1  0.5083600000000  0.4874220000000  0.5611980000000 1.0
C      1  0.4140890000000  0.5409570000000  0.4279660000000 1.0
C      1  0.4502450000000  0.5298640000000  0.5855500000000 1.0
C      1  0.5692690000000  0.4330650000000  0.6412950000000 1.0
END
