TITL C-612606-7351-816 -691.611497409659 125000 -895.428374318329 0 0 150 (C1) n - 1
REM
REM in /home/nfs/bkarasulu/CARBON/AIRSS/Generating-Clusters/TERSOFF/Only-C1/FIRE-HFTN
REM
REM
REM
REM
REM
REM ./C.cell (11c1c37f851c82e70ff6c80c92926a4b)
REM AIRSS Version 0.9.1 bugfix July 2018 build 013d7b7c2542+ Fri, 06 Jul 2018 19:26:36 +0100
REM compiler GCC version 9.2.1 20190827 (Red Hat 9.2.1-1)
REM options -cpp -mtune=generic -march=x86-64 -g -O0 -fpre-include=/usr/include/finclude/math-vector-fortran.h
REM seed 272765110 -1767033943 -1656486889 606799008 840501661 950191968 1781361218 -1276880614 419788584 250986146 1588629154 -1324663272 -154462346 -760053168 239012585 -333626460 -420534990 1588005293 394924710 1328194222 2123462837 1977554544 -1644760672 1938218434 -993209347 1040527755 1902660619 1323836086 -405802704 -1043569376 -1339906041 -1286238295 -309618821
REM
CELL 1.54180   50.00000   50.00000   50.00000   90.00000   90.00000   90.00000
LATT -1
SFAC C  
C      1  0.5753060000000  0.4846930000000  0.5095560000000 1.0
C      1  0.3823840000000  0.4556770000000  0.4769140000000 1.0
C      1  0.4481300000000  0.4101680000000  0.4562840000000 1.0
C      1  0.4520030000000  0.3850820000000  0.4461060000000 1.0
C      1  0.4975690000000  0.5089400000000  0.4574190000000 1.0
C      1  0.5113320000000  0.5483180000000  0.4896340000000 1.0
C      1  0.5523000000000  0.5281510000000  0.5076460000000 1.0
C      1  0.4450650000000  0.4694870000000  0.4414860000000 1.0
C      1  0.5377160000000  0.5868990000000  0.4080470000000 1.0
C      1  0.5685710000000  0.4903290000000  0.3988060000000 1.0
C      1  0.4875400000000  0.4094220000000  0.5835330000000 1.0
C      1  0.4741100000000  0.5366110000000  0.4075000000000 1.0
C      1  0.4815320000000  0.6070990000000  0.4871980000000 1.0
C      1  0.4955220000000  0.5308080000000  0.3890030000000 1.0
C      1  0.4540880000000  0.4332410000000  0.4989090000000 1.0
C      1  0.4202820000000  0.5733430000000  0.5544370000000 1.0
C      1  0.4913840000000  0.5737780000000  0.5619780000000 1.0
C      1  0.5439130000000  0.5410750000000  0.4551940000000 1.0
C      1  0.4689850000000  0.6058880000000  0.5138870000000 1.0
C      1  0.4602990000000  0.5106190000000  0.5728770000000 1.0
C      1  0.5408790000000  0.4161690000000  0.5269560000000 1.0
C      1  0.4168400000000  0.5396440000000  0.4351880000000 1.0
C      1  0.5104530000000  0.5776620000000  0.4513030000000 1.0
C      1  0.4312160000000  0.5253050000000  0.5146310000000 1.0
C      1  0.4720070000000  0.5712010000000  0.6085480000000 1.0
C      1  0.5685060000000  0.5155230000000  0.5545230000000 1.0
C      1  0.4449690000000  0.4598430000000  0.4932990000000 1.0
C      1  0.4204270000000  0.4538880000000  0.4437570000000 1.0
C      1  0.5024490000000  0.3489000000000  0.4779590000000 1.0
C      1  0.5646780000000  0.5494240000000  0.4005830000000 1.0
C      1  0.5054950000000  0.4503260000000  0.4845140000000 1.0
C      1  0.4280960000000  0.5267710000000  0.4125750000000 1.0
C      1  0.5389920000000  0.4607230000000  0.4436620000000 1.0
C      1  0.5184270000000  0.3633280000000  0.4601460000000 1.0
C      1  0.4387550000000  0.5733940000000  0.5360370000000 1.0
C      1  0.5217700000000  0.5350890000000  0.5454750000000 1.0
C      1  0.4242420000000  0.4404670000000  0.5551280000000 1.0
C      1  0.5030910000000  0.5535860000000  0.5492730000000 1.0
C      1  0.4886590000000  0.3622970000000  0.4982190000000 1.0
C      1  0.6208440000000  0.4568060000000  0.4436440000000 1.0
C      1  0.6102250000000  0.5314100000000  0.4836250000000 1.0
C      1  0.5260180000000  0.6082200000000  0.5125380000000 1.0
C      1  0.4527230000000  0.6127240000000  0.6745570000000 1.0
C      1  0.5961290000000  0.5033200000000  0.4446310000000 1.0
C      1  0.4509600000000  0.4407640000000  0.5466780000000 1.0
C      1  0.5246230000000  0.4693960000000  0.5989330000000 1.0
C      1  0.4561370000000  0.5212950000000  0.5022190000000 1.0
C      1  0.5002290000000  0.3211710000000  0.4754800000000 1.0
C      1  0.5062780000000  0.4939000000000  0.4344200000000 1.0
C      1  0.4653840000000  0.5859240000000  0.6311480000000 1.0
C      1  0.4672720000000  0.4619510000000  0.5565950000000 1.0
C      1  0.5490740000000  0.5925440000000  0.5194680000000 1.0
C      1  0.5594350000000  0.5788950000000  0.4962160000000 1.0
C      1  0.4529720000000  0.5172150000000  0.4049250000000 1.0
C      1  0.4724610000000  0.3999770000000  0.5332880000000 1.0
C      1  0.4981040000000  0.2953050000000  0.4731020000000 1.0
C      1  0.4926830000000  0.4290480000000  0.4738850000000 1.0
C      1  0.5675640000000  0.5063610000000  0.4886620000000 1.0
C      1  0.4132790000000  0.4998010000000  0.5969090000000 1.0
C      1  0.5830860000000  0.5657700000000  0.5469670000000 1.0
C      1  0.4780200000000  0.3792510000000  0.5155540000000 1.0
C      1  0.4628110000000  0.5888500000000  0.4711080000000 1.0
C      1  0.5795290000000  0.4586860000000  0.4976870000000 1.0
C      1  0.4588840000000  0.4238290000000  0.5254030000000 1.0
C      1  0.4986110000000  0.4580140000000  0.6014890000000 1.0
C      1  0.5799630000000  0.4909080000000  0.5382480000000 1.0
C      1  0.4738990000000  0.5040270000000  0.5136220000000 1.0
C      1  0.5601550000000  0.5834170000000  0.5450970000000 1.0
C      1  0.4160720000000  0.4836370000000  0.5331130000000 1.0
C      1  0.3806060000000  0.4608220000000  0.5522230000000 1.0
C      1  0.4922920000000  0.5012360000000  0.3844240000000 1.0
C      1  0.5461250000000  0.5820420000000  0.5697530000000 1.0
C      1  0.4657940000000  0.4208060000000  0.4761760000000 1.0
C      1  0.5322330000000  0.3779620000000  0.4435820000000 1.0
C      1  0.4563970000000  0.5798470000000  0.5156560000000 1.0
C      1  0.4259850000000  0.4705910000000  0.5103690000000 1.0
C      1  0.5397130000000  0.4930060000000  0.3947760000000 1.0
C      1  0.4670070000000  0.4917950000000  0.3995200000000 1.0
C      1  0.4810250000000  0.5829940000000  0.5847600000000 1.0
C      1  0.5307080000000  0.5012800000000  0.4212070000000 1.0
C      1  0.5191140000000  0.5533420000000  0.4633000000000 1.0
C      1  0.4014700000000  0.5218390000000  0.4508400000000 1.0
C      1  0.5139250000000  0.4753680000000  0.4891860000000 1.0
C      1  0.4248070000000  0.4791230000000  0.5811860000000 1.0
C      1  0.3716390000000  0.4532640000000  0.5014220000000 1.0
C      1  0.5532670000000  0.5117910000000  0.5817660000000 1.0
C      1  0.4938010000000  0.4305240000000  0.5986440000000 1.0
C      1  0.4639310000000  0.5393580000000  0.4818830000000 1.0
C      1  0.5446740000000  0.5618960000000  0.5877360000000 1.0
C      1  0.4590060000000  0.5994570000000  0.6530130000000 1.0
C      1  0.5528460000000  0.5861090000000  0.4687220000000 1.0
C      1  0.5943060000000  0.5115830000000  0.4718690000000 1.0
C      1  0.5190930000000  0.5027920000000  0.4789370000000 1.0
C      1  0.5469440000000  0.5067770000000  0.4649040000000 1.0
C      1  0.4242030000000  0.5244230000000  0.6004400000000 1.0
C      1  0.5960230000000  0.4219870000000  0.4726690000000 1.0
C      1  0.4765200000000  0.4765520000000  0.6029800000000 1.0
C      1  0.5508910000000  0.4896010000000  0.4413780000000 1.0
C      1  0.4504490000000  0.5302600000000  0.5915650000000 1.0
C      1  0.5963590000000  0.4738790000000  0.5524560000000 1.0
C      1  0.4263540000000  0.4262650000000  0.4471310000000 1.0
C      1  0.4569950000000  0.4803530000000  0.5784310000000 1.0
C      1  0.5979160000000  0.5501030000000  0.4985630000000 1.0
C      1  0.5177340000000  0.5761570000000  0.3923790000000 1.0
C      1  0.5360490000000  0.4297000000000  0.5508980000000 1.0
C      1  0.3980910000000  0.4675730000000  0.4564610000000 1.0
C      1  0.5591550000000  0.5651520000000  0.4475500000000 1.0
C      1  0.5402700000000  0.5348220000000  0.5949030000000 1.0
C      1  0.5436700000000  0.4863040000000  0.5902520000000 1.0
C      1  0.4869950000000  0.4533100000000  0.4233560000000 1.0
C      1  0.6000690000000  0.4431920000000  0.4316610000000 1.0
C      1  0.4888600000000  0.5733910000000  0.4346160000000 1.0
C      1  0.5808190000000  0.4299420000000  0.4484750000000 1.0
C      1  0.6229050000000  0.4598440000000  0.4709750000000 1.0
C      1  0.4777590000000  0.5305820000000  0.4573560000000 1.0
C      1  0.5181660000000  0.4512130000000  0.5491020000000 1.0
C      1  0.5769910000000  0.4928040000000  0.4267070000000 1.0
C      1  0.5226620000000  0.5247190000000  0.4986010000000 1.0
C      1  0.4151390000000  0.5114810000000  0.5310100000000 1.0
C      1  0.4600460000000  0.5663450000000  0.4900940000000 1.0
C      1  0.4905360000000  0.5250900000000  0.6166600000000 1.0
C      1  0.5451810000000  0.5396180000000  0.3838820000000 1.0
C      1  0.5108120000000  0.6086120000000  0.4877650000000 1.0
C      1  0.5177260000000  0.5482850000000  0.3848280000000 1.0
C      1  0.4701500000000  0.5430300000000  0.6076220000000 1.0
C      1  0.5458990000000  0.4235140000000  0.5019610000000 1.0
C      1  0.4682680000000  0.6260280000000  0.5320870000000 1.0
C      1  0.4255980000000  0.5660290000000  0.4422460000000 1.0
C      1  0.4942750000000  0.4628410000000  0.5489770000000 1.0
C      1  0.5871210000000  0.5398310000000  0.5548330000000 1.0
C      1  0.5101580000000  0.4641710000000  0.4355750000000 1.0
C      1  0.4528930000000  0.4730990000000  0.4691290000000 1.0
C      1  0.4812870000000  0.4985570000000  0.6202660000000 1.0
C      1  0.4776820000000  0.5474330000000  0.4331710000000 1.0
C      1  0.4096380000000  0.4664740000000  0.5574660000000 1.0
C      1  0.3956480000000  0.4957610000000  0.4536230000000 1.0
C      1  0.5467410000000  0.5257180000000  0.5366830000000 1.0
C      1  0.4808880000000  0.3983340000000  0.5601800000000 1.0
C      1  0.5697980000000  0.5531200000000  0.5014620000000 1.0
C      1  0.4637800000000  0.4700630000000  0.4191570000000 1.0
C      1  0.5178240000000  0.5300610000000  0.6117340000000 1.0
C      1  0.3691940000000  0.4554480000000  0.5281280000000 1.0
C      1  0.4425660000000  0.5855620000000  0.4511230000000 1.0
C      1  0.5587200000000  0.5704400000000  0.4192520000000 1.0
C      1  0.5560450000000  0.4424200000000  0.4573250000000 1.0
C      1  0.6038670000000  0.4462810000000  0.4877360000000 1.0
C      1  0.5172190000000  0.4885160000000  0.3781830000000 1.0
C      1  0.5253990000000  0.5976710000000  0.4654020000000 1.0
C      1  0.5567370000000  0.4440800000000  0.4864960000000 1.0
C      1  0.5491450000000  0.4227720000000  0.5737880000000 1.0
END
