TITL C-612604-1799-1113 6551.22986340099 125000 -1104.30400726778 0 0 179 (C1) n - 1
REM
REM in /home/nfs/bkarasulu/CARBON/AIRSS/Generating-Clusters/TERSOFF/Only-C1/FIRE-HFTN
REM
REM
REM
REM
REM
REM ./C.cell (11c1c37f851c82e70ff6c80c92926a4b)
REM AIRSS Version 0.9.1 bugfix July 2018 build 013d7b7c2542+ Fri, 06 Jul 2018 19:26:36 +0100
REM compiler GCC version 9.2.1 20190827 (Red Hat 9.2.1-1)
REM options -cpp -mtune=generic -march=x86-64 -g -O0 -fpre-include=/usr/include/finclude/math-vector-fortran.h
REM seed -1963852212 -1077858848 1253916609 -1119286304 804573555 495013895 -1560152514 428106142 1926097280 -1329201458 -1800083174 354714293 -1947241990 1321360721 853911581 1399204528 -131766085 -259337202 1617229398 -1243021368 -2065724728 -310025476 -1694099609 -1628094354 -1627564799 152173450 607307175 29523182 1972421023 1752461783 1623027612 1448562069 -505091892
REM
CELL 1.54180   50.00000   50.00000   50.00000   90.00000   90.00000   90.00000
LATT -1
SFAC C  
C      1  0.4193680000000  0.4857800000000  0.5790880000000 1.0
C      1  0.4142980000000  0.5737000000000  0.4910390000000 1.0
C      1  0.5547590000000  0.4460930000000  0.5084640000000 1.0
C      1  0.4795160000000  0.5003140000000  0.4503880000000 1.0
C      1  0.4972100000000  0.4929570000000  0.5739190000000 1.0
C      1  0.5904880000000  0.5654350000000  0.5902300000000 1.0
C      1  0.5521810000000  0.4063390000000  0.5621610000000 1.0
C      1  0.5013910000000  0.4127150000000  0.4598550000000 1.0
C      1  0.5451400000000  0.5493770000000  0.3803520000000 1.0
C      1  0.4420720000000  0.4946750000000  0.5278000000000 1.0
C      1  0.5204330000000  0.4745340000000  0.5743690000000 1.0
C      1  0.4280970000000  0.5161290000000  0.5143630000000 1.0
C      1  0.4087760000000  0.5521630000000  0.4730650000000 1.0
C      1  0.4238900000000  0.5083150000000  0.3979720000000 1.0
C      1  0.5364340000000  0.5232180000000  0.5728300000000 1.0
C      1  0.5093220000000  0.4531470000000  0.5558890000000 1.0
C      1  0.4692690000000  0.4507620000000  0.4040240000000 1.0
C      1  0.4233470000000  0.4017330000000  0.4944490000000 1.0
C      1  0.4546580000000  0.5259430000000  0.5575510000000 1.0
C      1  0.5044270000000  0.6206080000000  0.4474840000000 1.0
C      1  0.5892460000000  0.4773190000000  0.5519800000000 1.0
C      1  0.4940350000000  0.5323040000000  0.4180180000000 1.0
C      1  0.6441740000000  0.4845900000000  0.5141320000000 1.0
C      1  0.4592560000000  0.4226680000000  0.4712510000000 1.0
C      1  0.5313000000000  0.4750290000000  0.6229750000000 1.0
C      1  0.5319380000000  0.5484600000000  0.6392320000000 1.0
C      1  0.5224580000000  0.5603040000000  0.3905180000000 1.0
C      1  0.5260600000000  0.5672570000000  0.5017250000000 1.0
C      1  0.4915740000000  0.6046610000000  0.4922170000000 1.0
C      1  0.5749350000000  0.4284240000000  0.4666260000000 1.0
C      1  0.4508530000000  0.4378900000000  0.4488400000000 1.0
C      1  0.4665070000000  0.5477420000000  0.5487650000000 1.0
C      1  0.5176000000000  0.5552740000000  0.4793790000000 1.0
C      1  0.6641160000000  0.5213710000000  0.4666380000000 1.0
C      1  0.5406270000000  0.5552520000000  0.4338420000000 1.0
C      1  0.5344680000000  0.5282720000000  0.5241330000000 1.0
C      1  0.5688000000000  0.4952010000000  0.5113790000000 1.0
C      1  0.5432180000000  0.5954970000000  0.5571520000000 1.0
C      1  0.5497480000000  0.4741940000000  0.5073560000000 1.0
C      1  0.4523070000000  0.5062580000000  0.3987480000000 1.0
C      1  0.5125230000000  0.5567500000000  0.4189700000000 1.0
C      1  0.5148630000000  0.4637630000000  0.4633640000000 1.0
C      1  0.5931950000000  0.4786070000000  0.4502610000000 1.0
C      1  0.5499540000000  0.5322260000000  0.5967060000000 1.0
C      1  0.4630160000000  0.5036640000000  0.5438500000000 1.0
C      1  0.4357300000000  0.5757290000000  0.5606990000000 1.0
C      1  0.4957950000000  0.5826980000000  0.5622340000000 1.0
C      1  0.5673940000000  0.4829850000000  0.5694170000000 1.0
C      1  0.5424290000000  0.4958050000000  0.5658610000000 1.0
C      1  0.4641610000000  0.4187830000000  0.5749580000000 1.0
C      1  0.4619300000000  0.4835130000000  0.4365000000000 1.0
C      1  0.4606950000000  0.4795350000000  0.4082720000000 1.0
C      1  0.5304100000000  0.5578580000000  0.5283090000000 1.0
C      1  0.4612720000000  0.4555520000000  0.5463640000000 1.0
C      1  0.3990820000000  0.4999910000000  0.5644550000000 1.0
C      1  0.5115670000000  0.5362230000000  0.5648460000000 1.0
C      1  0.4740960000000  0.3860800000000  0.4961540000000 1.0
C      1  0.4782990000000  0.5637350000000  0.5870070000000 1.0
C      1  0.5924360000000  0.4525400000000  0.4643600000000 1.0
C      1  0.3998770000000  0.4439540000000  0.5197910000000 1.0
C      1  0.5659510000000  0.4235480000000  0.4935770000000 1.0
C      1  0.4940090000000  0.3887110000000  0.5408610000000 1.0
C      1  0.3738930000000  0.5116890000000  0.4860720000000 1.0
C      1  0.5958360000000  0.5085460000000  0.4525690000000 1.0
C      1  0.3514870000000  0.5171360000000  0.5022150000000 1.0
C      1  0.4922520000000  0.6038420000000  0.4279640000000 1.0
C      1  0.4912800000000  0.4990200000000  0.5455770000000 1.0
C      1  0.4924500000000  0.5382190000000  0.5874790000000 1.0
C      1  0.4228950000000  0.4561030000000  0.5701040000000 1.0
C      1  0.4468500000000  0.5612950000000  0.5849960000000 1.0
C      1  0.5036160000000  0.4781140000000  0.3980980000000 1.0
C      1  0.5125640000000  0.4358250000000  0.4726220000000 1.0
C      1  0.4628470000000  0.4350530000000  0.4971960000000 1.0
C      1  0.5751820000000  0.5442260000000  0.5952700000000 1.0
C      1  0.4877630000000  0.6097080000000  0.5204350000000 1.0
C      1  0.5922470000000  0.4889060000000  0.5264150000000 1.0
C      1  0.5634480000000  0.4605710000000  0.5887270000000 1.0
C      1  0.4856000000000  0.5102830000000  0.5934740000000 1.0
C      1  0.4951580000000  0.5762030000000  0.4360810000000 1.0
C      1  0.4617230000000  0.5005660000000  0.6050120000000 1.0
C      1  0.5336610000000  0.5006220000000  0.6306680000000 1.0
C      1  0.5566100000000  0.5208690000000  0.5054340000000 1.0
C      1  0.4802120000000  0.5432730000000  0.5078400000000 1.0
C      1  0.5646990000000  0.5954670000000  0.4817240000000 1.0
C      1  0.4747190000000  0.5833250000000  0.4819030000000 1.0
C      1  0.5407730000000  0.6087700000000  0.4802990000000 1.0
C      1  0.4353570000000  0.5061350000000  0.5953060000000 1.0
C      1  0.5093300000000  0.5349640000000  0.4641820000000 1.0
C      1  0.5294970000000  0.4734910000000  0.4396810000000 1.0
C      1  0.5999890000000  0.4522800000000  0.5620600000000 1.0
C      1  0.6113710000000  0.5304260000000  0.4648520000000 1.0
C      1  0.5054820000000  0.4818040000000  0.4841410000000 1.0
C      1  0.5479660000000  0.4796010000000  0.3934830000000 1.0
C      1  0.5324760000000  0.4327590000000  0.5203100000000 1.0
C      1  0.5723400000000  0.4139770000000  0.5781270000000 1.0
C      1  0.5552940000000  0.5297330000000  0.4780700000000 1.0
C      1  0.3835840000000  0.4845460000000  0.4841830000000 1.0
C      1  0.4785140000000  0.4948750000000  0.4801030000000 1.0
C      1  0.4979480000000  0.4492990000000  0.3994250000000 1.0
C      1  0.5249080000000  0.5693340000000  0.6531590000000 1.0
C      1  0.5546490000000  0.5347660000000  0.4495220000000 1.0
C      1  0.5676720000000  0.6013710000000  0.5658870000000 1.0
C      1  0.5219590000000  0.4846370000000  0.5070450000000 1.0
C      1  0.4351410000000  0.5715390000000  0.5108500000000 1.0
C      1  0.4668260000000  0.5310150000000  0.4070560000000 1.0
C      1  0.5113230000000  0.4327760000000  0.5015920000000 1.0
C      1  0.4993660000000  0.3835150000000  0.5123390000000 1.0
C      1  0.5752710000000  0.5160320000000  0.4077050000000 1.0
C      1  0.4341540000000  0.5401280000000  0.4664290000000 1.0
C      1  0.4514900000000  0.5536690000000  0.4181020000000 1.0
C      1  0.4901550000000  0.5437690000000  0.5352780000000 1.0
C      1  0.3854980000000  0.4739900000000  0.4574960000000 1.0
C      1  0.4328690000000  0.5362460000000  0.5942010000000 1.0
C      1  0.5806030000000  0.5847370000000  0.4390710000000 1.0
C      1  0.5878370000000  0.5894710000000  0.5788000000000 1.0
C      1  0.5767790000000  0.4720810000000  0.4272690000000 1.0
C      1  0.5228790000000  0.5770470000000  0.5501740000000 1.0
C      1  0.4517670000000  0.5539340000000  0.4475510000000 1.0
C      1  0.3485410000000  0.5269600000000  0.5269740000000 1.0
C      1  0.5261390000000  0.4358230000000  0.4015870000000 1.0
C      1  0.6393110000000  0.5298820000000  0.4620830000000 1.0
C      1  0.4630350000000  0.5671840000000  0.5022530000000 1.0
C      1  0.6181660000000  0.4895580000000  0.5162330000000 1.0
C      1  0.4487010000000  0.4658950000000  0.4539190000000 1.0
C      1  0.4806170000000  0.4007770000000  0.5617560000000 1.0
C      1  0.5145830000000  0.5049080000000  0.5267830000000 1.0
C      1  0.3924440000000  0.4902750000000  0.4355590000000 1.0
C      1  0.5129270000000  0.6141020000000  0.4745210000000 1.0
C      1  0.5841220000000  0.5800190000000  0.4669340000000 1.0
C      1  0.4094970000000  0.4385070000000  0.5478360000000 1.0
C      1  0.5431110000000  0.4528950000000  0.3832880000000 1.0
C      1  0.5580590000000  0.5768240000000  0.4266010000000 1.0
C      1  0.5453070000000  0.4309670000000  0.4255120000000 1.0
C      1  0.5260850000000  0.4862860000000  0.4127710000000 1.0
C      1  0.4483610000000  0.4583220000000  0.5004830000000 1.0
C      1  0.4418300000000  0.5238500000000  0.4895520000000 1.0
C      1  0.4448950000000  0.4673940000000  0.5260870000000 1.0
C      1  0.4504220000000  0.4440060000000  0.5700830000000 1.0
C      1  0.4536650000000  0.5800840000000  0.4063350000000 1.0
C      1  0.4869370000000  0.4472980000000  0.5389880000000 1.0
C      1  0.4034350000000  0.5014490000000  0.4139480000000 1.0
C      1  0.4774260000000  0.4005190000000  0.4706080000000 1.0
C      1  0.5759300000000  0.5218880000000  0.4355220000000 1.0
C      1  0.5270490000000  0.3833020000000  0.4976100000000 1.0
C      1  0.4513140000000  0.5992270000000  0.5538770000000 1.0
C      1  0.4460670000000  0.3896430000000  0.5087620000000 1.0
C      1  0.5463050000000  0.3883730000000  0.4515520000000 1.0
C      1  0.4374060000000  0.3931040000000  0.5363920000000 1.0
C      1  0.4968720000000  0.5204700000000  0.4436640000000 1.0
C      1  0.3897080000000  0.4675720000000  0.5067980000000 1.0
C      1  0.4063330000000  0.4219860000000  0.5015680000000 1.0
C      1  0.5530250000000  0.4576970000000  0.4344030000000 1.0
C      1  0.6769440000000  0.5044740000000  0.4829480000000 1.0
C      1  0.4694140000000  0.6024600000000  0.4102710000000 1.0
C      1  0.5822920000000  0.4398560000000  0.5815630000000 1.0
C      1  0.6679400000000  0.4889830000000  0.5028580000000 1.0
C      1  0.4563560000000  0.4321890000000  0.4214920000000 1.0
C      1  0.5369320000000  0.4167890000000  0.5429140000000 1.0
C      1  0.3667880000000  0.5310650000000  0.5461640000000 1.0
C      1  0.3791110000000  0.4471830000000  0.4527100000000 1.0
C      1  0.4201900000000  0.4106830000000  0.5487330000000 1.0
C      1  0.3870690000000  0.5342330000000  0.4747960000000 1.0
C      1  0.5580730000000  0.4138520000000  0.4456300000000 1.0
C      1  0.3934810000000  0.5231010000000  0.5493210000000 1.0
C      1  0.5359470000000  0.4627450000000  0.5980600000000 1.0
C      1  0.4540560000000  0.4758450000000  0.4801220000000 1.0
C      1  0.4704710000000  0.5205000000000  0.4932970000000 1.0
C      1  0.5305500000000  0.3752640000000  0.4697740000000 1.0
C      1  0.5729930000000  0.4880930000000  0.4036660000000 1.0
C      1  0.4745280000000  0.5703860000000  0.4562940000000 1.0
C      1  0.4254880000000  0.5613340000000  0.5365350000000 1.0
C      1  0.4788850000000  0.6002650000000  0.5462660000000 1.0
C      1  0.5991530000000  0.5558980000000  0.4726960000000 1.0
C      1  0.3728900000000  0.4229460000000  0.4454220000000 1.0
C      1  0.4141140000000  0.5345100000000  0.5330490000000 1.0
C      1  0.4864240000000  0.4350830000000  0.5133060000000 1.0
C      1  0.5659010000000  0.5341430000000  0.3882450000000 1.0
C      1  0.5385490000000  0.5270990000000  0.6225220000000 1.0
C      1  0.5528010000000  0.3982440000000  0.5018630000000 1.0
END
