TITL C-612602-9376-1474 -5.01541728400573e-05 125000 -909.691460942783 0 0 148 (C1) n - 1
REM
REM in /home/nfs/bkarasulu/CARBON/AIRSS/Generating-Clusters/TERSOFF/Only-C1/FIRE-HFTN
REM
REM
REM
REM
REM
REM ./C.cell (11c1c37f851c82e70ff6c80c92926a4b)
REM AIRSS Version 0.9.1 bugfix July 2018 build 013d7b7c2542+ Fri, 06 Jul 2018 19:26:36 +0100
REM compiler GCC version 9.2.1 20190827 (Red Hat 9.2.1-1)
REM options -cpp -mtune=generic -march=x86-64 -g -O0 -fpre-include=/usr/include/finclude/math-vector-fortran.h
REM seed -664121771 472755815 1986764058 1234698637 227223969 311960315 334933012 224438664 1084784891 20092663 1799464503 -1278605150 -723221309 1228070399 -1174001498 -1438562953 1735401762 -593499955 999150626 799810344 1672322457 495420507 1649407210 -1538536614 -1550573239 -217366664 -79613081 585571616 1123730132 -1625009089 1071496072 -2025897285 2015884996
REM
CELL 1.54180   50.00000   50.00000   50.00000   90.00000   90.00000   90.00000
LATT -1
SFAC C  
C      1  0.4593540000000  0.6016060000000  0.5533840000000 1.0
C      1  0.6009150000000  0.4252500000000  0.4713280000000 1.0
C      1  0.4931690000000  0.5784310000000  0.4800670000000 1.0
C      1  0.5664810000000  0.4515070000000  0.3604260000000 1.0
C      1  0.5837850000000  0.5526570000000  0.4582250000000 1.0
C      1  0.4214810000000  0.5128360000000  0.4383460000000 1.0
C      1  0.5252210000000  0.4214540000000  0.5752670000000 1.0
C      1  0.4394560000000  0.5832340000000  0.5518090000000 1.0
C      1  0.5334730000000  0.5897480000000  0.5909350000000 1.0
C      1  0.5616240000000  0.5315460000000  0.5172630000000 1.0
C      1  0.5805790000000  0.5941150000000  0.4804610000000 1.0
C      1  0.4417780000000  0.4323280000000  0.4498680000000 1.0
C      1  0.4440440000000  0.4915450000000  0.5936590000000 1.0
C      1  0.4975320000000  0.4136530000000  0.4918470000000 1.0
C      1  0.5746600000000  0.4426670000000  0.5710940000000 1.0
C      1  0.4651180000000  0.5428170000000  0.4895570000000 1.0
C      1  0.5471200000000  0.4061860000000  0.5116670000000 1.0
C      1  0.5028370000000  0.4412500000000  0.4378300000000 1.0
C      1  0.4228670000000  0.5402910000000  0.4478270000000 1.0
C      1  0.5686990000000  0.4927260000000  0.4209670000000 1.0
C      1  0.4048790000000  0.5139740000000  0.3926620000000 1.0
C      1  0.5912400000000  0.4245960000000  0.5568340000000 1.0
C      1  0.4036470000000  0.5462760000000  0.4681210000000 1.0
C      1  0.4874080000000  0.5941990000000  0.4342520000000 1.0
C      1  0.6083520000000  0.5140510000000  0.4791470000000 1.0
C      1  0.4618370000000  0.5549150000000  0.5939790000000 1.0
C      1  0.6139610000000  0.5010920000000  0.5038680000000 1.0
C      1  0.4444250000000  0.4730570000000  0.3822900000000 1.0
C      1  0.5521260000000  0.5043330000000  0.5239340000000 1.0
C      1  0.4509150000000  0.5520430000000  0.3920070000000 1.0
C      1  0.4821890000000  0.5665700000000  0.5286660000000 1.0
C      1  0.4432700000000  0.5598410000000  0.4404580000000 1.0
C      1  0.5683430000000  0.3921460000000  0.4989080000000 1.0
C      1  0.6104750000000  0.4495700000000  0.4656740000000 1.0
C      1  0.4510330000000  0.4224660000000  0.5728850000000 1.0
C      1  0.3864550000000  0.4540790000000  0.4732070000000 1.0
C      1  0.4928140000000  0.5560050000000  0.5528990000000 1.0
C      1  0.4201340000000  0.4467950000000  0.4392160000000 1.0
C      1  0.5142700000000  0.4366190000000  0.4953200000000 1.0
C      1  0.4721290000000  0.4941000000000  0.4155120000000 1.0
C      1  0.4819880000000  0.4591890000000  0.5721850000000 1.0
C      1  0.3641490000000  0.4944940000000  0.4961370000000 1.0
C      1  0.5333380000000  0.5618270000000  0.5956920000000 1.0
C      1  0.5584260000000  0.5856600000000  0.5501380000000 1.0
C      1  0.4100140000000  0.4979640000000  0.5073700000000 1.0
C      1  0.4258250000000  0.4315000000000  0.5721350000000 1.0
C      1  0.4789300000000  0.5648220000000  0.5006860000000 1.0
C      1  0.5591550000000  0.4553080000000  0.5082380000000 1.0
C      1  0.5274110000000  0.3942510000000  0.5285340000000 1.0
C      1  0.5417600000000  0.5034760000000  0.5511860000000 1.0
C      1  0.4514910000000  0.4100790000000  0.4375110000000 1.0
C      1  0.4959740000000  0.4974810000000  0.4007530000000 1.0
C      1  0.4775780000000  0.4310940000000  0.5699120000000 1.0
C      1  0.4761880000000  0.5908700000000  0.4601300000000 1.0
C      1  0.5166580000000  0.5642560000000  0.4708310000000 1.0
C      1  0.4875890000000  0.4609790000000  0.4456220000000 1.0
C      1  0.5829830000000  0.4725170000000  0.4070680000000 1.0
C      1  0.5852240000000  0.5108790000000  0.4356770000000 1.0
C      1  0.5227820000000  0.4983660000000  0.5954570000000 1.0
C      1  0.4635470000000  0.4753160000000  0.5857480000000 1.0
C      1  0.5088780000000  0.5475560000000  0.5989360000000 1.0
C      1  0.4070400000000  0.5456270000000  0.5636590000000 1.0
C      1  0.5329350000000  0.4999860000000  0.4538680000000 1.0
C      1  0.4168130000000  0.4787100000000  0.5270390000000 1.0
C      1  0.4720860000000  0.5159690000000  0.4856430000000 1.0
C      1  0.5117620000000  0.5203710000000  0.6065460000000 1.0
C      1  0.4546130000000  0.4141190000000  0.5140500000000 1.0
C      1  0.5022350000000  0.4609510000000  0.5003190000000 1.0
C      1  0.5999970000000  0.5568750000000  0.5046950000000 1.0
C      1  0.6264010000000  0.4220720000000  0.5235470000000 1.0
C      1  0.4166500000000  0.4915560000000  0.4570940000000 1.0
C      1  0.5003200000000  0.4156880000000  0.5624990000000 1.0
C      1  0.3854480000000  0.5120360000000  0.5024810000000 1.0
C      1  0.4589670000000  0.5147660000000  0.5313730000000 1.0
C      1  0.5621970000000  0.5811230000000  0.5224260000000 1.0
C      1  0.5383960000000  0.5305010000000  0.5599720000000 1.0
C      1  0.5360870000000  0.5988840000000  0.5637230000000 1.0
C      1  0.5010380000000  0.4019660000000  0.5374400000000 1.0
C      1  0.5453790000000  0.4904270000000  0.4772550000000 1.0
C      1  0.5991290000000  0.4849530000000  0.5524280000000 1.0
C      1  0.5352610000000  0.5541970000000  0.4094690000000 1.0
C      1  0.6033400000000  0.4990360000000  0.4550900000000 1.0
C      1  0.4046740000000  0.4655050000000  0.4535070000000 1.0
C      1  0.4726920000000  0.5021480000000  0.5104440000000 1.0
C      1  0.4497150000000  0.4407500000000  0.5032600000000 1.0
C      1  0.4426580000000  0.5385590000000  0.6027580000000 1.0
C      1  0.5106440000000  0.5175830000000  0.4565130000000 1.0
C      1  0.4250220000000  0.4963880000000  0.4835150000000 1.0
C      1  0.5107550000000  0.5544960000000  0.4233380000000 1.0
C      1  0.4984270000000  0.3969280000000  0.4703100000000 1.0
C      1  0.4470920000000  0.4912440000000  0.4026470000000 1.0
C      1  0.3647820000000  0.4977840000000  0.5688780000000 1.0
C      1  0.4294850000000  0.5154590000000  0.5935380000000 1.0
C      1  0.4868220000000  0.5553980000000  0.5815160000000 1.0
C      1  0.5517120000000  0.5478000000000  0.5783650000000 1.0
C      1  0.4848860000000  0.6107610000000  0.5529710000000 1.0
C      1  0.5851740000000  0.4475630000000  0.5159260000000 1.0
C      1  0.4448910000000  0.5364640000000  0.5379420000000 1.0
C      1  0.4484710000000  0.5824820000000  0.4583370000000 1.0
C      1  0.5840520000000  0.4694440000000  0.5686890000000 1.0
C      1  0.4291510000000  0.5567460000000  0.5497230000000 1.0
C      1  0.5119940000000  0.6098640000000  0.5531880000000 1.0
C      1  0.4286680000000  0.5964950000000  0.4709750000000 1.0
C      1  0.5871340000000  0.5839710000000  0.5063980000000 1.0
C      1  0.5058830000000  0.4698480000000  0.5620340000000 1.0
C      1  0.3660160000000  0.4706290000000  0.4836090000000 1.0
C      1  0.4886600000000  0.4799290000000  0.5123920000000 1.0
C      1  0.6105380000000  0.4929880000000  0.5293470000000 1.0
C      1  0.5712500000000  0.5640000000000  0.5655300000000 1.0
C      1  0.5660770000000  0.5736150000000  0.4665690000000 1.0
C      1  0.5219920000000  0.4943380000000  0.4063200000000 1.0
C      1  0.5750900000000  0.4614780000000  0.3829120000000 1.0
C      1  0.4847730000000  0.5066750000000  0.4619450000000 1.0
C      1  0.4051160000000  0.4761830000000  0.5528730000000 1.0
C      1  0.5126490000000  0.5448760000000  0.4502570000000 1.0
C      1  0.4823570000000  0.4069700000000  0.5157320000000 1.0
C      1  0.6105670000000  0.4717450000000  0.4485540000000 1.0
C      1  0.4605110000000  0.5588330000000  0.4167480000000 1.0
C      1  0.6013080000000  0.5424610000000  0.4791980000000 1.0
C      1  0.5264070000000  0.4872390000000  0.5692760000000 1.0
C      1  0.3927580000000  0.4291590000000  0.4858460000000 1.0
C      1  0.4769370000000  0.4868600000000  0.4429040000000 1.0
C      1  0.3888630000000  0.5365790000000  0.4885360000000 1.0
C      1  0.5490430000000  0.4334870000000  0.5784760000000 1.0
C      1  0.6016740000000  0.4304820000000  0.5312700000000 1.0
C      1  0.5788170000000  0.5383690000000  0.4345530000000 1.0
C      1  0.5609980000000  0.5486070000000  0.4151220000000 1.0
C      1  0.4092050000000  0.4515790000000  0.5661260000000 1.0
C      1  0.5163920000000  0.5421920000000  0.5476040000000 1.0
C      1  0.3920060000000  0.4979690000000  0.5659240000000 1.0
C      1  0.5410920000000  0.4332880000000  0.5038280000000 1.0
C      1  0.5411660000000  0.4937740000000  0.4268750000000 1.0
C      1  0.5522300000000  0.4832190000000  0.5039350000000 1.0
C      1  0.5854290000000  0.4058470000000  0.4811220000000 1.0
C      1  0.6065070000000  0.4651330000000  0.4209760000000 1.0
C      1  0.4245640000000  0.5064170000000  0.4109910000000 1.0
C      1  0.4364180000000  0.4597750000000  0.5190240000000 1.0
C      1  0.4872550000000  0.5700380000000  0.4189330000000 1.0
C      1  0.5723570000000  0.3655350000000  0.5038930000000 1.0
C      1  0.4065590000000  0.4101010000000  0.4992260000000 1.0
C      1  0.4293350000000  0.4008380000000  0.5111520000000 1.0
C      1  0.5488180000000  0.5576640000000  0.5088340000000 1.0
C      1  0.4073330000000  0.5197770000000  0.5759080000000 1.0
C      1  0.5888240000000  0.5403760000000  0.5256930000000 1.0
C      1  0.4506260000000  0.4413470000000  0.4751270000000 1.0
C      1  0.3862450000000  0.5213170000000  0.3759900000000 1.0
C      1  0.5918530000000  0.5495880000000  0.5523460000000 1.0
C      1  0.5425240000000  0.5647730000000  0.4815290000000 1.0
END
