TITL C-612607-4507-743 2.08700743146555e-05 125000 -474.090927953337 0 0 77 (C1) n - 1
REM
REM in /home/nfs/bkarasulu/CARBON/AIRSS/Generating-Clusters/TERSOFF/Only-C1/FIRE-HFTN
REM
REM
REM
REM
REM
REM ./C.cell (11c1c37f851c82e70ff6c80c92926a4b)
REM AIRSS Version 0.9.1 bugfix July 2018 build 013d7b7c2542+ Fri, 06 Jul 2018 19:26:36 +0100
REM compiler GCC version 9.2.1 20190827 (Red Hat 9.2.1-1)
REM options -cpp -mtune=generic -march=x86-64 -g -O0 -fpre-include=/usr/include/finclude/math-vector-fortran.h
REM seed -1713197956 -1921560125 650679222 2000550983 286082714 47931437 2020624571 486084385 -144569024 -1282050901 -407638116 251629203 451672893 -1161793314 1408374877 -340093461 -275309749 1704858443 1397693910 1516024734 -2092516557 -686581706 1113953792 436649385 1762984656 1974003501 -828868101 -2137719067 -1222381740 -2138707610 781507732 -1212359378 1187723882
REM
CELL 1.54180   50.00000   50.00000   50.00000   90.00000   90.00000   90.00000
LATT -1
SFAC C  
C      1  0.5730290000000  0.5274340000000  0.4491830000000 1.0
C      1  0.5139100000000  0.5213230000000  0.5094560000000 1.0
C      1  0.4112970000000  0.4639670000000  0.4791970000000 1.0
C      1  0.4680540000000  0.5165430000000  0.3988780000000 1.0
C      1  0.4621180000000  0.4302570000000  0.5170380000000 1.0
C      1  0.5598940000000  0.5331050000000  0.5219820000000 1.0
C      1  0.5580820000000  0.4602430000000  0.5446160000000 1.0
C      1  0.4380250000000  0.5375660000000  0.5244240000000 1.0
C      1  0.4726530000000  0.5584180000000  0.5496470000000 1.0
C      1  0.4906470000000  0.4985630000000  0.5467240000000 1.0
C      1  0.5175060000000  0.5733700000000  0.4757270000000 1.0
C      1  0.4532900000000  0.5701270000000  0.4790560000000 1.0
C      1  0.5840070000000  0.5048990000000  0.4587060000000 1.0
C      1  0.4251500000000  0.5140330000000  0.5265950000000 1.0
C      1  0.5167500000000  0.4346150000000  0.4531670000000 1.0
C      1  0.4114690000000  0.4722260000000  0.4536460000000 1.0
C      1  0.4877200000000  0.5212030000000  0.6131460000000 1.0
C      1  0.5053100000000  0.5291090000000  0.4560330000000 1.0
C      1  0.4660040000000  0.5162130000000  0.6277630000000 1.0
C      1  0.5189040000000  0.5565590000000  0.5400070000000 1.0
C      1  0.5267390000000  0.5279450000000  0.4366320000000 1.0
C      1  0.4974560000000  0.5469320000000  0.5563290000000 1.0
C      1  0.5722630000000  0.5535650000000  0.5071200000000 1.0
C      1  0.5182100000000  0.5101050000000  0.3911800000000 1.0
C      1  0.5547580000000  0.4388540000000  0.4832240000000 1.0
C      1  0.5002450000000  0.4184240000000  0.5463430000000 1.0
C      1  0.5450860000000  0.4793970000000  0.5912090000000 1.0
C      1  0.5016650000000  0.4206520000000  0.4727950000000 1.0
C      1  0.4215600000000  0.4644980000000  0.5056480000000 1.0
C      1  0.5692220000000  0.4817110000000  0.5304840000000 1.0
C      1  0.5088550000000  0.4752620000000  0.4765020000000 1.0
C      1  0.5290940000000  0.4950690000000  0.4774890000000 1.0
C      1  0.4994410000000  0.5761290000000  0.4983800000000 1.0
C      1  0.5430820000000  0.4387750000000  0.5334530000000 1.0
C      1  0.4353640000000  0.5139780000000  0.4375760000000 1.0
C      1  0.5274130000000  0.4982080000000  0.5974710000000 1.0
C      1  0.5173050000000  0.4794650000000  0.4293180000000 1.0
C      1  0.5572260000000  0.5124980000000  0.3541460000000 1.0
C      1  0.4633060000000  0.4885330000000  0.4883780000000 1.0
C      1  0.5089170000000  0.4243920000000  0.5000710000000 1.0
C      1  0.5844180000000  0.4810660000000  0.4708800000000 1.0
C      1  0.5319280000000  0.5359360000000  0.5257010000000 1.0
C      1  0.5491480000000  0.5425810000000  0.4467450000000 1.0
C      1  0.4394370000000  0.4440890000000  0.5137210000000 1.0
C      1  0.4461140000000  0.5079810000000  0.4824990000000 1.0
C      1  0.5099600000000  0.4622110000000  0.4508570000000 1.0
C      1  0.4737560000000  0.4782660000000  0.5561340000000 1.0
C      1  0.5748680000000  0.4585140000000  0.4817600000000 1.0
C      1  0.4711050000000  0.5687580000000  0.5008530000000 1.0
C      1  0.5168300000000  0.5208010000000  0.4811570000000 1.0
C      1  0.4909070000000  0.5135520000000  0.3852170000000 1.0
C      1  0.5261200000000  0.4245290000000  0.5514910000000 1.0
C      1  0.5128920000000  0.5790350000000  0.5235900000000 1.0
C      1  0.4979440000000  0.5197570000000  0.5652380000000 1.0
C      1  0.4800830000000  0.5290200000000  0.4441060000000 1.0
C      1  0.4358930000000  0.5531690000000  0.4676620000000 1.0
C      1  0.5713270000000  0.5079770000000  0.5264470000000 1.0
C      1  0.5368340000000  0.4338390000000  0.5056980000000 1.0
C      1  0.5435740000000  0.5638120000000  0.4665730000000 1.0
C      1  0.4890090000000  0.4229590000000  0.5207840000000 1.0
C      1  0.4602900000000  0.5200750000000  0.4254600000000 1.0
C      1  0.4448720000000  0.4999560000000  0.6295730000000 1.0
C      1  0.4342030000000  0.4798230000000  0.6155430000000 1.0
C      1  0.4190740000000  0.4884180000000  0.5209020000000 1.0
C      1  0.5381220000000  0.5112830000000  0.3718300000000 1.0
C      1  0.4202300000000  0.4902440000000  0.4355700000000 1.0
C      1  0.4594290000000  0.5563260000000  0.5247770000000 1.0
C      1  0.4390710000000  0.4670150000000  0.5926010000000 1.0
C      1  0.5445780000000  0.4302730000000  0.4577740000000 1.0
C      1  0.4983660000000  0.4991220000000  0.5192310000000 1.0
C      1  0.5563570000000  0.4642030000000  0.5724910000000 1.0
C      1  0.5048750000000  0.5139110000000  0.5922460000000 1.0
C      1  0.5646510000000  0.5674700000000  0.4853670000000 1.0
C      1  0.4345580000000  0.5254520000000  0.4638270000000 1.0
C      1  0.5240670000000  0.5053530000000  0.4187040000000 1.0
C      1  0.4549760000000  0.4670280000000  0.5712260000000 1.0
C      1  0.4891090000000  0.4820320000000  0.4970280000000 1.0
END
