TITL C-612603-7354-582 3.28695175156585 125000 -167.814551491626 0 0 30 (C1) n - 1
REM
REM in /home/nfs/bkarasulu/CARBON/AIRSS/Generating-Clusters/TERSOFF/Only-C1/FIRE-HFTN
REM
REM
REM
REM
REM
REM ./C.cell (11c1c37f851c82e70ff6c80c92926a4b)
REM AIRSS Version 0.9.1 bugfix July 2018 build 013d7b7c2542+ Fri, 06 Jul 2018 19:26:36 +0100
REM compiler GCC version 9.2.1 20190827 (Red Hat 9.2.1-1)
REM options -cpp -mtune=generic -march=x86-64 -g -O0 -fpre-include=/usr/include/finclude/math-vector-fortran.h
REM seed 898152823 -1882692010 552911358 -1003067323 244887916 -1982795887 273167770 -1366108744 -978279402 339757320 1483287858 -376342035 -1044968153 -1875306416 -1738251684 111508392 2103988457 -748288149 725068515 -1761607470 1106854440 -1760658434 705232542 -1010830032 1552608948 39788830 -1839324694 -1609759014 1862712587 869365840 -926579613 401980927 1814410521
REM
CELL 1.54180   50.00000   50.00000   50.00000   90.00000   90.00000   90.00000
LATT -1
SFAC C  
C      1  0.4488770000000  0.5994200000000  0.4119880000000 1.0
C      1  0.4910730000000  0.4557500000000  0.5925450000000 1.0
C      1  0.5583270000000  0.4445910000000  0.5612670000000 1.0
C      1  0.4613550000000  0.5890440000000  0.4323910000000 1.0
C      1  0.4976030000000  0.5529580000000  0.4931520000000 1.0
C      1  0.4884580000000  0.4692280000000  0.4521260000000 1.0
C      1  0.5170800000000  0.5156590000000  0.5272470000000 1.0
C      1  0.5081520000000  0.4620070000000  0.5695480000000 1.0
C      1  0.4982750000000  0.4777190000000  0.5032240000000 1.0
C      1  0.5033150000000  0.4239670000000  0.6340110000000 1.0
C      1  0.4864610000000  0.5662730000000  0.4731310000000 1.0
C      1  0.4884750000000  0.4971700000000  0.4126840000000 1.0
C      1  0.4970640000000  0.4394590000000  0.6140100000000 1.0
C      1  0.5338300000000  0.4523940000000  0.5655160000000 1.0
C      1  0.5616420000000  0.5188380000000  0.5581600000000 1.0
C      1  0.4932990000000  0.4709000000000  0.4781160000000 1.0
C      1  0.5077220000000  0.5367450000000  0.5114970000000 1.0
C      1  0.4942650000000  0.5211220000000  0.4029640000000 1.0
C      1  0.5030300000000  0.4909360000000  0.5273740000000 1.0
C      1  0.5402540000000  0.5186320000000  0.5425270000000 1.0
C      1  0.4742400000000  0.5780100000000  0.4527570000000 1.0
C      1  0.5091090000000  0.5677960000000  0.3838580000000 1.0
C      1  0.4749960000000  0.4507920000000  0.4094440000000 1.0
C      1  0.4938210000000  0.4801500000000  0.5514730000000 1.0
C      1  0.4666100000000  0.4703810000000  0.5878120000000 1.0
C      1  0.4681880000000  0.4844760000000  0.5640930000000 1.0
C      1  0.4666260000000  0.4306660000000  0.3951560000000 1.0
C      1  0.5824190000000  0.5178050000000  0.5738700000000 1.0
C      1  0.5014690000000  0.5447390000000  0.3933250000000 1.0
C      1  0.4839670000000  0.4723730000000  0.4247360000000 1.0
END
