TITL C-612602-9376-1187 0.0221456560495605 125000 -882.2938314813 0 0 144 (C1) n - 1
REM
REM in /home/nfs/bkarasulu/CARBON/AIRSS/Generating-Clusters/TERSOFF/Only-C1/FIRE-HFTN
REM
REM
REM
REM
REM
REM ./C.cell (11c1c37f851c82e70ff6c80c92926a4b)
REM AIRSS Version 0.9.1 bugfix July 2018 build 013d7b7c2542+ Fri, 06 Jul 2018 19:26:36 +0100
REM compiler GCC version 9.2.1 20190827 (Red Hat 9.2.1-1)
REM options -cpp -mtune=generic -march=x86-64 -g -O0 -fpre-include=/usr/include/finclude/math-vector-fortran.h
REM seed 26813661 -877408856 -1841523759 -379467456 -979043608 -549988911 -1188028511 1299840387 1589206440 1136320834 1844523343 1472985836 1735598709 389305747 -1674081771 373914278 715080082 735181588 559250250 1534958600 -2008287559 48362342 726962969 -789166760 1875999211 671106130 1899855797 1796012612 -1683214267 482908566 -1748869083 -1335490504 -1199192238
REM
CELL 1.54180   50.00000   50.00000   50.00000   90.00000   90.00000   90.00000
LATT -1
SFAC C  
C      1  0.4716230000000  0.5528510000000  0.5755370000000 1.0
C      1  0.4044200000000  0.4206760000000  0.4386280000000 1.0
C      1  0.4535180000000  0.6117730000000  0.4713930000000 1.0
C      1  0.5086910000000  0.4217390000000  0.5095750000000 1.0
C      1  0.5681420000000  0.3930970000000  0.4937880000000 1.0
C      1  0.5151620000000  0.5731980000000  0.4996930000000 1.0
C      1  0.5469340000000  0.5795220000000  0.5867050000000 1.0
C      1  0.5501080000000  0.4620370000000  0.4892500000000 1.0
C      1  0.5060290000000  0.4108240000000  0.4471060000000 1.0
C      1  0.5983840000000  0.4424370000000  0.5201100000000 1.0
C      1  0.4302730000000  0.5907080000000  0.5141150000000 1.0
C      1  0.5054600000000  0.5039080000000  0.4981200000000 1.0
C      1  0.4469660000000  0.4298960000000  0.4957060000000 1.0
C      1  0.4167150000000  0.5115940000000  0.5234650000000 1.0
C      1  0.4747470000000  0.5963790000000  0.5423180000000 1.0
C      1  0.4163740000000  0.5480280000000  0.4976200000000 1.0
C      1  0.6010290000000  0.4692190000000  0.5179660000000 1.0
C      1  0.5151580000000  0.4504080000000  0.4139190000000 1.0
C      1  0.4245150000000  0.4890080000000  0.5628710000000 1.0
C      1  0.4986630000000  0.6115450000000  0.4685480000000 1.0
C      1  0.4780000000000  0.5320860000000  0.4016210000000 1.0
C      1  0.3921880000000  0.4983240000000  0.4871150000000 1.0
C      1  0.4087130000000  0.4910910000000  0.5398120000000 1.0
C      1  0.5011110000000  0.4903480000000  0.5448680000000 1.0
C      1  0.4507760000000  0.4852270000000  0.4479080000000 1.0
C      1  0.4390280000000  0.4408030000000  0.4070600000000 1.0
C      1  0.4803730000000  0.4169360000000  0.4587910000000 1.0
C      1  0.5585140000000  0.4106870000000  0.5129640000000 1.0
C      1  0.5321930000000  0.4409380000000  0.5872660000000 1.0
C      1  0.4558290000000  0.5471710000000  0.4579580000000 1.0
C      1  0.5522790000000  0.6000630000000  0.5184770000000 1.0
C      1  0.4501430000000  0.4415730000000  0.6089940000000 1.0
C      1  0.4069680000000  0.4660520000000  0.5250120000000 1.0
C      1  0.5247940000000  0.5634000000000  0.4303180000000 1.0
C      1  0.4673050000000  0.4378780000000  0.4447490000000 1.0
C      1  0.5077550000000  0.5175300000000  0.5523300000000 1.0
C      1  0.5240820000000  0.6150360000000  0.4799880000000 1.0
C      1  0.5048470000000  0.4488730000000  0.4976260000000 1.0
C      1  0.4839900000000  0.4068150000000  0.5098510000000 1.0
C      1  0.4833870000000  0.5582590000000  0.4080400000000 1.0
C      1  0.5748900000000  0.4291490000000  0.5277250000000 1.0
C      1  0.4575360000000  0.4593690000000  0.4603690000000 1.0
C      1  0.3946340000000  0.4313130000000  0.4611140000000 1.0
C      1  0.4762160000000  0.4962300000000  0.4347010000000 1.0
C      1  0.5596440000000  0.5821260000000  0.5620120000000 1.0
C      1  0.5407970000000  0.4577200000000  0.6083760000000 1.0
C      1  0.5210940000000  0.3590050000000  0.4457080000000 1.0
C      1  0.5758440000000  0.5824220000000  0.5176670000000 1.0
C      1  0.4802280000000  0.5368420000000  0.4694870000000 1.0
C      1  0.4879400000000  0.4539520000000  0.4040250000000 1.0
C      1  0.5918390000000  0.4473670000000  0.4663040000000 1.0
C      1  0.4487630000000  0.4614770000000  0.5897590000000 1.0
C      1  0.4659790000000  0.5551090000000  0.5187120000000 1.0
C      1  0.5600340000000  0.4425330000000  0.5483890000000 1.0
C      1  0.4443780000000  0.5129650000000  0.5197220000000 1.0
C      1  0.4553990000000  0.5059060000000  0.4948430000000 1.0
C      1  0.5305570000000  0.5577060000000  0.4804830000000 1.0
C      1  0.4924510000000  0.5405110000000  0.5910730000000 1.0
C      1  0.4971050000000  0.5578490000000  0.5176790000000 1.0
C      1  0.5221240000000  0.4637510000000  0.4802120000000 1.0
C      1  0.5031630000000  0.5295510000000  0.4543710000000 1.0
C      1  0.5321790000000  0.5021670000000  0.5091080000000 1.0
C      1  0.4867720000000  0.4385010000000  0.5711740000000 1.0
C      1  0.5748440000000  0.5657900000000  0.5425600000000 1.0
C      1  0.5594330000000  0.5684850000000  0.3962080000000 1.0
C      1  0.6190910000000  0.5696770000000  0.4990950000000 1.0
C      1  0.4646730000000  0.4100830000000  0.5319790000000 1.0
C      1  0.4893180000000  0.5972790000000  0.4433440000000 1.0
C      1  0.4206210000000  0.4218580000000  0.4172240000000 1.0
C      1  0.4996270000000  0.5765340000000  0.4243240000000 1.0
C      1  0.4542430000000  0.4042430000000  0.6457680000000 1.0
C      1  0.4783410000000  0.5807820000000  0.5670530000000 1.0
C      1  0.5804960000000  0.5380060000000  0.5416070000000 1.0
C      1  0.4763790000000  0.6140820000000  0.4889010000000 1.0
C      1  0.4385910000000  0.5651380000000  0.5076090000000 1.0
C      1  0.3958420000000  0.4705870000000  0.4984430000000 1.0
C      1  0.3879790000000  0.4996290000000  0.4591600000000 1.0
C      1  0.4977260000000  0.5920360000000  0.5848920000000 1.0
C      1  0.4416280000000  0.5036260000000  0.4698220000000 1.0
C      1  0.5329120000000  0.4713990000000  0.4055310000000 1.0
C      1  0.4766320000000  0.6087130000000  0.5175340000000 1.0
C      1  0.5314200000000  0.4062990000000  0.5516660000000 1.0
C      1  0.4494470000000  0.5712690000000  0.4457890000000 1.0
C      1  0.4660890000000  0.4400250000000  0.4164170000000 1.0
C      1  0.5672520000000  0.5104440000000  0.4595790000000 1.0
C      1  0.4601610000000  0.5967060000000  0.4478800000000 1.0
C      1  0.5224520000000  0.5876630000000  0.5943420000000 1.0
C      1  0.5481750000000  0.4358390000000  0.4485920000000 1.0
C      1  0.5476560000000  0.4937600000000  0.4520760000000 1.0
C      1  0.4813120000000  0.4792570000000  0.5277800000000 1.0
C      1  0.4577010000000  0.4555740000000  0.4883500000000 1.0
C      1  0.5500330000000  0.5422770000000  0.4938680000000 1.0
C      1  0.5696110000000  0.5301310000000  0.4777210000000 1.0
C      1  0.5461570000000  0.4256130000000  0.5674920000000 1.0
C      1  0.5313570000000  0.4100220000000  0.5228910000000 1.0
C      1  0.5195780000000  0.4706480000000  0.5530700000000 1.0
C      1  0.4802340000000  0.4625700000000  0.5048320000000 1.0
C      1  0.4027470000000  0.5220290000000  0.5011660000000 1.0
C      1  0.5449610000000  0.4659100000000  0.5402870000000 1.0
C      1  0.5530980000000  0.4805670000000  0.5146020000000 1.0
C      1  0.5116060000000  0.5226210000000  0.5804610000000 1.0
C      1  0.4572380000000  0.5324610000000  0.5351240000000 1.0
C      1  0.5494000000000  0.6045270000000  0.5465000000000 1.0
C      1  0.4347760000000  0.5287260000000  0.4590090000000 1.0
C      1  0.5390820000000  0.4973560000000  0.4012920000000 1.0
C      1  0.5229230000000  0.5494660000000  0.4547210000000 1.0
C      1  0.6171950000000  0.5230590000000  0.5155530000000 1.0
C      1  0.5972690000000  0.6094500000000  0.4837890000000 1.0
C      1  0.5793360000000  0.3767010000000  0.4769070000000 1.0
C      1  0.5818810000000  0.4904720000000  0.5195560000000 1.0
C      1  0.5974360000000  0.5874070000000  0.5000330000000 1.0
C      1  0.3915170000000  0.4485070000000  0.4812980000000 1.0
C      1  0.4685030000000  0.4109270000000  0.4849950000000 1.0
C      1  0.4332100000000  0.4603470000000  0.5652030000000 1.0
C      1  0.4571020000000  0.4892080000000  0.5938860000000 1.0
C      1  0.4819520000000  0.4798100000000  0.3918720000000 1.0
C      1  0.5545950000000  0.4482170000000  0.6298870000000 1.0
C      1  0.5103310000000  0.4518380000000  0.5722810000000 1.0
C      1  0.5759430000000  0.5842610000000  0.3836500000000 1.0
C      1  0.4441490000000  0.5076830000000  0.5753180000000 1.0
C      1  0.4419250000000  0.4271550000000  0.5247350000000 1.0
C      1  0.5147280000000  0.3842680000000  0.4462650000000 1.0
C      1  0.4263500000000  0.4470280000000  0.5389960000000 1.0
C      1  0.5921000000000  0.5163770000000  0.5269520000000 1.0
C      1  0.5646880000000  0.4475330000000  0.4690070000000 1.0
C      1  0.4811280000000  0.5165470000000  0.4905760000000 1.0
C      1  0.5009080000000  0.5013980000000  0.4482880000000 1.0
C      1  0.4549440000000  0.5324380000000  0.5633730000000 1.0
C      1  0.6276270000000  0.5450010000000  0.5044100000000 1.0
C      1  0.5405550000000  0.5241530000000  0.4037190000000 1.0
C      1  0.5229550000000  0.4317780000000  0.4354350000000 1.0
C      1  0.4019850000000  0.4939200000000  0.4370220000000 1.0
C      1  0.5330940000000  0.5117090000000  0.5959310000000 1.0
C      1  0.5340590000000  0.4852140000000  0.6057680000000 1.0
C      1  0.5381480000000  0.5292380000000  0.5162230000000 1.0
C      1  0.5547440000000  0.5276740000000  0.6014960000000 1.0
C      1  0.5145270000000  0.5376490000000  0.5321830000000 1.0
C      1  0.5415940000000  0.5519770000000  0.4099690000000 1.0
C      1  0.5300410000000  0.5981320000000  0.5016770000000 1.0
C      1  0.4288320000000  0.4671840000000  0.4057400000000 1.0
C      1  0.4519820000000  0.4228150000000  0.6276140000000 1.0
C      1  0.4269440000000  0.4839440000000  0.4283750000000 1.0
C      1  0.4768390000000  0.5037750000000  0.4067910000000 1.0
C      1  0.5212920000000  0.4840450000000  0.4584660000000 1.0
END
