TITL C-612602-9376-1007 0.0984929758672325 125000 -347.506140981886 0 0 58 (C1) n - 1
REM
REM in /home/nfs/bkarasulu/CARBON/AIRSS/Generating-Clusters/TERSOFF/Only-C1/FIRE-HFTN
REM
REM
REM
REM
REM
REM ./C.cell (11c1c37f851c82e70ff6c80c92926a4b)
REM AIRSS Version 0.9.1 bugfix July 2018 build 013d7b7c2542+ Fri, 06 Jul 2018 19:26:36 +0100
REM compiler GCC version 9.2.1 20190827 (Red Hat 9.2.1-1)
REM options -cpp -mtune=generic -march=x86-64 -g -O0 -fpre-include=/usr/include/finclude/math-vector-fortran.h
REM seed -1750869072 1092369293 -1674066259 -135861478 1889778588 -2061414793 -944900021 -153526578 175674392 -949065486 645436667 -745172943 -917201343 676973292 -457481441 -715325362 1617327819 -1368680908 1706659301 -566516862 -801802548 -795490793 1152038796 2065915899 326837470 -1470165032 -1080271222 1954593918 -1562466352 1588763920 -505598341 -1539787971 -660622506
REM
CELL 1.54180   50.00000   50.00000   50.00000   90.00000   90.00000   90.00000
LATT -1
SFAC C  
C      1  0.5364070000000  0.5528790000000  0.5206080000000 1.0
C      1  0.5400540000000  0.4649540000000  0.4777750000000 1.0
C      1  0.4931360000000  0.5023000000000  0.4909970000000 1.0
C      1  0.4829330000000  0.4872990000000  0.5394840000000 1.0
C      1  0.5079040000000  0.5913480000000  0.4554570000000 1.0
C      1  0.4869570000000  0.4491290000000  0.5713290000000 1.0
C      1  0.5098300000000  0.4475130000000  0.4484430000000 1.0
C      1  0.4048050000000  0.4597890000000  0.4331270000000 1.0
C      1  0.5217640000000  0.5489130000000  0.3988710000000 1.0
C      1  0.4666890000000  0.5485040000000  0.4901920000000 1.0
C      1  0.4546880000000  0.4733380000000  0.4796550000000 1.0
C      1  0.4517460000000  0.5247940000000  0.5479420000000 1.0
C      1  0.4631430000000  0.4671260000000  0.5373480000000 1.0
C      1  0.5616700000000  0.5616830000000  0.5258800000000 1.0
C      1  0.4504180000000  0.4628720000000  0.4538150000000 1.0
C      1  0.4761110000000  0.5232210000000  0.4820390000000 1.0
C      1  0.5383900000000  0.4960830000000  0.5741890000000 1.0
C      1  0.5150650000000  0.5562750000000  0.3747770000000 1.0
C      1  0.5345890000000  0.5334990000000  0.4494210000000 1.0
C      1  0.5297670000000  0.5367990000000  0.4977040000000 1.0
C      1  0.5218400000000  0.4691520000000  0.4358400000000 1.0
C      1  0.4756990000000  0.5113690000000  0.5527350000000 1.0
C      1  0.5392200000000  0.4834790000000  0.4541030000000 1.0
C      1  0.4964540000000  0.5211200000000  0.5696880000000 1.0
C      1  0.4433200000000  0.5494770000000  0.5057530000000 1.0
C      1  0.4959720000000  0.4722140000000  0.5848250000000 1.0
C      1  0.5857580000000  0.4778940000000  0.4947470000000 1.0
C      1  0.4942470000000  0.5739710000000  0.5206490000000 1.0
C      1  0.5297470000000  0.4573750000000  0.5485960000000 1.0
C      1  0.4809970000000  0.4756510000000  0.4904480000000 1.0
C      1  0.4764560000000  0.4426240000000  0.5437870000000 1.0
C      1  0.4869140000000  0.5684150000000  0.4935670000000 1.0
C      1  0.4382240000000  0.5393690000000  0.5300860000000 1.0
C      1  0.5073420000000  0.5460250000000  0.5605930000000 1.0
C      1  0.5162470000000  0.4472790000000  0.4769880000000 1.0
C      1  0.5134710000000  0.5601460000000  0.5364940000000 1.0
C      1  0.5253390000000  0.5482750000000  0.4721040000000 1.0
C      1  0.5502220000000  0.5097300000000  0.4534370000000 1.0
C      1  0.5276850000000  0.4998860000000  0.5269760000000 1.0
C      1  0.5630280000000  0.4634910000000  0.4937380000000 1.0
C      1  0.4950370000000  0.4508210000000  0.4959770000000 1.0
C      1  0.3852450000000  0.4689490000000  0.4491700000000 1.0
C      1  0.5437570000000  0.5095870000000  0.5488300000000 1.0
C      1  0.5283990000000  0.5416600000000  0.4234720000000 1.0
C      1  0.5182150000000  0.5113780000000  0.5032130000000 1.0
C      1  0.5449370000000  0.4684460000000  0.5702190000000 1.0
C      1  0.4911570000000  0.4333350000000  0.5198290000000 1.0
C      1  0.5067230000000  0.5701890000000  0.4726290000000 1.0
C      1  0.5139490000000  0.4176930000000  0.5262770000000 1.0
C      1  0.5103990000000  0.4987260000000  0.5826800000000 1.0
C      1  0.5331540000000  0.4307890000000  0.5400780000000 1.0
C      1  0.4314460000000  0.4575640000000  0.4356720000000 1.0
C      1  0.5922200000000  0.4996210000000  0.4801250000000 1.0
C      1  0.4317230000000  0.4818010000000  0.4936130000000 1.0
C      1  0.5771010000000  0.5124570000000  0.4618980000000 1.0
C      1  0.5115470000000  0.4780840000000  0.5363550000000 1.0
C      1  0.4051280000000  0.4843240000000  0.4917580000000 1.0
C      1  0.3856200000000  0.4793150000000  0.4739970000000 1.0
END
