TITL C-612601-4209-1360 0.000124825882068331 125000 -440.191301177644 0 0 74 (C1) n - 1
REM
REM in /home/nfs/bkarasulu/CARBON/AIRSS/Generating-Clusters/TERSOFF/Only-C1/FIRE-HFTN
REM
REM
REM
REM
REM
REM ./C.cell (11c1c37f851c82e70ff6c80c92926a4b)
REM AIRSS Version 0.9.1 bugfix July 2018 build 013d7b7c2542+ Fri, 06 Jul 2018 19:26:36 +0100
REM compiler GCC version 9.2.1 20190827 (Red Hat 9.2.1-1)
REM options -cpp -mtune=generic -march=x86-64 -g -O0 -fpre-include=/usr/include/finclude/math-vector-fortran.h
REM seed -526285747 -1375835222 -2002423510 1490701715 -781216144 -1902586196 149771402 -332125177 270302133 1397059484 278306010 -2043679824 -1344744589 -1248083602 1957873663 -1024463211 1841469645 -295169325 -233294833 -1961783187 1198583627 632819296 -1451150286 -700709931 482886897 -654198564 -800944941 375781344 1873974891 -1363858725 -332043097 1663938758 -600630658
REM
CELL 1.54180   50.00000   50.00000   50.00000   90.00000   90.00000   90.00000
LATT -1
SFAC C  
C      1  0.4603740000000  0.4870170000000  0.4042040000000 1.0
C      1  0.3843380000000  0.5390920000000  0.5227320000000 1.0
C      1  0.5280490000000  0.4365230000000  0.4360680000000 1.0
C      1  0.4816030000000  0.5683900000000  0.4521120000000 1.0
C      1  0.4903850000000  0.4546480000000  0.5589890000000 1.0
C      1  0.5257770000000  0.4299190000000  0.5275680000000 1.0
C      1  0.4712140000000  0.5760000000000  0.5471440000000 1.0
C      1  0.4461550000000  0.5372480000000  0.4309050000000 1.0
C      1  0.4949620000000  0.5589530000000  0.5896720000000 1.0
C      1  0.4535880000000  0.4649790000000  0.4461670000000 1.0
C      1  0.4382940000000  0.5120870000000  0.4703580000000 1.0
C      1  0.4992180000000  0.5706180000000  0.5433640000000 1.0
C      1  0.5186560000000  0.6024940000000  0.4938410000000 1.0
C      1  0.5024800000000  0.3929180000000  0.5539920000000 1.0
C      1  0.4617440000000  0.5581540000000  0.4373540000000 1.0
C      1  0.4809390000000  0.4319910000000  0.5725110000000 1.0
C      1  0.5088370000000  0.4980890000000  0.4021950000000 1.0
C      1  0.5108550000000  0.4520650000000  0.5384040000000 1.0
C      1  0.5809720000000  0.5394190000000  0.5642970000000 1.0
C      1  0.5427890000000  0.5013970000000  0.4378950000000 1.0
C      1  0.5682930000000  0.5138290000000  0.4760380000000 1.0
C      1  0.5067420000000  0.5616700000000  0.5161160000000 1.0
C      1  0.5588350000000  0.5224890000000  0.5007470000000 1.0
C      1  0.4878020000000  0.4304770000000  0.3905440000000 1.0
C      1  0.5459210000000  0.4433890000000  0.4821870000000 1.0
C      1  0.4780140000000  0.4081230000000  0.3814020000000 1.0
C      1  0.4926240000000  0.4717540000000  0.4771940000000 1.0
C      1  0.4991820000000  0.5019480000000  0.5655260000000 1.0
C      1  0.5918600000000  0.5359350000000  0.5392130000000 1.0
C      1  0.4853690000000  0.5177280000000  0.4716670000000 1.0
C      1  0.5002140000000  0.5243600000000  0.5463220000000 1.0
C      1  0.4397500000000  0.5119750000000  0.4418520000000 1.0
C      1  0.4460240000000  0.5139900000000  0.5740610000000 1.0
C      1  0.5096230000000  0.5331870000000  0.5192250000000 1.0
C      1  0.5559030000000  0.5043620000000  0.5437070000000 1.0
C      1  0.5583830000000  0.4926220000000  0.4602070000000 1.0
C      1  0.5288220000000  0.4852690000000  0.4193520000000 1.0
C      1  0.5260000000000  0.5504460000000  0.4520380000000 1.0
C      1  0.5094420000000  0.5490440000000  0.5642690000000 1.0
C      1  0.4473910000000  0.5606400000000  0.5501350000000 1.0
C      1  0.5210170000000  0.4568220000000  0.4182680000000 1.0
C      1  0.4468340000000  0.4959170000000  0.5300780000000 1.0
C      1  0.5735240000000  0.4292830000000  0.5193060000000 1.0
C      1  0.5477380000000  0.4342190000000  0.5092940000000 1.0
C      1  0.4865070000000  0.4806720000000  0.3964590000000 1.0
C      1  0.5334070000000  0.4945480000000  0.5266920000000 1.0
C      1  0.4854690000000  0.4055440000000  0.5706550000000 1.0
C      1  0.5569380000000  0.5238240000000  0.5667570000000 1.0
C      1  0.4236320000000  0.5114580000000  0.5256420000000 1.0
C      1  0.5337570000000  0.4291240000000  0.4611980000000 1.0
C      1  0.4976870000000  0.4540950000000  0.4010650000000 1.0
C      1  0.5360100000000  0.5292030000000  0.4391050000000 1.0
C      1  0.4114570000000  0.5368470000000  0.5257520000000 1.0
C      1  0.4545220000000  0.4923870000000  0.5574080000000 1.0
C      1  0.5123350000000  0.4755260000000  0.5226770000000 1.0
C      1  0.5572800000000  0.4676990000000  0.4732150000000 1.0
C      1  0.5974950000000  0.4259390000000  0.5289640000000 1.0
C      1  0.4894200000000  0.4782770000000  0.5052920000000 1.0
C      1  0.4658050000000  0.4949120000000  0.5091090000000 1.0
C      1  0.4275480000000  0.5602920000000  0.5295110000000 1.0
C      1  0.4614510000000  0.5126380000000  0.4865320000000 1.0
C      1  0.4451750000000  0.5407060000000  0.5702080000000 1.0
C      1  0.5103920000000  0.5763260000000  0.4920370000000 1.0
C      1  0.5190110000000  0.4038590000000  0.5358310000000 1.0
C      1  0.5310230000000  0.5180130000000  0.5083870000000 1.0
C      1  0.5062520000000  0.5654670000000  0.4656760000000 1.0
C      1  0.5002680000000  0.4961360000000  0.4643610000000 1.0
C      1  0.5329970000000  0.5313130000000  0.5793190000000 1.0
C      1  0.5171600000000  0.5079390000000  0.5867720000000 1.0
C      1  0.4729680000000  0.4570170000000  0.4632430000000 1.0
C      1  0.4241940000000  0.5820120000000  0.5131450000000 1.0
C      1  0.5753550000000  0.5181400000000  0.5240140000000 1.0
C      1  0.4802290000000  0.4812970000000  0.5629820000000 1.0
C      1  0.4477160000000  0.4873160000000  0.4294730000000 1.0
END
