TITL C-612602-9376-74 1.31945522982398 125000 -490.25911328454 0 0 81 (C1) n - 1
REM
REM in /home/nfs/bkarasulu/CARBON/AIRSS/Generating-Clusters/TERSOFF/Only-C1/FIRE-HFTN
REM
REM
REM
REM
REM
REM ./C.cell (11c1c37f851c82e70ff6c80c92926a4b)
REM AIRSS Version 0.9.1 bugfix July 2018 build 013d7b7c2542+ Fri, 06 Jul 2018 19:26:36 +0100
REM compiler GCC version 9.2.1 20190827 (Red Hat 9.2.1-1)
REM options -cpp -mtune=generic -march=x86-64 -g -O0 -fpre-include=/usr/include/finclude/math-vector-fortran.h
REM seed 494658272 1615716040 1597885361 -1181293857 725909886 1006128934 1545486702 524955317 -1303018978 1477608864 581485256 -96323672 1624170811 1693419549 -874212238 1603137980 1594821982 -1548136531 829876690 -320548787 -1340470698 1449952944 1666837478 86642534 1107198842 1437928729 -259476268 1912410074 -1708651428 665530057 -497325295 690986550 987362832
REM
CELL 1.54180   50.00000   50.00000   50.00000   90.00000   90.00000   90.00000
LATT -1
SFAC C  
C      1  0.5126430000000  0.4616490000000  0.4760360000000 1.0
C      1  0.4700010000000  0.5611140000000  0.5498280000000 1.0
C      1  0.5036040000000  0.5603860000000  0.4422970000000 1.0
C      1  0.4619500000000  0.5774260000000  0.5299440000000 1.0
C      1  0.4576630000000  0.4458990000000  0.5246260000000 1.0
C      1  0.5121720000000  0.4581070000000  0.5749330000000 1.0
C      1  0.4191410000000  0.5005080000000  0.5527880000000 1.0
C      1  0.5357040000000  0.5074890000000  0.5561610000000 1.0
C      1  0.4555600000000  0.5763270000000  0.5019570000000 1.0
C      1  0.5877130000000  0.5186760000000  0.5219740000000 1.0
C      1  0.5159680000000  0.4950840000000  0.5146540000000 1.0
C      1  0.4682560000000  0.4881430000000  0.5630750000000 1.0
C      1  0.4069350000000  0.4947160000000  0.5048140000000 1.0
C      1  0.5568730000000  0.5278910000000  0.4774690000000 1.0
C      1  0.4681320000000  0.5218910000000  0.4400270000000 1.0
C      1  0.4765940000000  0.5113780000000  0.5463740000000 1.0
C      1  0.4905980000000  0.4988000000000  0.5248710000000 1.0
C      1  0.4815020000000  0.5660260000000  0.4591420000000 1.0
C      1  0.5622950000000  0.4650950000000  0.5688530000000 1.0
C      1  0.5208040000000  0.4892320000000  0.4869910000000 1.0
C      1  0.4589980000000  0.5121340000000  0.4982800000000 1.0
C      1  0.5028130000000  0.5851460000000  0.4979560000000 1.0
C      1  0.4326170000000  0.4890560000000  0.4630130000000 1.0
C      1  0.5012850000000  0.5384150000000  0.4993410000000 1.0
C      1  0.4118020000000  0.5057350000000  0.4771870000000 1.0
C      1  0.4830240000000  0.3942400000000  0.4729730000000 1.0
C      1  0.5377610000000  0.4916600000000  0.5317570000000 1.0
C      1  0.4645760000000  0.4560710000000  0.4176890000000 1.0
C      1  0.4994340000000  0.4685600000000  0.4493070000000 1.0
C      1  0.5505970000000  0.5524610000000  0.4632450000000 1.0
C      1  0.4350170000000  0.4611010000000  0.5317090000000 1.0
C      1  0.5367730000000  0.4445880000000  0.4856390000000 1.0
C      1  0.5352660000000  0.5346300000000  0.4196530000000 1.0
C      1  0.5739130000000  0.5718170000000  0.5418310000000 1.0
C      1  0.4721420000000  0.3210250000000  0.4451530000000 1.0
C      1  0.4310770000000  0.4644220000000  0.4795140000000 1.0
C      1  0.4401220000000  0.4805720000000  0.5536070000000 1.0
C      1  0.5759090000000  0.5869080000000  0.4935150000000 1.0
C      1  0.5526940000000  0.5539130000000  0.5470750000000 1.0
C      1  0.4039130000000  0.5065100000000  0.5306670000000 1.0
C      1  0.4737240000000  0.4733540000000  0.4377040000000 1.0
C      1  0.5375040000000  0.4501060000000  0.5638650000000 1.0
C      1  0.5122470000000  0.5232290000000  0.4099080000000 1.0
C      1  0.5770970000000  0.5255940000000  0.4977870000000 1.0
C      1  0.5634260000000  0.5756760000000  0.4726760000000 1.0
C      1  0.4350320000000  0.5570270000000  0.4967070000000 1.0
C      1  0.5312490000000  0.5526400000000  0.4418840000000 1.0
C      1  0.5362370000000  0.4353210000000  0.5389850000000 1.0
C      1  0.5801500000000  0.5118930000000  0.5489470000000 1.0
C      1  0.4700020000000  0.5397650000000  0.4621500000000 1.0
C      1  0.5565540000000  0.5274070000000  0.5567170000000 1.0
C      1  0.5000410000000  0.5312920000000  0.5789520000000 1.0
C      1  0.4793950000000  0.3696820000000  0.4637050000000 1.0
C      1  0.5392490000000  0.5060760000000  0.4739430000000 1.0
C      1  0.5835080000000  0.4458410000000  0.4691730000000 1.0
C      1  0.4866390000000  0.4189860000000  0.4816810000000 1.0
C      1  0.5130830000000  0.5616270000000  0.5102800000000 1.0
C      1  0.4043390000000  0.5318660000000  0.4694690000000 1.0
C      1  0.5813370000000  0.5851540000000  0.5196870000000 1.0
C      1  0.5290410000000  0.5601330000000  0.5330220000000 1.0
C      1  0.4889200000000  0.5306640000000  0.4226670000000 1.0
C      1  0.4204610000000  0.4686130000000  0.5069540000000 1.0
C      1  0.4781170000000  0.5818060000000  0.4834410000000 1.0
C      1  0.5943160000000  0.4622010000000  0.4877740000000 1.0
C      1  0.4732310000000  0.4595300000000  0.5056080000000 1.0
C      1  0.4564980000000  0.4954580000000  0.4457900000000 1.0
C      1  0.4402790000000  0.5310740000000  0.5082690000000 1.0
C      1  0.4142540000000  0.5557480000000  0.4777390000000 1.0
C      1  0.4556040000000  0.4391660000000  0.4000030000000 1.0
C      1  0.4788320000000  0.5280900000000  0.4857940000000 1.0
C      1  0.4902430000000  0.4458490000000  0.4885420000000 1.0
C      1  0.5563840000000  0.4725600000000  0.5201310000000 1.0
C      1  0.4802470000000  0.5368220000000  0.5590580000000 1.0
C      1  0.5428690000000  0.4473190000000  0.5141080000000 1.0
C      1  0.5823650000000  0.4735040000000  0.5091520000000 1.0
C      1  0.5578060000000  0.4374920000000  0.4681610000000 1.0
C      1  0.5136230000000  0.5062410000000  0.5748600000000 1.0
C      1  0.4708850000000  0.4879260000000  0.5071520000000 1.0
C      1  0.5796410000000  0.4855920000000  0.5619920000000 1.0
C      1  0.4959890000000  0.4817240000000  0.5752840000000 1.0
C      1  0.4757390000000  0.3451510000000  0.4543530000000 1.0
END
