TITL C-612605-9286-650 -5.297135944215 125000 -1151.85518332843 0 0 187 (C1) n - 1
REM
REM in /home/nfs/bkarasulu/CARBON/AIRSS/Generating-Clusters/TERSOFF/Only-C1/FIRE-HFTN
REM
REM
REM
REM
REM
REM ./C.cell (11c1c37f851c82e70ff6c80c92926a4b)
REM AIRSS Version 0.9.1 bugfix July 2018 build 013d7b7c2542+ Fri, 06 Jul 2018 19:26:36 +0100
REM compiler GCC version 9.2.1 20190827 (Red Hat 9.2.1-1)
REM options -cpp -mtune=generic -march=x86-64 -g -O0 -fpre-include=/usr/include/finclude/math-vector-fortran.h
REM seed -1448241366 -807848417 -1099375400 602413289 -46975174 -99049511 -1003863181 -706593681 363270863 1950445844 -1081379162 1085753389 101252557 1771645874 -324792568 -829312243 981914686 229029531 188873529 1889390627 1715206702 561932817 -1147776434 173050713 -1868722492 114828456 684615343 184654483 660666767 -1210832052 -796700911 -952149539 -1124458738
REM
CELL 1.54180   50.00000   50.00000   50.00000   90.00000   90.00000   90.00000
LATT -1
SFAC C  
C      1  0.5253880000000  0.5906090000000  0.5005100000000 1.0
C      1  0.4606790000000  0.5118490000000  0.3787110000000 1.0
C      1  0.6251270000000  0.5143660000000  0.5464340000000 1.0
C      1  0.4798870000000  0.3971550000000  0.5353100000000 1.0
C      1  0.4104250000000  0.3865400000000  0.5302650000000 1.0
C      1  0.5347750000000  0.4350460000000  0.4937480000000 1.0
C      1  0.5861550000000  0.5303190000000  0.5779230000000 1.0
C      1  0.5408340000000  0.4985820000000  0.5878460000000 1.0
C      1  0.4315870000000  0.4024570000000  0.5312830000000 1.0
C      1  0.5136350000000  0.4868280000000  0.4051730000000 1.0
C      1  0.4895980000000  0.5165810000000  0.3771910000000 1.0
C      1  0.5883940000000  0.4101570000000  0.4609700000000 1.0
C      1  0.5291390000000  0.5421160000000  0.4491230000000 1.0
C      1  0.5740670000000  0.4415270000000  0.4267540000000 1.0
C      1  0.5615050000000  0.3683460000000  0.5177160000000 1.0
C      1  0.3929670000000  0.4576340000000  0.4978620000000 1.0
C      1  0.5667460000000  0.4851460000000  0.5191090000000 1.0
C      1  0.5124100000000  0.3689410000000  0.5096680000000 1.0
C      1  0.5191860000000  0.6077660000000  0.4303190000000 1.0
C      1  0.4573510000000  0.5276180000000  0.4865350000000 1.0
C      1  0.4876470000000  0.4550530000000  0.4380560000000 1.0
C      1  0.4610000000000  0.5763510000000  0.5880670000000 1.0
C      1  0.5889580000000  0.4012840000000  0.4879380000000 1.0
C      1  0.5679200000000  0.3825640000000  0.4938890000000 1.0
C      1  0.4773750000000  0.4466270000000  0.5821640000000 1.0
C      1  0.4837230000000  0.6349770000000  0.4477850000000 1.0
C      1  0.4955090000000  0.4796060000000  0.4498450000000 1.0
C      1  0.4016030000000  0.5024870000000  0.4798890000000 1.0
C      1  0.4331620000000  0.4140980000000  0.4382760000000 1.0
C      1  0.4592710000000  0.5069310000000  0.5475300000000 1.0
C      1  0.5887350000000  0.4206330000000  0.5576400000000 1.0
C      1  0.4170590000000  0.4690280000000  0.4060750000000 1.0
C      1  0.3767960000000  0.4355240000000  0.4927810000000 1.0
C      1  0.5839850000000  0.5495660000000  0.5575510000000 1.0
C      1  0.5211900000000  0.4268690000000  0.5910140000000 1.0
C      1  0.5478960000000  0.4260850000000  0.5901190000000 1.0
C      1  0.4973180000000  0.4265520000000  0.5755280000000 1.0
C      1  0.4681440000000  0.5939130000000  0.5671870000000 1.0
C      1  0.4614830000000  0.4293470000000  0.4694270000000 1.0
C      1  0.4235560000000  0.5880630000000  0.4492070000000 1.0
C      1  0.4632660000000  0.4379210000000  0.5168950000000 1.0
C      1  0.4037650000000  0.4734560000000  0.4758270000000 1.0
C      1  0.5801370000000  0.5372120000000  0.4139780000000 1.0
C      1  0.4636250000000  0.5125320000000  0.6166400000000 1.0
C      1  0.3995940000000  0.5386770000000  0.5142930000000 1.0
C      1  0.4656900000000  0.5142180000000  0.4354520000000 1.0
C      1  0.4462130000000  0.5554480000000  0.5998270000000 1.0
C      1  0.4928450000000  0.3905990000000  0.4728320000000 1.0
C      1  0.4858710000000  0.6175210000000  0.4933350000000 1.0
C      1  0.5829780000000  0.5040130000000  0.5669250000000 1.0
C      1  0.5299870000000  0.6372060000000  0.5144850000000 1.0
C      1  0.5705180000000  0.4299170000000  0.4518760000000 1.0
C      1  0.5850470000000  0.6310370000000  0.5663600000000 1.0
C      1  0.4094360000000  0.5656290000000  0.4389020000000 1.0
C      1  0.6026420000000  0.4197590000000  0.5055090000000 1.0
C      1  0.4206300000000  0.5498860000000  0.5898440000000 1.0
C      1  0.4991200000000  0.4650250000000  0.5337950000000 1.0
C      1  0.5426990000000  0.4972140000000  0.5294670000000 1.0
C      1  0.4233590000000  0.5942300000000  0.4770090000000 1.0
C      1  0.4260790000000  0.4778530000000  0.4319270000000 1.0
C      1  0.5424810000000  0.5648170000000  0.4950150000000 1.0
C      1  0.4721550000000  0.5919910000000  0.4290440000000 1.0
C      1  0.5321240000000  0.5255500000000  0.5289700000000 1.0
C      1  0.4392050000000  0.4636850000000  0.3888090000000 1.0
C      1  0.6127140000000  0.6009700000000  0.5151160000000 1.0
C      1  0.5656210000000  0.6130480000000  0.5594510000000 1.0
C      1  0.4808880000000  0.6357620000000  0.4744710000000 1.0
C      1  0.4113690000000  0.5373490000000  0.4374870000000 1.0
C      1  0.5057850000000  0.4604580000000  0.3976630000000 1.0
C      1  0.4437140000000  0.4207320000000  0.4124720000000 1.0
C      1  0.3901650000000  0.3695890000000  0.5281270000000 1.0
C      1  0.4545840000000  0.5913570000000  0.5425740000000 1.0
C      1  0.4510710000000  0.4851110000000  0.3742820000000 1.0
C      1  0.5089630000000  0.5589250000000  0.5511030000000 1.0
C      1  0.5451100000000  0.3820930000000  0.4758790000000 1.0
C      1  0.5550610000000  0.6179100000000  0.4749100000000 1.0
C      1  0.4261790000000  0.5241570000000  0.4164560000000 1.0
C      1  0.6155740000000  0.4429430000000  0.4943840000000 1.0
C      1  0.4449760000000  0.5977600000000  0.4337860000000 1.0
C      1  0.3994020000000  0.4658220000000  0.5246170000000 1.0
C      1  0.5357190000000  0.4978300000000  0.4898600000000 1.0
C      1  0.5154330000000  0.6397320000000  0.5369650000000 1.0
C      1  0.4966100000000  0.5919820000000  0.4996550000000 1.0
C      1  0.5747440000000  0.5096310000000  0.6202470000000 1.0
C      1  0.3735150000000  0.5308910000000  0.5764980000000 1.0
C      1  0.5478470000000  0.5497160000000  0.5217150000000 1.0
C      1  0.5357220000000  0.3615490000000  0.5239890000000 1.0
C      1  0.4404040000000  0.5285940000000  0.3916250000000 1.0
C      1  0.6199000000000  0.4694040000000  0.4896460000000 1.0
C      1  0.4577010000000  0.5500340000000  0.6470220000000 1.0
C      1  0.5241420000000  0.5490490000000  0.4765500000000 1.0
C      1  0.4404970000000  0.5022950000000  0.4304160000000 1.0
C      1  0.6148400000000  0.5227530000000  0.5006270000000 1.0
C      1  0.4858680000000  0.4155210000000  0.4621050000000 1.0
C      1  0.5511430000000  0.4378620000000  0.4710520000000 1.0
C      1  0.5440350000000  0.5154320000000  0.3867630000000 1.0
C      1  0.5214380000000  0.4788460000000  0.5353000000000 1.0
C      1  0.6110140000000  0.4935070000000  0.5017660000000 1.0
C      1  0.5488800000000  0.5008490000000  0.4646260000000 1.0
C      1  0.5078280000000  0.4430660000000  0.4936190000000 1.0
C      1  0.3909370000000  0.4662560000000  0.3990310000000 1.0
C      1  0.5548210000000  0.4926650000000  0.6121180000000 1.0
C      1  0.5088850000000  0.5059040000000  0.4888940000000 1.0
C      1  0.5976960000000  0.5843370000000  0.5305510000000 1.0
C      1  0.4287990000000  0.5799430000000  0.5009240000000 1.0
C      1  0.3925610000000  0.4340050000000  0.5622390000000 1.0
C      1  0.4215760000000  0.4616730000000  0.4554760000000 1.0
C      1  0.4595360000000  0.5604920000000  0.6708220000000 1.0
C      1  0.4475070000000  0.4797830000000  0.4952760000000 1.0
C      1  0.5177000000000  0.3798570000000  0.4824440000000 1.0
C      1  0.5289860000000  0.5591900000000  0.4029860000000 1.0
C      1  0.4109970000000  0.4927710000000  0.5274430000000 1.0
C      1  0.5717020000000  0.4934770000000  0.4498500000000 1.0
C      1  0.5577750000000  0.5944430000000  0.4591840000000 1.0
C      1  0.5668680000000  0.5138660000000  0.4047530000000 1.0
C      1  0.5133720000000  0.4948130000000  0.4327550000000 1.0
C      1  0.5778530000000  0.5338670000000  0.6052820000000 1.0
C      1  0.4522350000000  0.4491720000000  0.5698710000000 1.0
C      1  0.5333120000000  0.5622950000000  0.5658020000000 1.0
C      1  0.5553130000000  0.5511490000000  0.6076140000000 1.0
C      1  0.4136380000000  0.3695620000000  0.4398690000000 1.0
C      1  0.4787170000000  0.5646820000000  0.4279340000000 1.0
C      1  0.6047840000000  0.5570130000000  0.5376290000000 1.0
C      1  0.5233040000000  0.4380760000000  0.4011530000000 1.0
C      1  0.4074570000000  0.4521450000000  0.5485640000000 1.0
C      1  0.5385820000000  0.6164720000000  0.4977520000000 1.0
C      1  0.5760600000000  0.4642160000000  0.4126990000000 1.0
C      1  0.3624450000000  0.4150840000000  0.4853420000000 1.0
C      1  0.5582910000000  0.5641180000000  0.5478880000000 1.0
C      1  0.5305760000000  0.5137370000000  0.4453970000000 1.0
C      1  0.4461070000000  0.3800780000000  0.4743400000000 1.0
C      1  0.5939540000000  0.4870350000000  0.5239250000000 1.0
C      1  0.5199350000000  0.4229120000000  0.4238610000000 1.0
C      1  0.4915890000000  0.6127260000000  0.4323010000000 1.0
C      1  0.4846690000000  0.3764160000000  0.5155710000000 1.0
C      1  0.5657210000000  0.5712540000000  0.4752270000000 1.0
C      1  0.4707210000000  0.3793790000000  0.4887560000000 1.0
C      1  0.4803360000000  0.4541230000000  0.4098950000000 1.0
C      1  0.4951870000000  0.5120000000000  0.5816160000000 1.0
C      1  0.6037290000000  0.5390050000000  0.4806530000000 1.0
C      1  0.5139580000000  0.6238230000000  0.5602510000000 1.0
C      1  0.5871980000000  0.5497990000000  0.4366350000000 1.0
C      1  0.4901070000000  0.6115940000000  0.5687060000000 1.0
C      1  0.5410560000000  0.4226300000000  0.5184220000000 1.0
C      1  0.5051530000000  0.5323610000000  0.5402670000000 1.0
C      1  0.5715400000000  0.5911730000000  0.5423200000000 1.0
C      1  0.4630150000000  0.4995230000000  0.4839020000000 1.0
C      1  0.4362880000000  0.4362010000000  0.4571960000000 1.0
C      1  0.4897080000000  0.4473800000000  0.5145790000000 1.0
C      1  0.4349560000000  0.4915280000000  0.5457270000000 1.0
C      1  0.5334110000000  0.5469270000000  0.5900600000000 1.0
C      1  0.5216640000000  0.5199900000000  0.5886440000000 1.0
C      1  0.4316890000000  0.5373310000000  0.4811080000000 1.0
C      1  0.5713240000000  0.4238550000000  0.5775630000000 1.0
C      1  0.4786280000000  0.5451310000000  0.4940800000000 1.0
C      1  0.5559620000000  0.4969750000000  0.5642470000000 1.0
C      1  0.4767130000000  0.5719430000000  0.5038200000000 1.0
C      1  0.4558950000000  0.5392700000000  0.6213250000000 1.0
C      1  0.5993930000000  0.4180650000000  0.5333590000000 1.0
C      1  0.6198980000000  0.5349720000000  0.5269400000000 1.0
C      1  0.5002680000000  0.4104640000000  0.5511720000000 1.0
C      1  0.5258750000000  0.4131410000000  0.5385950000000 1.0
C      1  0.3967630000000  0.5410650000000  0.5824660000000 1.0
C      1  0.5007550000000  0.4299690000000  0.4436900000000 1.0
C      1  0.4768860000000  0.5385080000000  0.4327360000000 1.0
C      1  0.5729630000000  0.4907170000000  0.4211080000000 1.0
C      1  0.5394120000000  0.6160950000000  0.5695060000000 1.0
C      1  0.4561270000000  0.4436170000000  0.4002090000000 1.0
C      1  0.5040590000000  0.5341010000000  0.4891840000000 1.0
C      1  0.6033540000000  0.4959190000000  0.5492650000000 1.0
C      1  0.5388550000000  0.5892900000000  0.4383110000000 1.0
C      1  0.4857230000000  0.5165070000000  0.5546860000000 1.0
C      1  0.4129480000000  0.5239520000000  0.4634570000000 1.0
C      1  0.5159060000000  0.5079420000000  0.3862770000000 1.0
C      1  0.4887860000000  0.4916700000000  0.4748740000000 1.0
C      1  0.4449530000000  0.4558940000000  0.5065850000000 1.0
C      1  0.4802840000000  0.4969100000000  0.6003950000000 1.0
C      1  0.5860100000000  0.5538530000000  0.4647330000000 1.0
C      1  0.4320120000000  0.4644760000000  0.5580680000000 1.0
C      1  0.4829750000000  0.4688220000000  0.5991620000000 1.0
C      1  0.4571490000000  0.4132120000000  0.5290680000000 1.0
C      1  0.4186120000000  0.5538600000000  0.5004640000000 1.0
C      1  0.4310400000000  0.3878410000000  0.4507900000000 1.0
C      1  0.4527070000000  0.5821320000000  0.5162090000000 1.0
C      1  0.4001200000000  0.5108280000000  0.5085950000000 1.0
C      1  0.3700570000000  0.3532060000000  0.5255170000000 1.0
C      1  0.5335030000000  0.5624810000000  0.4297870000000 1.0
END
