TITL C-612602-9376-608 0.207111864184135 125000 -593.023290705872 0 0 98 (C1) n - 1
REM
REM in /home/nfs/bkarasulu/CARBON/AIRSS/Generating-Clusters/TERSOFF/Only-C1/FIRE-HFTN
REM
REM
REM
REM
REM
REM ./C.cell (11c1c37f851c82e70ff6c80c92926a4b)
REM AIRSS Version 0.9.1 bugfix July 2018 build 013d7b7c2542+ Fri, 06 Jul 2018 19:26:36 +0100
REM compiler GCC version 9.2.1 20190827 (Red Hat 9.2.1-1)
REM options -cpp -mtune=generic -march=x86-64 -g -O0 -fpre-include=/usr/include/finclude/math-vector-fortran.h
REM seed -1083020276 -486941261 1593965937 -1310764185 22106812 1589274446 583815005 1742631950 1957100467 1860134445 -696904043 256896650 -513053701 -925514550 -846111483 1342672766 976063265 381635315 -1749205421 -136396325 399905531 955326188 -1982680245 1756286954 311123571 -1630258264 852243230 285846999 -1867052669 1818700026 2055668481 -1333444824 1941555142
REM
CELL 1.54180   50.00000   50.00000   50.00000   90.00000   90.00000   90.00000
LATT -1
SFAC C  
C      1  0.4463050000000  0.5355830000000  0.5365050000000 1.0
C      1  0.5753720000000  0.5304380000000  0.4981620000000 1.0
C      1  0.5291090000000  0.4839470000000  0.5889570000000 1.0
C      1  0.4493300000000  0.5666270000000  0.4498250000000 1.0
C      1  0.5373820000000  0.4316940000000  0.5226220000000 1.0
C      1  0.5244730000000  0.4138860000000  0.4748890000000 1.0
C      1  0.5700970000000  0.5538030000000  0.4817400000000 1.0
C      1  0.4912230000000  0.4620770000000  0.4061740000000 1.0
C      1  0.5508100000000  0.5261200000000  0.5117090000000 1.0
C      1  0.5189400000000  0.4209720000000  0.5015980000000 1.0
C      1  0.5011030000000  0.4077200000000  0.5407240000000 1.0
C      1  0.5499590000000  0.5040150000000  0.5287260000000 1.0
C      1  0.5524320000000  0.5648210000000  0.5478540000000 1.0
C      1  0.4467690000000  0.5618420000000  0.4778130000000 1.0
C      1  0.5219150000000  0.4279340000000  0.5483520000000 1.0
C      1  0.4758660000000  0.4800780000000  0.4970230000000 1.0
C      1  0.4094760000000  0.5296310000000  0.4768440000000 1.0
C      1  0.5567440000000  0.5506430000000  0.4551640000000 1.0
C      1  0.4788430000000  0.4208220000000  0.4285830000000 1.0
C      1  0.5198370000000  0.5895290000000  0.5251960000000 1.0
C      1  0.5068390000000  0.4872970000000  0.5289120000000 1.0
C      1  0.4591850000000  0.4548320000000  0.5928450000000 1.0
C      1  0.5315460000000  0.4861190000000  0.5166230000000 1.0
C      1  0.5646360000000  0.4411960000000  0.4675350000000 1.0
C      1  0.5460490000000  0.4892210000000  0.4146220000000 1.0
C      1  0.5353170000000  0.4812640000000  0.4619600000000 1.0
C      1  0.4662760000000  0.5565010000000  0.4292700000000 1.0
C      1  0.5961310000000  0.4897570000000  0.4599420000000 1.0
C      1  0.3713010000000  0.4112940000000  0.5812340000000 1.0
C      1  0.5043610000000  0.3982950000000  0.4624010000000 1.0
C      1  0.4863640000000  0.5114930000000  0.4163680000000 1.0
C      1  0.4350010000000  0.4642980000000  0.5088370000000 1.0
C      1  0.5915860000000  0.5068790000000  0.5007930000000 1.0
C      1  0.5152670000000  0.5728950000000  0.4335320000000 1.0
C      1  0.5752230000000  0.5023080000000  0.4458960000000 1.0
C      1  0.5090810000000  0.5912450000000  0.4977980000000 1.0
C      1  0.4658900000000  0.4216020000000  0.5033590000000 1.0
C      1  0.5717730000000  0.4848820000000  0.5702640000000 1.0
C      1  0.5563090000000  0.4731300000000  0.5899660000000 1.0
C      1  0.4994170000000  0.4398830000000  0.4217470000000 1.0
C      1  0.5402100000000  0.4300480000000  0.4571960000000 1.0
C      1  0.3657740000000  0.5132000000000  0.4527110000000 1.0
C      1  0.4910030000000  0.5270050000000  0.5615950000000 1.0
C      1  0.5093050000000  0.4919470000000  0.4539220000000 1.0
C      1  0.4778210000000  0.6215000000000  0.4775480000000 1.0
C      1  0.4829990000000  0.4535130000000  0.5438840000000 1.0
C      1  0.4946450000000  0.5049050000000  0.5457250000000 1.0
C      1  0.5335640000000  0.5109350000000  0.5751260000000 1.0
C      1  0.4832670000000  0.5276500000000  0.4765760000000 1.0
C      1  0.4931750000000  0.4834250000000  0.4750830000000 1.0
C      1  0.5097980000000  0.5812450000000  0.5512960000000 1.0
C      1  0.5267970000000  0.5329490000000  0.4990740000000 1.0
C      1  0.5066670000000  0.4492130000000  0.5604920000000 1.0
C      1  0.4816760000000  0.5974880000000  0.4906930000000 1.0
C      1  0.4662780000000  0.5199460000000  0.4571770000000 1.0
C      1  0.4849780000000  0.5850650000000  0.5638360000000 1.0
C      1  0.5904850000000  0.4811760000000  0.4870600000000 1.0
C      1  0.4330030000000  0.5614160000000  0.5334470000000 1.0
C      1  0.4444940000000  0.4430540000000  0.5716200000000 1.0
C      1  0.4489920000000  0.4899230000000  0.5039940000000 1.0
C      1  0.4568230000000  0.4430110000000  0.5461480000000 1.0
C      1  0.4575790000000  0.5818310000000  0.4957730000000 1.0
C      1  0.5313400000000  0.4785020000000  0.4893580000000 1.0
C      1  0.4341500000000  0.5370020000000  0.4884520000000 1.0
C      1  0.4437380000000  0.5192790000000  0.5109710000000 1.0
C      1  0.4658660000000  0.5399480000000  0.5587210000000 1.0
C      1  0.4597180000000  0.4135720000000  0.4104060000000 1.0
C      1  0.5549140000000  0.4813250000000  0.4410950000000 1.0
C      1  0.3873770000000  0.5214290000000  0.4647610000000 1.0
C      1  0.4619110000000  0.4158080000000  0.4757940000000 1.0
C      1  0.5103500000000  0.5105810000000  0.4318150000000 1.0
C      1  0.4821290000000  0.4872280000000  0.4025790000000 1.0
C      1  0.5341310000000  0.5697430000000  0.4539180000000 1.0
C      1  0.5365130000000  0.5166470000000  0.4212670000000 1.0
C      1  0.4426000000000  0.5829230000000  0.5198360000000 1.0
C      1  0.5276220000000  0.5599530000000  0.5623430000000 1.0
C      1  0.5310540000000  0.5831210000000  0.4795260000000 1.0
C      1  0.5554650000000  0.5756730000000  0.4957540000000 1.0
C      1  0.5590690000000  0.5270840000000  0.4390780000000 1.0
C      1  0.5485750000000  0.5797460000000  0.5233930000000 1.0
C      1  0.5560460000000  0.5045760000000  0.5561350000000 1.0
C      1  0.5748940000000  0.4555280000000  0.4909750000000 1.0
C      1  0.4881820000000  0.4686480000000  0.5201370000000 1.0
C      1  0.5255240000000  0.4371130000000  0.4334230000000 1.0
C      1  0.4794070000000  0.4092480000000  0.4545270000000 1.0
C      1  0.5617580000000  0.4450320000000  0.5149050000000 1.0
C      1  0.5172420000000  0.5345950000000  0.5711430000000 1.0
C      1  0.4192620000000  0.4320910000000  0.5757500000000 1.0
C      1  0.4924530000000  0.4133180000000  0.5135540000000 1.0
C      1  0.4879540000000  0.5507880000000  0.5171230000000 1.0
C      1  0.4476010000000  0.4395440000000  0.5188540000000 1.0
C      1  0.4661900000000  0.5664370000000  0.5695870000000 1.0
C      1  0.4676350000000  0.5277920000000  0.4298470000000 1.0
C      1  0.4904230000000  0.5700590000000  0.4239120000000 1.0
C      1  0.3950950000000  0.4216080000000  0.5785720000000 1.0
C      1  0.5078010000000  0.4654720000000  0.5842570000000 1.0
C      1  0.4995230000000  0.5371030000000  0.4969280000000 1.0
C      1  0.4836250000000  0.4644720000000  0.5989590000000 1.0
END
