TITL C-612603-7354-532 -192.831187769021 125000 -934.575581642249 0 0 151 (C1) n - 1
REM
REM in /home/nfs/bkarasulu/CARBON/AIRSS/Generating-Clusters/TERSOFF/Only-C1/FIRE-HFTN
REM
REM
REM
REM
REM
REM ./C.cell (11c1c37f851c82e70ff6c80c92926a4b)
REM AIRSS Version 0.9.1 bugfix July 2018 build 013d7b7c2542+ Fri, 06 Jul 2018 19:26:36 +0100
REM compiler GCC version 9.2.1 20190827 (Red Hat 9.2.1-1)
REM options -cpp -mtune=generic -march=x86-64 -g -O0 -fpre-include=/usr/include/finclude/math-vector-fortran.h
REM seed -2144356509 -1609491716 -797661821 1127846129 -897175600 -1553534543 -1637944844 -1463440392 297500380 -35225213 -1051704097 -1243084313 1795553003 1712373043 687512703 1735839720 -1141356558 -1603281606 1088225091 -1592991513 1136802586 -407082461 -365730274 1145754096 -1921717800 180153812 411743614 -1666047556 1631474967 -152316581 692233773 -526198382 -2109556682
REM
CELL 1.54180   50.00000   50.00000   50.00000   90.00000   90.00000   90.00000
LATT -1
SFAC C  
C      1  0.5465900000000  0.5394650000000  0.5735440000000 1.0
C      1  0.4659530000000  0.6092490000000  0.4820880000000 1.0
C      1  0.5520190000000  0.4793500000000  0.4475620000000 1.0
C      1  0.6017590000000  0.5788730000000  0.4794230000000 1.0
C      1  0.4572630000000  0.4965250000000  0.4228250000000 1.0
C      1  0.3923020000000  0.5040010000000  0.4579710000000 1.0
C      1  0.4605050000000  0.5805000000000  0.5710140000000 1.0
C      1  0.5215300000000  0.4284550000000  0.4633980000000 1.0
C      1  0.5748980000000  0.5040640000000  0.4114270000000 1.0
C      1  0.4845580000000  0.4438590000000  0.5216390000000 1.0
C      1  0.4926970000000  0.5767900000000  0.4139290000000 1.0
C      1  0.5375670000000  0.3888760000000  0.4771530000000 1.0
C      1  0.5319500000000  0.4091370000000  0.5420190000000 1.0
C      1  0.5367590000000  0.5574150000000  0.4051300000000 1.0
C      1  0.3961840000000  0.4809550000000  0.5273900000000 1.0
C      1  0.4211810000000  0.4107880000000  0.5218080000000 1.0
C      1  0.5179830000000  0.5763890000000  0.6126880000000 1.0
C      1  0.5790910000000  0.5325330000000  0.4085980000000 1.0
C      1  0.5763390000000  0.4764340000000  0.4600360000000 1.0
C      1  0.6066590000000  0.5008700000000  0.4859320000000 1.0
C      1  0.4640670000000  0.4028430000000  0.5672180000000 1.0
C      1  0.5791140000000  0.4535880000000  0.5444940000000 1.0
C      1  0.4499550000000  0.3565980000000  0.5646520000000 1.0
C      1  0.5373750000000  0.4438500000000  0.5065420000000 1.0
C      1  0.5273430000000  0.5106160000000  0.4228120000000 1.0
C      1  0.5524560000000  0.4613480000000  0.5497390000000 1.0
C      1  0.4793950000000  0.5255000000000  0.5391570000000 1.0
C      1  0.5268740000000  0.5379350000000  0.4250710000000 1.0
C      1  0.4550080000000  0.5652940000000  0.3855490000000 1.0
C      1  0.4142260000000  0.4840940000000  0.5786390000000 1.0
C      1  0.5295240000000  0.4499630000000  0.4794370000000 1.0
C      1  0.3957270000000  0.5756910000000  0.5065430000000 1.0
C      1  0.5810090000000  0.4031240000000  0.4944700000000 1.0
C      1  0.5407540000000  0.4168470000000  0.5166820000000 1.0
C      1  0.4722080000000  0.4735760000000  0.4693700000000 1.0
C      1  0.4502300000000  0.4986760000000  0.5031100000000 1.0
C      1  0.5689620000000  0.5141230000000  0.5422510000000 1.0
C      1  0.4118900000000  0.4232400000000  0.4538640000000 1.0
C      1  0.5715750000000  0.5075860000000  0.6022990000000 1.0
C      1  0.4899390000000  0.5026170000000  0.5546380000000 1.0
C      1  0.5844740000000  0.5684940000000  0.4587170000000 1.0
C      1  0.6259680000000  0.4659450000000  0.5456420000000 1.0
C      1  0.4470380000000  0.5846180000000  0.5219670000000 1.0
C      1  0.4165680000000  0.3976280000000  0.4470790000000 1.0
C      1  0.4153410000000  0.5195670000000  0.5488770000000 1.0
C      1  0.5880870000000  0.4227940000000  0.4750900000000 1.0
C      1  0.4647000000000  0.5403310000000  0.5991770000000 1.0
C      1  0.5176310000000  0.5020000000000  0.5634990000000 1.0
C      1  0.4603650000000  0.4741200000000  0.5852410000000 1.0
C      1  0.4274530000000  0.4464800000000  0.4511980000000 1.0
C      1  0.5902470000000  0.4808060000000  0.4054820000000 1.0
C      1  0.5705090000000  0.4212740000000  0.4514010000000 1.0
C      1  0.5648550000000  0.5746960000000  0.4384690000000 1.0
C      1  0.4289740000000  0.3908800000000  0.5376270000000 1.0
C      1  0.4374920000000  0.5293280000000  0.5623890000000 1.0
C      1  0.5357000000000  0.4651950000000  0.5259910000000 1.0
C      1  0.5277350000000  0.3967490000000  0.5928670000000 1.0
C      1  0.5041900000000  0.4888870000000  0.4591650000000 1.0
C      1  0.4602460000000  0.4462700000000  0.5919100000000 1.0
C      1  0.4683860000000  0.5982300000000  0.5082870000000 1.0
C      1  0.4283380000000  0.4596120000000  0.4263180000000 1.0
C      1  0.4761600000000  0.4275600000000  0.4990600000000 1.0
C      1  0.4545480000000  0.5699770000000  0.5453400000000 1.0
C      1  0.5562890000000  0.5599960000000  0.5318100000000 1.0
C      1  0.4202570000000  0.5848360000000  0.5128260000000 1.0
C      1  0.4765990000000  0.5651510000000  0.5892660000000 1.0
C      1  0.4458790000000  0.5398620000000  0.4480320000000 1.0
C      1  0.4394000000000  0.3865890000000  0.4380830000000 1.0
C      1  0.6011990000000  0.5212640000000  0.4664550000000 1.0
C      1  0.4485900000000  0.5638170000000  0.4322160000000 1.0
C      1  0.4376260000000  0.5142480000000  0.4363640000000 1.0
C      1  0.4902130000000  0.4701660000000  0.5126060000000 1.0
C      1  0.5213790000000  0.5527100000000  0.4508000000000 1.0
C      1  0.5076540000000  0.3877010000000  0.4786770000000 1.0
C      1  0.4924290000000  0.6007890000000  0.5227880000000 1.0
C      1  0.6028500000000  0.4465350000000  0.4822610000000 1.0
C      1  0.5102850000000  0.5091910000000  0.5070670000000 1.0
C      1  0.5183030000000  0.5774590000000  0.5633920000000 1.0
C      1  0.5615390000000  0.5322370000000  0.5964690000000 1.0
C      1  0.4782110000000  0.4482990000000  0.5495070000000 1.0
C      1  0.4747740000000  0.5960760000000  0.4587900000000 1.0
C      1  0.5884750000000  0.4545210000000  0.4123570000000 1.0
C      1  0.5785480000000  0.5416560000000  0.5345960000000 1.0
C      1  0.4691820000000  0.4298800000000  0.5700570000000 1.0
C      1  0.6089910000000  0.5642120000000  0.5017050000000 1.0
C      1  0.4815320000000  0.5079460000000  0.4153660000000 1.0
C      1  0.4847400000000  0.5300020000000  0.3978150000000 1.0
C      1  0.5218270000000  0.5809630000000  0.4155330000000 1.0
C      1  0.5792200000000  0.4340560000000  0.4274710000000 1.0
C      1  0.4494540000000  0.4532740000000  0.4688070000000 1.0
C      1  0.5285940000000  0.4714520000000  0.4615140000000 1.0
C      1  0.6059810000000  0.5118460000000  0.5123740000000 1.0
C      1  0.4052070000000  0.4930250000000  0.5530490000000 1.0
C      1  0.4729530000000  0.5802780000000  0.4356330000000 1.0
C      1  0.4132720000000  0.5277310000000  0.5223900000000 1.0
C      1  0.5910860000000  0.4975010000000  0.5327080000000 1.0
C      1  0.5496700000000  0.5573060000000  0.5039410000000 1.0
C      1  0.4266060000000  0.4356090000000  0.5097720000000 1.0
C      1  0.5031290000000  0.4989720000000  0.4308810000000 1.0
C      1  0.4333060000000  0.5187470000000  0.5055470000000 1.0
C      1  0.5151010000000  0.5119550000000  0.4774730000000 1.0
C      1  0.6020350000000  0.5411050000000  0.5171110000000 1.0
C      1  0.4425530000000  0.6577660000000  0.4774550000000 1.0
C      1  0.3793260000000  0.5540470000000  0.5053280000000 1.0
C      1  0.5510380000000  0.4967570000000  0.4253910000000 1.0
C      1  0.5435490000000  0.4104760000000  0.4568120000000 1.0
C      1  0.5424370000000  0.5158800000000  0.5564420000000 1.0
C      1  0.5077430000000  0.5944420000000  0.5436690000000 1.0
C      1  0.3822310000000  0.4993110000000  0.5078080000000 1.0
C      1  0.4462480000000  0.5208830000000  0.5881610000000 1.0
C      1  0.5147230000000  0.4833970000000  0.5183860000000 1.0
C      1  0.4949000000000  0.4153040000000  0.4711760000000 1.0
C      1  0.5053030000000  0.5398250000000  0.4700450000000 1.0
C      1  0.4572730000000  0.5416720000000  0.5463350000000 1.0
C      1  0.5230050000000  0.4810660000000  0.5823530000000 1.0
C      1  0.5291180000000  0.4018900000000  0.5673480000000 1.0
C      1  0.4371080000000  0.5664990000000  0.4062280000000 1.0
C      1  0.5339730000000  0.5791200000000  0.4436790000000 1.0
C      1  0.4556530000000  0.4671180000000  0.4213940000000 1.0
C      1  0.4496260000000  0.4362050000000  0.4921350000000 1.0
C      1  0.4579270000000  0.5420080000000  0.4737840000000 1.0
C      1  0.4396100000000  0.4925100000000  0.5904230000000 1.0
C      1  0.3867520000000  0.5278740000000  0.5123850000000 1.0
C      1  0.4101930000000  0.4578830000000  0.5172710000000 1.0
C      1  0.5044570000000  0.5723670000000  0.5885410000000 1.0
C      1  0.5535960000000  0.3974120000000  0.4999780000000 1.0
C      1  0.4900700000000  0.5289100000000  0.5132010000000 1.0
C      1  0.4815930000000  0.5580850000000  0.3936260000000 1.0
C      1  0.5443090000000  0.5820740000000  0.6578160000000 1.0
C      1  0.5443530000000  0.5153760000000  0.4782190000000 1.0
C      1  0.4744490000000  0.4450380000000  0.4286460000000 1.0
C      1  0.5998420000000  0.4720130000000  0.5409270000000 1.0
C      1  0.4758260000000  0.4771920000000  0.5601070000000 1.0
C      1  0.5813630000000  0.5413250000000  0.4674400000000 1.0
C      1  0.4090140000000  0.4793820000000  0.4211360000000 1.0
C      1  0.4477210000000  0.3825930000000  0.5567660000000 1.0
C      1  0.4786300000000  0.4197000000000  0.4439410000000 1.0
C      1  0.4109120000000  0.5030350000000  0.4370640000000 1.0
C      1  0.5416550000000  0.5624820000000  0.5569460000000 1.0
C      1  0.5484540000000  0.4700510000000  0.5769580000000 1.0
C      1  0.5587260000000  0.5382820000000  0.4841150000000 1.0
C      1  0.5687160000000  0.4820850000000  0.5932220000000 1.0
C      1  0.5656090000000  0.5578710000000  0.4126690000000 1.0
C      1  0.5978570000000  0.4743580000000  0.4778730000000 1.0
C      1  0.5098850000000  0.4765810000000  0.6057520000000 1.0
C      1  0.5309860000000  0.5795550000000  0.6355510000000 1.0
C      1  0.4824460000000  0.5424600000000  0.4878870000000 1.0
C      1  0.3809160000000  0.4938530000000  0.4801010000000 1.0
C      1  0.4640560000000  0.3968720000000  0.4355540000000 1.0
C      1  0.4712910000000  0.4825470000000  0.4960980000000 1.0
C      1  0.4541700000000  0.6345230000000  0.4794390000000 1.0
END
