TITL C-612607-4507-302 0.0614572375971126 125000 -499.171536278868 0 0 82 (C1) n - 1
REM
REM in /home/nfs/bkarasulu/CARBON/AIRSS/Generating-Clusters/TERSOFF/Only-C1/FIRE-HFTN
REM
REM
REM
REM
REM
REM ./C.cell (11c1c37f851c82e70ff6c80c92926a4b)
REM AIRSS Version 0.9.1 bugfix July 2018 build 013d7b7c2542+ Fri, 06 Jul 2018 19:26:36 +0100
REM compiler GCC version 9.2.1 20190827 (Red Hat 9.2.1-1)
REM options -cpp -mtune=generic -march=x86-64 -g -O0 -fpre-include=/usr/include/finclude/math-vector-fortran.h
REM seed 694966710 -1934400661 -1942296697 -1945999137 -1546745971 579336953 -994620234 2126064644 663518969 810661326 1466133248 -1927262936 -1279773205 -406418563 -1435294235 287924722 -2090440833 -58010796 764667446 970663615 354199256 -1017381830 1264108205 1522497310 77087252 438554414 341252801 -42621876 750580553 469070860 538261811 -1300925462 -1414982167
REM
CELL 1.54180   50.00000   50.00000   50.00000   90.00000   90.00000   90.00000
LATT -1
SFAC C  
C      1  0.5025880000000  0.5725290000000  0.5124690000000 1.0
C      1  0.5471780000000  0.5570610000000  0.5465440000000 1.0
C      1  0.5013140000000  0.5445850000000  0.5077430000000 1.0
C      1  0.4545930000000  0.5437490000000  0.4537420000000 1.0
C      1  0.5589720000000  0.4971350000000  0.3717150000000 1.0
C      1  0.5138310000000  0.5062780000000  0.3947950000000 1.0
C      1  0.4379430000000  0.5240850000000  0.4610110000000 1.0
C      1  0.5013820000000  0.4137140000000  0.4724360000000 1.0
C      1  0.5649460000000  0.4690180000000  0.5432840000000 1.0
C      1  0.5084600000000  0.5277320000000  0.5771560000000 1.0
C      1  0.5384180000000  0.4498320000000  0.4637540000000 1.0
C      1  0.5578520000000  0.5094130000000  0.4992850000000 1.0
C      1  0.4673070000000  0.5133390000000  0.5249620000000 1.0
C      1  0.4622400000000  0.5713090000000  0.5699760000000 1.0
C      1  0.5446820000000  0.4783010000000  0.5619330000000 1.0
C      1  0.4638120000000  0.4798110000000  0.4826750000000 1.0
C      1  0.4211930000000  0.4452870000000  0.5135490000000 1.0
C      1  0.4165650000000  0.5717360000000  0.5014030000000 1.0
C      1  0.4413890000000  0.5223900000000  0.5269200000000 1.0
C      1  0.4881930000000  0.3952680000000  0.5189550000000 1.0
C      1  0.4541540000000  0.4272880000000  0.4549870000000 1.0
C      1  0.4731290000000  0.4790110000000  0.5611210000000 1.0
C      1  0.4038900000000  0.5203100000000  0.4951600000000 1.0
C      1  0.4745920000000  0.5613960000000  0.4515420000000 1.0
C      1  0.4965650000000  0.4162110000000  0.5360260000000 1.0
C      1  0.5503230000000  0.5280570000000  0.5490430000000 1.0
C      1  0.4755930000000  0.4873290000000  0.5333390000000 1.0
C      1  0.5452020000000  0.5139040000000  0.5245440000000 1.0
C      1  0.4567840000000  0.4953160000000  0.5777900000000 1.0
C      1  0.4319870000000  0.4365180000000  0.4669810000000 1.0
C      1  0.5008710000000  0.5078090000000  0.4729950000000 1.0
C      1  0.4259190000000  0.5207450000000  0.5508170000000 1.0
C      1  0.5363130000000  0.4253360000000  0.5039870000000 1.0
C      1  0.5189060000000  0.4642020000000  0.5581890000000 1.0
C      1  0.4236550000000  0.5068460000000  0.4788040000000 1.0
C      1  0.5197130000000  0.5025890000000  0.5238650000000 1.0
C      1  0.4245720000000  0.4549320000000  0.4872560000000 1.0
C      1  0.4343100000000  0.5878670000000  0.5132130000000 1.0
C      1  0.4934180000000  0.3946120000000  0.4923090000000 1.0
C      1  0.4449100000000  0.5212030000000  0.5726560000000 1.0
C      1  0.5638810000000  0.4816080000000  0.4937120000000 1.0
C      1  0.4046890000000  0.5488260000000  0.4942720000000 1.0
C      1  0.5431760000000  0.5846270000000  0.4782120000000 1.0
C      1  0.5489990000000  0.5064230000000  0.5689390000000 1.0
C      1  0.4355660000000  0.4810490000000  0.4834590000000 1.0
C      1  0.5429970000000  0.5273220000000  0.4821690000000 1.0
C      1  0.6531750000000  0.4725120000000  0.3878930000000 1.0
C      1  0.3918620000000  0.5094990000000  0.5186550000000 1.0
C      1  0.6280830000000  0.4769420000000  0.3933690000000 1.0
C      1  0.4527170000000  0.4296950000000  0.5521490000000 1.0
C      1  0.5914250000000  0.4786280000000  0.4252870000000 1.0
C      1  0.4809340000000  0.4311690000000  0.5558140000000 1.0
C      1  0.5584630000000  0.4700070000000  0.4675670000000 1.0
C      1  0.4977950000000  0.5746090000000  0.4534920000000 1.0
C      1  0.5172620000000  0.4314360000000  0.5238540000000 1.0
C      1  0.4641800000000  0.5431600000000  0.5711760000000 1.0
C      1  0.4321710000000  0.4357980000000  0.5360510000000 1.0
C      1  0.4804690000000  0.4222410000000  0.4556570000000 1.0
C      1  0.5218490000000  0.5827000000000  0.4620790000000 1.0
C      1  0.5337330000000  0.5030320000000  0.3775270000000 1.0
C      1  0.5006730000000  0.4807770000000  0.5166390000000 1.0
C      1  0.4904370000000  0.4862020000000  0.4885620000000 1.0
C      1  0.5577180000000  0.5796870000000  0.5002020000000 1.0
C      1  0.5009760000000  0.5817640000000  0.5397310000000 1.0
C      1  0.5624240000000  0.4352240000000  0.5091530000000 1.0
C      1  0.5752690000000  0.4767100000000  0.4462190000000 1.0
C      1  0.5260720000000  0.4279830000000  0.4771480000000 1.0
C      1  0.3996850000000  0.5125490000000  0.5446700000000 1.0
C      1  0.6012500000000  0.4816740000000  0.3992450000000 1.0
C      1  0.5832880000000  0.4896150000000  0.3793120000000 1.0
C      1  0.4995200000000  0.5066610000000  0.4451140000000 1.0
C      1  0.4893150000000  0.5350690000000  0.5592090000000 1.0
C      1  0.4913350000000  0.4571560000000  0.5671760000000 1.0
C      1  0.5025700000000  0.5070120000000  0.4187990000000 1.0
C      1  0.4735510000000  0.5867160000000  0.5485580000000 1.0
C      1  0.4877410000000  0.5320930000000  0.5302310000000 1.0
C      1  0.4545320000000  0.5950460000000  0.5292280000000 1.0
C      1  0.5678700000000  0.4625330000000  0.5156450000000 1.0
C      1  0.5151360000000  0.4584730000000  0.5296290000000 1.0
C      1  0.5611140000000  0.5692330000000  0.5247280000000 1.0
C      1  0.5143030000000  0.5296200000000  0.4858750000000 1.0
C      1  0.5241300000000  0.5728710000000  0.5546650000000 1.0
END
