TITL C-612607-4507-652 -0.0487484183673841 125000 -632.43180248137 0 0 104 (C1) n - 1
REM
REM in /home/nfs/bkarasulu/CARBON/AIRSS/Generating-Clusters/TERSOFF/Only-C1/FIRE-HFTN
REM
REM
REM
REM
REM
REM ./C.cell (11c1c37f851c82e70ff6c80c92926a4b)
REM AIRSS Version 0.9.1 bugfix July 2018 build 013d7b7c2542+ Fri, 06 Jul 2018 19:26:36 +0100
REM compiler GCC version 9.2.1 20190827 (Red Hat 9.2.1-1)
REM options -cpp -mtune=generic -march=x86-64 -g -O0 -fpre-include=/usr/include/finclude/math-vector-fortran.h
REM seed -349317260 -1967294672 1861159924 1402149869 -905995004 1760602102 838846632 770177169 -1040900765 -228906181 1941311016 -306521868 2002942643 629008201 1798802801 -1404348520 -804944693 46932062 1976547306 -981847551 -627287786 653663678 337662837 -1341091735 -1085081807 1231108834 -134683286 -1133253388 -1467767131 664632550 -135448220 705911308 1354483977
REM
CELL 1.54180   50.00000   50.00000   50.00000   90.00000   90.00000   90.00000
LATT -1
SFAC C  
C      1  0.4334420000000  0.5396750000000  0.4567550000000 1.0
C      1  0.4377440000000  0.4077270000000  0.5210010000000 1.0
C      1  0.4763980000000  0.5355040000000  0.5894870000000 1.0
C      1  0.4917240000000  0.4410550000000  0.5042870000000 1.0
C      1  0.4494310000000  0.4707530000000  0.5177320000000 1.0
C      1  0.4468000000000  0.4665790000000  0.4452460000000 1.0
C      1  0.5198470000000  0.4376050000000  0.5090410000000 1.0
C      1  0.3866200000000  0.4431800000000  0.4894980000000 1.0
C      1  0.5620800000000  0.4682790000000  0.6116840000000 1.0
C      1  0.6469860000000  0.5475220000000  0.5074220000000 1.0
C      1  0.6108680000000  0.5808680000000  0.4639260000000 1.0
C      1  0.4603660000000  0.4204630000000  0.4506130000000 1.0
C      1  0.6042740000000  0.5301380000000  0.5057350000000 1.0
C      1  0.4205070000000  0.4988600000000  0.3849080000000 1.0
C      1  0.4460340000000  0.4883150000000  0.3795080000000 1.0
C      1  0.5798680000000  0.4393740000000  0.5505840000000 1.0
C      1  0.4132220000000  0.4450910000000  0.4951730000000 1.0
C      1  0.5367820000000  0.4276380000000  0.4900800000000 1.0
C      1  0.4952010000000  0.3836490000000  0.4614800000000 1.0
C      1  0.4773330000000  0.5122530000000  0.4885020000000 1.0
C      1  0.5489700000000  0.5109910000000  0.5840260000000 1.0
C      1  0.4527990000000  0.5442130000000  0.5749060000000 1.0
C      1  0.4553140000000  0.4431190000000  0.4052470000000 1.0
C      1  0.4448130000000  0.4928820000000  0.4479210000000 1.0
C      1  0.5219060000000  0.5467990000000  0.5641790000000 1.0
C      1  0.4794080000000  0.5296050000000  0.3741470000000 1.0
C      1  0.4884880000000  0.4870270000000  0.6045940000000 1.0
C      1  0.5549880000000  0.5315460000000  0.4230150000000 1.0
C      1  0.5089670000000  0.4596290000000  0.5497980000000 1.0
C      1  0.5685490000000  0.5785720000000  0.5659070000000 1.0
C      1  0.5725340000000  0.6092970000000  0.4841170000000 1.0
C      1  0.4791510000000  0.5366680000000  0.5024030000000 1.0
C      1  0.5013240000000  0.5463880000000  0.5834550000000 1.0
C      1  0.5637320000000  0.4995000000000  0.4863800000000 1.0
C      1  0.5932650000000  0.5382070000000  0.5547750000000 1.0
C      1  0.5294840000000  0.5674260000000  0.5180330000000 1.0
C      1  0.4541030000000  0.4420790000000  0.4333140000000 1.0
C      1  0.4359940000000  0.5222290000000  0.5673180000000 1.0
C      1  0.4662140000000  0.5582600000000  0.4889530000000 1.0
C      1  0.4044440000000  0.5153700000000  0.3983330000000 1.0
C      1  0.5436820000000  0.5915280000000  0.5240620000000 1.0
C      1  0.4914860000000  0.5725790000000  0.4015880000000 1.0
C      1  0.4123660000000  0.4948430000000  0.4995090000000 1.0
C      1  0.4431610000000  0.4489430000000  0.5788510000000 1.0
C      1  0.6210370000000  0.5398180000000  0.4404430000000 1.0
C      1  0.4354550000000  0.4128170000000  0.5484830000000 1.0
C      1  0.4143350000000  0.5138050000000  0.5189970000000 1.0
C      1  0.4819040000000  0.4227100000000  0.5671450000000 1.0
C      1  0.5933230000000  0.5997080000000  0.4705700000000 1.0
C      1  0.4945950000000  0.5338630000000  0.5264920000000 1.0
C      1  0.5549400000000  0.4426600000000  0.5437350000000 1.0
C      1  0.5055210000000  0.3755780000000  0.4850230000000 1.0
C      1  0.4949270000000  0.5076290000000  0.5378680000000 1.0
C      1  0.5147420000000  0.5515360000000  0.5366430000000 1.0
C      1  0.4001850000000  0.5322890000000  0.4185370000000 1.0
C      1  0.5391730000000  0.5409450000000  0.4422000000000 1.0
C      1  0.4461510000000  0.4998690000000  0.5849370000000 1.0
C      1  0.6252830000000  0.5423880000000  0.4890170000000 1.0
C      1  0.4516760000000  0.5200120000000  0.4468860000000 1.0
C      1  0.5797940000000  0.5264490000000  0.4147570000000 1.0
C      1  0.4953030000000  0.4001490000000  0.5563430000000 1.0
C      1  0.5405790000000  0.4890780000000  0.4784260000000 1.0
C      1  0.6112000000000  0.5343730000000  0.5340410000000 1.0
C      1  0.4887410000000  0.4868330000000  0.4885200000000 1.0
C      1  0.4944520000000  0.4796250000000  0.5354310000000 1.0
C      1  0.4882760000000  0.5873920000000  0.4514720000000 1.0
C      1  0.5094920000000  0.3760750000000  0.5116680000000 1.0
C      1  0.5553020000000  0.4890760000000  0.5975000000000 1.0
C      1  0.4649300000000  0.4004940000000  0.5144840000000 1.0
C      1  0.4875200000000  0.5529710000000  0.3840090000000 1.0
C      1  0.4970620000000  0.4469690000000  0.5724130000000 1.0
C      1  0.4752890000000  0.5273050000000  0.4352120000000 1.0
C      1  0.4792320000000  0.3995660000000  0.4465470000000 1.0
C      1  0.6388430000000  0.5429050000000  0.5334390000000 1.0
C      1  0.5549330000000  0.5948340000000  0.5495520000000 1.0
C      1  0.4187090000000  0.5670040000000  0.4943190000000 1.0
C      1  0.5144460000000  0.4839780000000  0.4774110000000 1.0
C      1  0.4299920000000  0.4224220000000  0.4961930000000 1.0
C      1  0.5322380000000  0.5574870000000  0.4918270000000 1.0
C      1  0.5058760000000  0.3847680000000  0.5369220000000 1.0
C      1  0.4300960000000  0.5099470000000  0.5419880000000 1.0
C      1  0.5709540000000  0.5505780000000  0.5661600000000 1.0
C      1  0.5331920000000  0.5502200000000  0.4663380000000 1.0
C      1  0.4661780000000  0.5065590000000  0.3724240000000 1.0
C      1  0.4438170000000  0.4752700000000  0.5704870000000 1.0
C      1  0.6208320000000  0.5546180000000  0.4641830000000 1.0
C      1  0.4261430000000  0.4698560000000  0.5004160000000 1.0
C      1  0.5472730000000  0.5358980000000  0.5715160000000 1.0
C      1  0.4421390000000  0.4828020000000  0.5428260000000 1.0
C      1  0.6054190000000  0.5293240000000  0.4215580000000 1.0
C      1  0.4531910000000  0.4231510000000  0.4778630000000 1.0
C      1  0.4756640000000  0.4197020000000  0.4963520000000 1.0
C      1  0.4103100000000  0.5427490000000  0.4410070000000 1.0
C      1  0.4711180000000  0.5078780000000  0.5975180000000 1.0
C      1  0.4795580000000  0.4683200000000  0.5106830000000 1.0
C      1  0.4917280000000  0.5849820000000  0.4251590000000 1.0
C      1  0.5538470000000  0.6069930000000  0.5029520000000 1.0
C      1  0.4957520000000  0.4626380000000  0.5958370000000 1.0
C      1  0.4520040000000  0.4616260000000  0.3861030000000 1.0
C      1  0.4805370000000  0.5782240000000  0.4753120000000 1.0
C      1  0.5832480000000  0.5146180000000  0.4962300000000 1.0
C      1  0.4530000000000  0.4253580000000  0.5670860000000 1.0
C      1  0.5289740000000  0.4463220000000  0.5346110000000 1.0
C      1  0.4389030000000  0.5547580000000  0.4804370000000 1.0
END
