TITL C-612605-9286-572 5.33887847802677e-05 125000 -778.514836571586 0 0 128 (C1) n - 1
REM
REM in /home/nfs/bkarasulu/CARBON/AIRSS/Generating-Clusters/TERSOFF/Only-C1/FIRE-HFTN
REM
REM
REM
REM
REM
REM ./C.cell (11c1c37f851c82e70ff6c80c92926a4b)
REM AIRSS Version 0.9.1 bugfix July 2018 build 013d7b7c2542+ Fri, 06 Jul 2018 19:26:36 +0100
REM compiler GCC version 9.2.1 20190827 (Red Hat 9.2.1-1)
REM options -cpp -mtune=generic -march=x86-64 -g -O0 -fpre-include=/usr/include/finclude/math-vector-fortran.h
REM seed 774959857 -141758103 2085865243 580512662 261472070 -1514739107 -840549605 -619172516 -432356295 1069312136 1905569349 -1986019812 2069418025 701103743 300839020 184672522 -453180469 1414146159 1485118583 -94790560 1958085001 1617466285 -572928716 -524267394 1599630587 42601563 -1120554767 1376873704 -966824721 1230240132 244220955 787735374 -1892383951
REM
CELL 1.54180   50.00000   50.00000   50.00000   90.00000   90.00000   90.00000
LATT -1
SFAC C  
C      1  0.5010680000000  0.4735710000000  0.5359510000000 1.0
C      1  0.5095880000000  0.5988930000000  0.4243550000000 1.0
C      1  0.4844990000000  0.4880310000000  0.4572480000000 1.0
C      1  0.5619620000000  0.5700100000000  0.4971180000000 1.0
C      1  0.6006750000000  0.4685030000000  0.5533840000000 1.0
C      1  0.5507030000000  0.5102690000000  0.4482280000000 1.0
C      1  0.4993510000000  0.5761750000000  0.4113260000000 1.0
C      1  0.4706060000000  0.4301070000000  0.5459800000000 1.0
C      1  0.5160270000000  0.5536680000000  0.4070200000000 1.0
C      1  0.3959820000000  0.4795520000000  0.5454840000000 1.0
C      1  0.5338010000000  0.5744340000000  0.5389580000000 1.0
C      1  0.4285050000000  0.4677990000000  0.4504270000000 1.0
C      1  0.3930210000000  0.5041180000000  0.5006070000000 1.0
C      1  0.4771980000000  0.4435950000000  0.4279140000000 1.0
C      1  0.4743670000000  0.5417610000000  0.5803800000000 1.0
C      1  0.5658430000000  0.4685890000000  0.4322290000000 1.0
C      1  0.5875190000000  0.4294010000000  0.4924900000000 1.0
C      1  0.5212840000000  0.4608760000000  0.4132890000000 1.0
C      1  0.4224720000000  0.5911780000000  0.4717790000000 1.0
C      1  0.5380130000000  0.5699610000000  0.5681400000000 1.0
C      1  0.6342960000000  0.4285890000000  0.5049590000000 1.0
C      1  0.4821940000000  0.4990730000000  0.5432140000000 1.0
C      1  0.4319900000000  0.5717630000000  0.5331740000000 1.0
C      1  0.4400220000000  0.4328700000000  0.5520940000000 1.0
C      1  0.6084570000000  0.4353090000000  0.5113170000000 1.0
C      1  0.4655050000000  0.5060600000000  0.4676790000000 1.0
C      1  0.5542690000000  0.5428390000000  0.4925460000000 1.0
C      1  0.5463400000000  0.5047160000000  0.5859230000000 1.0
C      1  0.5070690000000  0.5221320000000  0.5044570000000 1.0
C      1  0.4988370000000  0.3970430000000  0.4858360000000 1.0
C      1  0.5956030000000  0.5435190000000  0.5436950000000 1.0
C      1  0.4712990000000  0.5765170000000  0.4065690000000 1.0
C      1  0.4921060000000  0.4188760000000  0.4690670000000 1.0
C      1  0.4711020000000  0.4047170000000  0.5281220000000 1.0
C      1  0.4627120000000  0.4918030000000  0.5660600000000 1.0
C      1  0.4578880000000  0.5217780000000  0.4224130000000 1.0
C      1  0.4632780000000  0.5385800000000  0.5159820000000 1.0
C      1  0.4388930000000  0.5007180000000  0.4193680000000 1.0
C      1  0.5032480000000  0.6185910000000  0.4411690000000 1.0
C      1  0.4149120000000  0.5476670000000  0.4466160000000 1.0
C      1  0.4642590000000  0.5098770000000  0.5183220000000 1.0
C      1  0.5827970000000  0.4477880000000  0.4410940000000 1.0
C      1  0.4963330000000  0.3975420000000  0.5146640000000 1.0
C      1  0.4471280000000  0.4702510000000  0.4946420000000 1.0
C      1  0.5298860000000  0.3902220000000  0.5505380000000 1.0
C      1  0.4337090000000  0.4553670000000  0.5685460000000 1.0
C      1  0.5566780000000  0.5526110000000  0.5800510000000 1.0
C      1  0.5404990000000  0.4842700000000  0.5669500000000 1.0
C      1  0.4350820000000  0.5016120000000  0.5657260000000 1.0
C      1  0.5036720000000  0.5213680000000  0.5499290000000 1.0
C      1  0.4610190000000  0.4643730000000  0.5769110000000 1.0
C      1  0.5187610000000  0.4674410000000  0.5602330000000 1.0
C      1  0.4760370000000  0.5525660000000  0.4588890000000 1.0
C      1  0.4907310000000  0.5493780000000  0.5073350000000 1.0
C      1  0.6066690000000  0.5309650000000  0.5194200000000 1.0
C      1  0.5291990000000  0.5302700000000  0.4081830000000 1.0
C      1  0.5218500000000  0.4024200000000  0.5269240000000 1.0
C      1  0.4260630000000  0.4590110000000  0.4780960000000 1.0
C      1  0.4771650000000  0.5291350000000  0.3733570000000 1.0
C      1  0.5086490000000  0.4842850000000  0.4695230000000 1.0
C      1  0.5043800000000  0.5649930000000  0.5316710000000 1.0
C      1  0.4225360000000  0.4133590000000  0.5070470000000 1.0
C      1  0.5419040000000  0.5079800000000  0.4197730000000 1.0
C      1  0.4197400000000  0.5461390000000  0.4935980000000 1.0
C      1  0.5450630000000  0.4782360000000  0.4116560000000 1.0
C      1  0.4599380000000  0.6267180000000  0.4672570000000 1.0
C      1  0.5380280000000  0.4214290000000  0.5128600000000 1.0
C      1  0.6088210000000  0.5668120000000  0.4834280000000 1.0
C      1  0.4440890000000  0.3997700000000  0.5179940000000 1.0
C      1  0.4281030000000  0.5919530000000  0.5491870000000 1.0
C      1  0.4948280000000  0.5498010000000  0.5598540000000 1.0
C      1  0.5064810000000  0.5197240000000  0.6126060000000 1.0
C      1  0.5239950000000  0.5231850000000  0.5289360000000 1.0
C      1  0.5527400000000  0.5306810000000  0.4672050000000 1.0
C      1  0.5982690000000  0.5035700000000  0.5213840000000 1.0
C      1  0.4223460000000  0.4301240000000  0.4834160000000 1.0
C      1  0.5882080000000  0.5212630000000  0.5624110000000 1.0
C      1  0.4244730000000  0.5596210000000  0.4229340000000 1.0
C      1  0.4253810000000  0.5264990000000  0.5705680000000 1.0
C      1  0.4676980000000  0.4509970000000  0.5003040000000 1.0
C      1  0.4079910000000  0.5210420000000  0.4844880000000 1.0
C      1  0.4805100000000  0.4516130000000  0.5259890000000 1.0
C      1  0.4692910000000  0.4304740000000  0.4802310000000 1.0
C      1  0.6032780000000  0.4476520000000  0.5363910000000 1.0
C      1  0.5287130000000  0.5026100000000  0.6089670000000 1.0
C      1  0.5070610000000  0.4501300000000  0.5796950000000 1.0
C      1  0.5488730000000  0.5295300000000  0.5174460000000 1.0
C      1  0.4842960000000  0.6289420000000  0.4567660000000 1.0
C      1  0.5891170000000  0.4360320000000  0.4647520000000 1.0
C      1  0.5972160000000  0.4961890000000  0.5500000000000 1.0
C      1  0.5254750000000  0.4759200000000  0.6186050000000 1.0
C      1  0.4984290000000  0.4321240000000  0.4451520000000 1.0
C      1  0.4180410000000  0.4783220000000  0.5623130000000 1.0
C      1  0.4559930000000  0.4971150000000  0.4939000000000 1.0
C      1  0.4496690000000  0.4562860000000  0.4309250000000 1.0
C      1  0.4451540000000  0.5720750000000  0.4109960000000 1.0
C      1  0.4494600000000  0.4764720000000  0.4084970000000 1.0
C      1  0.5639720000000  0.4178400000000  0.5029320000000 1.0
C      1  0.4882480000000  0.5623330000000  0.4808550000000 1.0
C      1  0.4211040000000  0.4957400000000  0.4419940000000 1.0
C      1  0.4833330000000  0.5301100000000  0.6034930000000 1.0
C      1  0.4109940000000  0.5190650000000  0.4552820000000 1.0
C      1  0.4177890000000  0.5638300000000  0.4707920000000 1.0
C      1  0.3877960000000  0.4895620000000  0.5222080000000 1.0
C      1  0.5775520000000  0.4907560000000  0.5072960000000 1.0
C      1  0.5293890000000  0.4683250000000  0.4600430000000 1.0
C      1  0.5118910000000  0.5668110000000  0.5782160000000 1.0
C      1  0.4729440000000  0.4733670000000  0.3925220000000 1.0
C      1  0.5846430000000  0.5789460000000  0.4828560000000 1.0
C      1  0.4644150000000  0.5286970000000  0.4497560000000 1.0
C      1  0.4380690000000  0.5518150000000  0.5145820000000 1.0
C      1  0.4932640000000  0.4579250000000  0.4056650000000 1.0
C      1  0.4714480000000  0.5282190000000  0.3988460000000 1.0
C      1  0.6170820000000  0.5459090000000  0.4982880000000 1.0
C      1  0.4453020000000  0.4198000000000  0.4694740000000 1.0
C      1  0.5540990000000  0.4823510000000  0.4555130000000 1.0
C      1  0.5528560000000  0.4825360000000  0.5141380000000 1.0
C      1  0.5214680000000  0.4486530000000  0.4407910000000 1.0
C      1  0.5367250000000  0.3806700000000  0.5737990000000 1.0
C      1  0.5821630000000  0.5683530000000  0.5403700000000 1.0
C      1  0.4808500000000  0.4431450000000  0.5726430000000 1.0
C      1  0.5162380000000  0.4537130000000  0.6061620000000 1.0
C      1  0.5231940000000  0.4752370000000  0.5135280000000 1.0
C      1  0.5589810000000  0.5765020000000  0.5249680000000 1.0
C      1  0.5650640000000  0.5254910000000  0.5788830000000 1.0
C      1  0.5114160000000  0.4955060000000  0.4946650000000 1.0
C      1  0.5258580000000  0.4459740000000  0.5066300000000 1.0
C      1  0.4375760000000  0.6130360000000  0.4717080000000 1.0
END
