TITL C-612602-9376-654 8.50734616032059e-05 125000 -671.192519937015 0 0 112 (C1) n - 1
REM
REM in /home/nfs/bkarasulu/CARBON/AIRSS/Generating-Clusters/TERSOFF/Only-C1/FIRE-HFTN
REM
REM
REM
REM
REM
REM ./C.cell (11c1c37f851c82e70ff6c80c92926a4b)
REM AIRSS Version 0.9.1 bugfix July 2018 build 013d7b7c2542+ Fri, 06 Jul 2018 19:26:36 +0100
REM compiler GCC version 9.2.1 20190827 (Red Hat 9.2.1-1)
REM options -cpp -mtune=generic -march=x86-64 -g -O0 -fpre-include=/usr/include/finclude/math-vector-fortran.h
REM seed -954930797 -1636444036 827581364 -1695054652 -1072235479 -876575597 276657326 1304879929 -917760421 -1966964393 1364528554 997637958 -614121476 -1337213459 -1909204005 -332460053 -360067430 -711221330 680539589 -1285294122 518294055 -1171812452 -1392407387 -169030310 127226200 -1638106179 -357619257 -857179044 1821092851 -398324360 -1477787213 497339255 2031353729
REM
CELL 1.54180   50.00000   50.00000   50.00000   90.00000   90.00000   90.00000
LATT -1
SFAC C  
C      1  0.5274550000000  0.5762530000000  0.4633650000000 1.0
C      1  0.5018820000000  0.4869710000000  0.4793190000000 1.0
C      1  0.5149850000000  0.4348820000000  0.5482250000000 1.0
C      1  0.5597080000000  0.5046610000000  0.5871080000000 1.0
C      1  0.3848790000000  0.5112290000000  0.5002430000000 1.0
C      1  0.5189740000000  0.4106400000000  0.5343400000000 1.0
C      1  0.4949570000000  0.4009600000000  0.5203730000000 1.0
C      1  0.5043390000000  0.5368180000000  0.4540870000000 1.0
C      1  0.4370840000000  0.4865120000000  0.4255450000000 1.0
C      1  0.5715330000000  0.5567990000000  0.4482660000000 1.0
C      1  0.5331030000000  0.5703230000000  0.5112070000000 1.0
C      1  0.5939040000000  0.5880380000000  0.5263220000000 1.0
C      1  0.5541160000000  0.4983220000000  0.4218650000000 1.0
C      1  0.4359910000000  0.4647540000000  0.5716920000000 1.0
C      1  0.4461260000000  0.5480360000000  0.5179270000000 1.0
C      1  0.5847440000000  0.5684760000000  0.5095850000000 1.0
C      1  0.5054630000000  0.5088690000000  0.5016400000000 1.0
C      1  0.4906710000000  0.4551850000000  0.5117710000000 1.0
C      1  0.5651290000000  0.4414790000000  0.4723650000000 1.0
C      1  0.5531410000000  0.4850110000000  0.5187340000000 1.0
C      1  0.4610600000000  0.4770800000000  0.4122740000000 1.0
C      1  0.4165900000000  0.4764120000000  0.4714820000000 1.0
C      1  0.4780140000000  0.5236730000000  0.4548100000000 1.0
C      1  0.4188770000000  0.4786510000000  0.5012040000000 1.0
C      1  0.5218310000000  0.5011220000000  0.5494540000000 1.0
C      1  0.4277680000000  0.5295980000000  0.5074740000000 1.0
C      1  0.3915640000000  0.4854980000000  0.5134140000000 1.0
C      1  0.4781100000000  0.4989920000000  0.4004620000000 1.0
C      1  0.4345140000000  0.5019480000000  0.5149520000000 1.0
C      1  0.5790640000000  0.4337410000000  0.4962200000000 1.0
C      1  0.5610390000000  0.4889000000000  0.6576110000000 1.0
C      1  0.4677130000000  0.5363800000000  0.5347750000000 1.0
C      1  0.4139580000000  0.5542610000000  0.4713540000000 1.0
C      1  0.4822640000000  0.3993620000000  0.4702390000000 1.0
C      1  0.4717750000000  0.4518330000000  0.4224510000000 1.0
C      1  0.4706760000000  0.4042370000000  0.5345160000000 1.0
C      1  0.5305570000000  0.5208790000000  0.4926470000000 1.0
C      1  0.5120710000000  0.5779220000000  0.4887820000000 1.0
C      1  0.5264400000000  0.5214670000000  0.4638160000000 1.0
C      1  0.4711650000000  0.5724770000000  0.4315260000000 1.0
C      1  0.4820340000000  0.5139420000000  0.5169010000000 1.0
C      1  0.4713860000000  0.6015420000000  0.5022210000000 1.0
C      1  0.4423770000000  0.4381090000000  0.5643470000000 1.0
C      1  0.5615890000000  0.5453320000000  0.4242790000000 1.0
C      1  0.5138140000000  0.5618690000000  0.4435500000000 1.0
C      1  0.5453670000000  0.5242080000000  0.4129120000000 1.0
C      1  0.5185130000000  0.5342620000000  0.4042250000000 1.0
C      1  0.4369810000000  0.5683600000000  0.4665040000000 1.0
C      1  0.4997340000000  0.4438100000000  0.4615940000000 1.0
C      1  0.5761710000000  0.4733720000000  0.5301950000000 1.0
C      1  0.5568500000000  0.5480160000000  0.5532770000000 1.0
C      1  0.3859370000000  0.5582720000000  0.5101400000000 1.0
C      1  0.5285980000000  0.4798380000000  0.5330320000000 1.0
C      1  0.5129190000000  0.5054310000000  0.6060150000000 1.0
C      1  0.5553920000000  0.5707690000000  0.4678110000000 1.0
C      1  0.5179270000000  0.5614420000000  0.4156350000000 1.0
C      1  0.4318800000000  0.5037640000000  0.5457260000000 1.0
C      1  0.4545580000000  0.5185770000000  0.5568490000000 1.0
C      1  0.5297960000000  0.4085460000000  0.4888680000000 1.0
C      1  0.4173220000000  0.4063470000000  0.4974420000000 1.0
C      1  0.4580050000000  0.5297530000000  0.4356280000000 1.0
C      1  0.4963260000000  0.4556220000000  0.4360060000000 1.0
C      1  0.5236390000000  0.4921380000000  0.4568860000000 1.0
C      1  0.4682390000000  0.5055250000000  0.5790140000000 1.0
C      1  0.5884350000000  0.4888210000000  0.5511810000000 1.0
C      1  0.5107280000000  0.5484780000000  0.5513350000000 1.0
C      1  0.5512000000000  0.4952600000000  0.6343320000000 1.0
C      1  0.4642380000000  0.4646730000000  0.5143100000000 1.0
C      1  0.4600780000000  0.6179370000000  0.5190260000000 1.0
C      1  0.4548100000000  0.4179420000000  0.5515140000000 1.0
C      1  0.5739810000000  0.4823060000000  0.5759240000000 1.0
C      1  0.5416030000000  0.4115240000000  0.5162990000000 1.0
C      1  0.6007660000000  0.5460270000000  0.5032370000000 1.0
C      1  0.4672950000000  0.4082820000000  0.4493780000000 1.0
C      1  0.4290350000000  0.4287380000000  0.5038430000000 1.0
C      1  0.5703720000000  0.4463280000000  0.5415750000000 1.0
C      1  0.4017930000000  0.5376340000000  0.4949380000000 1.0
C      1  0.4854330000000  0.5572330000000  0.5445700000000 1.0
C      1  0.5341770000000  0.5579710000000  0.5382750000000 1.0
C      1  0.4646290000000  0.5760640000000  0.4604380000000 1.0
C      1  0.3930620000000  0.4777040000000  0.5414750000000 1.0
C      1  0.4605390000000  0.4266640000000  0.4302790000000 1.0
C      1  0.5965140000000  0.5467450000000  0.4565690000000 1.0
C      1  0.4360790000000  0.5145690000000  0.4281410000000 1.0
C      1  0.4769350000000  0.4981220000000  0.4665070000000 1.0
C      1  0.4831760000000  0.5838170000000  0.4834530000000 1.0
C      1  0.4628280000000  0.4931170000000  0.5137950000000 1.0
C      1  0.5622380000000  0.5297670000000  0.5728450000000 1.0
C      1  0.5532550000000  0.5087720000000  0.5036700000000 1.0
C      1  0.5411260000000  0.5017730000000  0.6090660000000 1.0
C      1  0.5674720000000  0.4535310000000  0.5703730000000 1.0
C      1  0.4713330000000  0.5469220000000  0.4163630000000 1.0
C      1  0.4376670000000  0.4547350000000  0.5082080000000 1.0
C      1  0.5000100000000  0.4584610000000  0.4854770000000 1.0
C      1  0.4231340000000  0.4730470000000  0.4458070000000 1.0
C      1  0.5939120000000  0.4812130000000  0.4695450000000 1.0
C      1  0.4898100000000  0.5264850000000  0.4023210000000 1.0
C      1  0.5594920000000  0.5706890000000  0.4967010000000 1.0
C      1  0.5105320000000  0.4578540000000  0.5324470000000 1.0
C      1  0.5434000000000  0.4232400000000  0.4683430000000 1.0
C      1  0.5517780000000  0.4844400000000  0.4474860000000 1.0
C      1  0.5102660000000  0.5223740000000  0.5628730000000 1.0
C      1  0.5655190000000  0.4271250000000  0.5207800000000 1.0
C      1  0.4175440000000  0.4813230000000  0.5565080000000 1.0
C      1  0.6058770000000  0.5039720000000  0.4769250000000 1.0
C      1  0.4558730000000  0.4804900000000  0.5857780000000 1.0
C      1  0.5089060000000  0.4804570000000  0.4335390000000 1.0
C      1  0.5700940000000  0.4678930000000  0.4617020000000 1.0
C      1  0.3736970000000  0.5763620000000  0.5243220000000 1.0
C      1  0.5012340000000  0.4003770000000  0.4914430000000 1.0
C      1  0.6043220000000  0.5318650000000  0.4791800000000 1.0
C      1  0.4952160000000  0.5133780000000  0.5854040000000 1.0
END
