TITL C-612600-6631-4 11.9167105727164 125000 -367.713261778452 0 0 63 (C1) n - 1
REM
REM in /home/nfs/bkarasulu/CARBON/AIRSS/Generating-Clusters/TERSOFF/Only-C1/FIRE-HFTN
REM
REM
REM
REM
REM
REM ./C.cell (11c1c37f851c82e70ff6c80c92926a4b)
REM AIRSS Version 0.9.1 bugfix July 2018 build 013d7b7c2542+ Fri, 06 Jul 2018 19:26:36 +0100
REM compiler GCC version 9.2.1 20190827 (Red Hat 9.2.1-1)
REM options -cpp -mtune=generic -march=x86-64 -g -O0 -fpre-include=/usr/include/finclude/math-vector-fortran.h
REM seed 560570580 -1630419934 -1902665509 365055019 -1247882863 1562574065 1423306260 615139853 -1965108081 13606112 442003736 1602503147 -855804625 1114946276 2011943411 -1992180190 1626222101 -1045884560 -1786857100 923472120 1035982920 637447772 311740765 -2143097535 2002253282 -532348050 -1922894245 1298546278 315073106 -306150674 696463374 505966437 -977950368
REM
CELL 1.54180   50.00000   50.00000   50.00000   90.00000   90.00000   90.00000
LATT -1
SFAC C  
C      1  0.4444130000000  0.5208670000000  0.5058480000000 1.0
C      1  0.4704610000000  0.3756960000000  0.4857250000000 1.0
C      1  0.5292810000000  0.4773690000000  0.4263410000000 1.0
C      1  0.4670020000000  0.5154340000000  0.4903270000000 1.0
C      1  0.5125270000000  0.5406520000000  0.5691810000000 1.0
C      1  0.4492140000000  0.4361810000000  0.6021050000000 1.0
C      1  0.4186900000000  0.4320740000000  0.6390740000000 1.0
C      1  0.5624750000000  0.5890650000000  0.5214660000000 1.0
C      1  0.4893630000000  0.3908050000000  0.4729660000000 1.0
C      1  0.5204140000000  0.6277000000000  0.4504290000000 1.0
C      1  0.5657810000000  0.5572740000000  0.4378420000000 1.0
C      1  0.5150120000000  0.3733940000000  0.4282390000000 1.0
C      1  0.4259230000000  0.5206250000000  0.5248300000000 1.0
C      1  0.5020740000000  0.3813030000000  0.4499550000000 1.0
C      1  0.5298200000000  0.5947040000000  0.4844380000000 1.0
C      1  0.5139100000000  0.4642350000000  0.5377690000000 1.0
C      1  0.5048980000000  0.4385020000000  0.5441320000000 1.0
C      1  0.5180470000000  0.4193130000000  0.5010850000000 1.0
C      1  0.4963680000000  0.4163930000000  0.4829890000000 1.0
C      1  0.5344060000000  0.5341800000000  0.5263360000000 1.0
C      1  0.4823000000000  0.4392640000000  0.4752100000000 1.0
C      1  0.5605460000000  0.5410980000000  0.5665170000000 1.0
C      1  0.4256210000000  0.5795710000000  0.4294340000000 1.0
C      1  0.4869300000000  0.4348590000000  0.5652200000000 1.0
C      1  0.4887670000000  0.5446080000000  0.4242790000000 1.0
C      1  0.4781040000000  0.5682100000000  0.4347920000000 1.0
C      1  0.5384200000000  0.5078200000000  0.5163680000000 1.0
C      1  0.5013730000000  0.6117510000000  0.4394570000000 1.0
C      1  0.5587090000000  0.4500240000000  0.4880320000000 1.0
C      1  0.5017690000000  0.5217760000000  0.4208550000000 1.0
C      1  0.5637080000000  0.4760560000000  0.4895360000000 1.0
C      1  0.5275880000000  0.5552370000000  0.5090400000000 1.0
C      1  0.4700630000000  0.4902370000000  0.4786440000000 1.0
C      1  0.5187180000000  0.3919690000000  0.5410290000000 1.0
C      1  0.5424890000000  0.4293630000000  0.4919500000000 1.0
C      1  0.5241620000000  0.4866650000000  0.5280200000000 1.0
C      1  0.5361560000000  0.5388020000000  0.5543520000000 1.0
C      1  0.4889750000000  0.5405950000000  0.5813000000000 1.0
C      1  0.5063090000000  0.5543850000000  0.4893300000000 1.0
C      1  0.4658680000000  0.5407400000000  0.5942850000000 1.0
C      1  0.5563420000000  0.5025530000000  0.4948220000000 1.0
C      1  0.5138450000000  0.4160640000000  0.5290110000000 1.0
C      1  0.4869040000000  0.5347820000000  0.4874930000000 1.0
C      1  0.5280670000000  0.3656630000000  0.4065050000000 1.0
C      1  0.5409090000000  0.3580600000000  0.3851290000000 1.0
C      1  0.4690770000000  0.4335560000000  0.5847560000000 1.0
C      1  0.5532330000000  0.5890250000000  0.3978850000000 1.0
C      1  0.4039180000000  0.4851260000000  0.5890450000000 1.0
C      1  0.4040800000000  0.5019620000000  0.5685570000000 1.0
C      1  0.5082560000000  0.5780390000000  0.4730280000000 1.0
C      1  0.4113710000000  0.4655870000000  0.6053380000000 1.0
C      1  0.4510060000000  0.5741130000000  0.4316560000000 1.0
C      1  0.4438630000000  0.5417090000000  0.6082310000000 1.0
C      1  0.4743500000000  0.4645190000000  0.4738740000000 1.0
C      1  0.5600380000000  0.5735470000000  0.4177260000000 1.0
C      1  0.5651090000000  0.5228320000000  0.4777650000000 1.0
C      1  0.5416470000000  0.5804630000000  0.5063390000000 1.0
C      1  0.4262910000000  0.4444030000000  0.6159050000000 1.0
C      1  0.5680550000000  0.5403000000000  0.4580630000000 1.0
C      1  0.5157150000000  0.4992890000000  0.4224550000000 1.0
C      1  0.5344640000000  0.6195710000000  0.4721940000000 1.0
C      1  0.4118580000000  0.5142490000000  0.5463820000000 1.0
C      1  0.4949490000000  0.5857930000000  0.4491170000000 1.0
END
