TITL C-612605-9286-381 0.00791389581804955 125000 -1018.73818448287 0 0 166 (C1) n - 1
REM
REM in /home/nfs/bkarasulu/CARBON/AIRSS/Generating-Clusters/TERSOFF/Only-C1/FIRE-HFTN
REM
REM
REM
REM
REM
REM ./C.cell (11c1c37f851c82e70ff6c80c92926a4b)
REM AIRSS Version 0.9.1 bugfix July 2018 build 013d7b7c2542+ Fri, 06 Jul 2018 19:26:36 +0100
REM compiler GCC version 9.2.1 20190827 (Red Hat 9.2.1-1)
REM options -cpp -mtune=generic -march=x86-64 -g -O0 -fpre-include=/usr/include/finclude/math-vector-fortran.h
REM seed 1129997197 1164750357 -1842672000 -2023046141 1896608585 -387482910 -1297268923 -1723499398 -2005943820 -1309579594 54086681 476987257 2066596435 1785055661 -335419076 763134853 280757468 -1452786174 -1981061478 1453338354 895360559 -1417955232 2061735228 1617662868 -1447969600 365203851 -1870356307 -10261207 373955065 -261584623 -1939881735 -1946842714 -2038678425
REM
CELL 1.54180   50.00000   50.00000   50.00000   90.00000   90.00000   90.00000
LATT -1
SFAC C  
C      1  0.4310700000000  0.4801640000000  0.5870580000000 1.0
C      1  0.4688830000000  0.5620770000000  0.4187210000000 1.0
C      1  0.4697960000000  0.5864350000000  0.5376430000000 1.0
C      1  0.4608410000000  0.5426610000000  0.4910510000000 1.0
C      1  0.5255610000000  0.5963310000000  0.5078510000000 1.0
C      1  0.5657880000000  0.4068230000000  0.4432430000000 1.0
C      1  0.5617280000000  0.4328550000000  0.5896260000000 1.0
C      1  0.6022650000000  0.4399680000000  0.5241600000000 1.0
C      1  0.4515550000000  0.5139030000000  0.6391200000000 1.0
C      1  0.4405510000000  0.4674120000000  0.4705260000000 1.0
C      1  0.4613610000000  0.5457410000000  0.3959900000000 1.0
C      1  0.5015450000000  0.5717030000000  0.4690430000000 1.0
C      1  0.4845610000000  0.4306520000000  0.5570470000000 1.0
C      1  0.5707790000000  0.5796470000000  0.5236900000000 1.0
C      1  0.4378970000000  0.5076240000000  0.5494420000000 1.0
C      1  0.5119840000000  0.4682580000000  0.4340220000000 1.0
C      1  0.5491630000000  0.5561560000000  0.5775560000000 1.0
C      1  0.5173860000000  0.4622260000000  0.3813960000000 1.0
C      1  0.4916940000000  0.3983440000000  0.4454470000000 1.0
C      1  0.5111190000000  0.5524120000000  0.4032710000000 1.0
C      1  0.5777110000000  0.4741410000000  0.4557860000000 1.0
C      1  0.5394690000000  0.5975060000000  0.5550620000000 1.0
C      1  0.3804160000000  0.5196830000000  0.5090170000000 1.0
C      1  0.5607760000000  0.5284870000000  0.3954950000000 1.0
C      1  0.5572350000000  0.4802330000000  0.4065620000000 1.0
C      1  0.5556560000000  0.4808540000000  0.5385770000000 1.0
C      1  0.5007600000000  0.4862090000000  0.3798260000000 1.0
C      1  0.5237340000000  0.3952070000000  0.4819680000000 1.0
C      1  0.5168560000000  0.4555830000000  0.5246340000000 1.0
C      1  0.5051740000000  0.3770590000000  0.4936720000000 1.0
C      1  0.5582040000000  0.4134930000000  0.5189020000000 1.0
C      1  0.4782700000000  0.6185800000000  0.4676190000000 1.0
C      1  0.4461150000000  0.5263670000000  0.4471620000000 1.0
C      1  0.4115110000000  0.4769840000000  0.5194630000000 1.0
C      1  0.3978080000000  0.5248080000000  0.4353900000000 1.0
C      1  0.4931490000000  0.6285780000000  0.4895660000000 1.0
C      1  0.4939520000000  0.4464480000000  0.4854680000000 1.0
C      1  0.5230930000000  0.5753760000000  0.4881170000000 1.0
C      1  0.4330540000000  0.4805230000000  0.4980270000000 1.0
C      1  0.4800590000000  0.3811790000000  0.5026060000000 1.0
C      1  0.4527240000000  0.4300740000000  0.4405490000000 1.0
C      1  0.5667440000000  0.4492570000000  0.4649290000000 1.0
C      1  0.3951380000000  0.5170370000000  0.4847410000000 1.0
C      1  0.6038080000000  0.5408710000000  0.5285040000000 1.0
C      1  0.5104980000000  0.5244800000000  0.4524010000000 1.0
C      1  0.5090100000000  0.5842380000000  0.4415120000000 1.0
C      1  0.4334340000000  0.5946760000000  0.4886850000000 1.0
C      1  0.5285690000000  0.4806060000000  0.5308030000000 1.0
C      1  0.4582690000000  0.5271940000000  0.5432610000000 1.0
C      1  0.5222270000000  0.4416830000000  0.4981070000000 1.0
C      1  0.4115590000000  0.5352260000000  0.5755810000000 1.0
C      1  0.5044110000000  0.5250720000000  0.4069190000000 1.0
C      1  0.5321490000000  0.5091210000000  0.5682330000000 1.0
C      1  0.4506930000000  0.4732710000000  0.3793690000000 1.0
C      1  0.6113080000000  0.5136740000000  0.5319760000000 1.0
C      1  0.5086510000000  0.5201080000000  0.4802660000000 1.0
C      1  0.5843530000000  0.4948260000000  0.5746340000000 1.0
C      1  0.4570400000000  0.5181480000000  0.3899620000000 1.0
C      1  0.4722180000000  0.4933620000000  0.3792850000000 1.0
C      1  0.5229610000000  0.5301150000000  0.5234590000000 1.0
C      1  0.3600700000000  0.5001330000000  0.5129800000000 1.0
C      1  0.4675360000000  0.5046170000000  0.4433060000000 1.0
C      1  0.4227820000000  0.5087390000000  0.4871400000000 1.0
C      1  0.4361720000000  0.4030880000000  0.5103850000000 1.0
C      1  0.5349820000000  0.4140710000000  0.5008480000000 1.0
C      1  0.3855780000000  0.5229410000000  0.4591450000000 1.0
C      1  0.4817780000000  0.5603710000000  0.5775540000000 1.0
C      1  0.3976720000000  0.5245430000000  0.5310950000000 1.0
C      1  0.3938430000000  0.4324500000000  0.5175020000000 1.0
C      1  0.4619000000000  0.4380570000000  0.5734500000000 1.0
C      1  0.4317950000000  0.4461690000000  0.4528720000000 1.0
C      1  0.4278880000000  0.4806530000000  0.3956930000000 1.0
C      1  0.4418800000000  0.5261220000000  0.4772240000000 1.0
C      1  0.4911220000000  0.4568690000000  0.4224220000000 1.0
C      1  0.5354800000000  0.4807800000000  0.4746280000000 1.0
C      1  0.4310980000000  0.5098810000000  0.5795120000000 1.0
C      1  0.4961040000000  0.5710780000000  0.4178660000000 1.0
C      1  0.5461040000000  0.5043840000000  0.3931700000000 1.0
C      1  0.5989080000000  0.4357150000000  0.5523430000000 1.0
C      1  0.5425760000000  0.5756350000000  0.4386350000000 1.0
C      1  0.4767830000000  0.4748980000000  0.5409720000000 1.0
C      1  0.4751820000000  0.5590760000000  0.4705370000000 1.0
C      1  0.4943510000000  0.5271670000000  0.6199500000000 1.0
C      1  0.5409480000000  0.5835150000000  0.5795970000000 1.0
C      1  0.4106390000000  0.4522150000000  0.4349890000000 1.0
C      1  0.5426040000000  0.4544220000000  0.4804390000000 1.0
C      1  0.6013530000000  0.5085780000000  0.4823470000000 1.0
C      1  0.3890380000000  0.4599290000000  0.5184100000000 1.0
C      1  0.5595810000000  0.4976260000000  0.5614290000000 1.0
C      1  0.5305480000000  0.4698260000000  0.5969030000000 1.0
C      1  0.4647790000000  0.4804530000000  0.4602160000000 1.0
C      1  0.5540990000000  0.4135970000000  0.5473130000000 1.0
C      1  0.4656840000000  0.4057200000000  0.4464460000000 1.0
C      1  0.5771880000000  0.4941630000000  0.4775940000000 1.0
C      1  0.4862110000000  0.5814630000000  0.5923190000000 1.0
C      1  0.4629340000000  0.4035980000000  0.5024210000000 1.0
C      1  0.5342410000000  0.5264150000000  0.4955870000000 1.0
C      1  0.4864140000000  0.4736230000000  0.4777510000000 1.0
C      1  0.4587500000000  0.4800750000000  0.5184400000000 1.0
C      1  0.5378750000000  0.4311720000000  0.4139820000000 1.0
C      1  0.5746010000000  0.4274280000000  0.5641360000000 1.0
C      1  0.5802960000000  0.4774110000000  0.5967990000000 1.0
C      1  0.4849170000000  0.6096200000000  0.5325530000000 1.0
C      1  0.5996130000000  0.5274810000000  0.4593880000000 1.0
C      1  0.5727140000000  0.5525300000000  0.5627250000000 1.0
C      1  0.5384040000000  0.5961020000000  0.6036790000000 1.0
C      1  0.5391470000000  0.4114640000000  0.4348500000000 1.0
C      1  0.5175710000000  0.5067550000000  0.3903870000000 1.0
C      1  0.4111760000000  0.4642000000000  0.4108600000000 1.0
C      1  0.5034600000000  0.6145070000000  0.5116380000000 1.0
C      1  0.4363500000000  0.5065080000000  0.6589520000000 1.0
C      1  0.4606170000000  0.5537090000000  0.4447340000000 1.0
C      1  0.5576540000000  0.4595880000000  0.5984680000000 1.0
C      1  0.4207530000000  0.5798710000000  0.5078190000000 1.0
C      1  0.4557510000000  0.5229740000000  0.5912330000000 1.0
C      1  0.5462420000000  0.5937910000000  0.5277640000000 1.0
C      1  0.4886190000000  0.4854360000000  0.5664910000000 1.0
C      1  0.5037570000000  0.4103470000000  0.5606440000000 1.0
C      1  0.4365510000000  0.5992950000000  0.5716570000000 1.0
C      1  0.5784530000000  0.4237590000000  0.4614630000000 1.0
C      1  0.5176900000000  0.5332580000000  0.6084810000000 1.0
C      1  0.5295430000000  0.4847810000000  0.4475360000000 1.0
C      1  0.4072520000000  0.5470310000000  0.5475900000000 1.0
C      1  0.4243220000000  0.5210390000000  0.4272270000000 1.0
C      1  0.4825510000000  0.5626660000000  0.5283180000000 1.0
C      1  0.5189120000000  0.4013610000000  0.4533280000000 1.0
C      1  0.4920590000000  0.4504810000000  0.5379440000000 1.0
C      1  0.4431160000000  0.5848610000000  0.5492400000000 1.0
C      1  0.5314190000000  0.4078100000000  0.5652210000000 1.0
C      1  0.6065850000000  0.5026890000000  0.5584340000000 1.0
C      1  0.5332630000000  0.5337920000000  0.5849750000000 1.0
C      1  0.5143560000000  0.4873790000000  0.5808420000000 1.0
C      1  0.4220310000000  0.5703250000000  0.5351460000000 1.0
C      1  0.5420110000000  0.5540700000000  0.4883960000000 1.0
C      1  0.6118260000000  0.4962600000000  0.5082550000000 1.0
C      1  0.5926690000000  0.4139750000000  0.4833450000000 1.0
C      1  0.4439180000000  0.4563440000000  0.5829260000000 1.0
C      1  0.6016620000000  0.4682470000000  0.5149340000000 1.0
C      1  0.5772000000000  0.4871920000000  0.4295150000000 1.0
C      1  0.4948940000000  0.6110960000000  0.4452350000000 1.0
C      1  0.5839380000000  0.5585950000000  0.5375200000000 1.0
C      1  0.5742660000000  0.4739170000000  0.5203980000000 1.0
C      1  0.4143330000000  0.5010950000000  0.5353040000000 1.0
C      1  0.4911540000000  0.5173620000000  0.4322430000000 1.0
C      1  0.5404110000000  0.4134350000000  0.5924940000000 1.0
C      1  0.5662280000000  0.5592580000000  0.4380690000000 1.0
C      1  0.5876960000000  0.5155830000000  0.4331910000000 1.0
C      1  0.4649850000000  0.5420270000000  0.5193340000000 1.0
C      1  0.4522650000000  0.6079760000000  0.4741860000000 1.0
C      1  0.4669880000000  0.5211400000000  0.6170830000000 1.0
C      1  0.5337370000000  0.5120920000000  0.4416060000000 1.0
C      1  0.5402070000000  0.4560040000000  0.3994970000000 1.0
C      1  0.5312160000000  0.4023170000000  0.6154550000000 1.0
C      1  0.4677010000000  0.4445300000000  0.4214630000000 1.0
C      1  0.4118670000000  0.4129700000000  0.5149100000000 1.0
C      1  0.4683420000000  0.5372680000000  0.5695370000000 1.0
C      1  0.5866130000000  0.5543350000000  0.4593750000000 1.0
C      1  0.5724790000000  0.5370230000000  0.4194740000000 1.0
C      1  0.3642500000000  0.4734930000000  0.5164620000000 1.0
C      1  0.4742450000000  0.4274450000000  0.4924570000000 1.0
C      1  0.4324410000000  0.5081880000000  0.4031080000000 1.0
C      1  0.4956380000000  0.4971520000000  0.4899630000000 1.0
C      1  0.5089890000000  0.5535870000000  0.5305100000000 1.0
C      1  0.5205190000000  0.5076120000000  0.5393960000000 1.0
C      1  0.5512120000000  0.5020870000000  0.4867500000000 1.0
C      1  0.5855960000000  0.4205170000000  0.5096770000000 1.0
END
