TITL C-612602-9376-24 -0.00173071665486704 125000 -593.968513121952 0 0 98 (C1) n - 1
REM
REM in /home/nfs/bkarasulu/CARBON/AIRSS/Generating-Clusters/TERSOFF/Only-C1/FIRE-HFTN
REM
REM
REM
REM
REM
REM ./C.cell (11c1c37f851c82e70ff6c80c92926a4b)
REM AIRSS Version 0.9.1 bugfix July 2018 build 013d7b7c2542+ Fri, 06 Jul 2018 19:26:36 +0100
REM compiler GCC version 9.2.1 20190827 (Red Hat 9.2.1-1)
REM options -cpp -mtune=generic -march=x86-64 -g -O0 -fpre-include=/usr/include/finclude/math-vector-fortran.h
REM seed 2063789686 1678499524 -1937431882 -788281959 -700106854 -1401651045 -1463005532 1345661220 -1045906182 1705358411 -284647528 -5163594 1400659164 -2019127458 1313235272 -95976456 1336797691 -1617857957 -282397859 1717329350 -1560732891 631231743 1386164110 -1789195860 -1913850154 -1616543177 2013371377 -1266289037 1146211342 -408271630 512867618 -1314486298 159008046
REM
CELL 1.54180   50.00000   50.00000   50.00000   90.00000   90.00000   90.00000
LATT -1
SFAC C  
C      1  0.4070530000000  0.5463990000000  0.5261190000000 1.0
C      1  0.5004900000000  0.4810780000000  0.5237530000000 1.0
C      1  0.5502970000000  0.4628150000000  0.5039030000000 1.0
C      1  0.6059120000000  0.4350590000000  0.4789400000000 1.0
C      1  0.4781340000000  0.5164050000000  0.4773020000000 1.0
C      1  0.5898680000000  0.5063290000000  0.4567640000000 1.0
C      1  0.4905730000000  0.4293350000000  0.5483560000000 1.0
C      1  0.5656100000000  0.5195020000000  0.4530330000000 1.0
C      1  0.4533750000000  0.4669750000000  0.4407160000000 1.0
C      1  0.5562700000000  0.4768790000000  0.5763390000000 1.0
C      1  0.5011190000000  0.4030620000000  0.4757670000000 1.0
C      1  0.4845620000000  0.4720800000000  0.5793440000000 1.0
C      1  0.4258940000000  0.5667890000000  0.5330100000000 1.0
C      1  0.5182650000000  0.4833880000000  0.4118380000000 1.0
C      1  0.4260310000000  0.4607680000000  0.5100500000000 1.0
C      1  0.4052700000000  0.5390170000000  0.4983840000000 1.0
C      1  0.5317290000000  0.5794620000000  0.5123540000000 1.0
C      1  0.5213120000000  0.4652560000000  0.5105030000000 1.0
C      1  0.5354420000000  0.5545750000000  0.4644720000000 1.0
C      1  0.4485270000000  0.4700180000000  0.5250650000000 1.0
C      1  0.3853610000000  0.4807980000000  0.5354420000000 1.0
C      1  0.4968680000000  0.5334120000000  0.4907540000000 1.0
C      1  0.4522860000000  0.5447400000000  0.4462210000000 1.0
C      1  0.5863760000000  0.4647840000000  0.4135500000000 1.0
C      1  0.5251880000000  0.5600820000000  0.5577450000000 1.0
C      1  0.5911880000000  0.4989030000000  0.5044740000000 1.0
C      1  0.5089120000000  0.4088820000000  0.5035160000000 1.0
C      1  0.5135090000000  0.4559980000000  0.4181410000000 1.0
C      1  0.4322450000000  0.5732770000000  0.5594570000000 1.0
C      1  0.4869340000000  0.3513300000000  0.4673640000000 1.0
C      1  0.5574050000000  0.5784400000000  0.5264360000000 1.0
C      1  0.4911360000000  0.4175190000000  0.5240930000000 1.0
C      1  0.5536430000000  0.4225380000000  0.5288500000000 1.0
C      1  0.5195840000000  0.5214630000000  0.5059570000000 1.0
C      1  0.5282870000000  0.5430970000000  0.4378630000000 1.0
C      1  0.4937750000000  0.5531970000000  0.5931860000000 1.0
C      1  0.4995310000000  0.4200760000000  0.4521270000000 1.0
C      1  0.3927590000000  0.5302830000000  0.5440100000000 1.0
C      1  0.5276880000000  0.4583760000000  0.4643220000000 1.0
C      1  0.4936100000000  0.4477170000000  0.5678400000000 1.0
C      1  0.4850390000000  0.5234390000000  0.4175350000000 1.0
C      1  0.4597670000000  0.5641840000000  0.4969960000000 1.0
C      1  0.4056350000000  0.6013100000000  0.4822430000000 1.0
C      1  0.5919390000000  0.4371830000000  0.5015350000000 1.0
C      1  0.5205520000000  0.5139580000000  0.5806840000000 1.0
C      1  0.5033130000000  0.5437060000000  0.4250530000000 1.0
C      1  0.4816910000000  0.5287220000000  0.5328860000000 1.0
C      1  0.4569780000000  0.4763560000000  0.5756060000000 1.0
C      1  0.3894670000000  0.5811060000000  0.4746910000000 1.0
C      1  0.4797120000000  0.4673480000000  0.4825330000000 1.0
C      1  0.5531670000000  0.4285740000000  0.5563580000000 1.0
C      1  0.5532170000000  0.5655550000000  0.5538680000000 1.0
C      1  0.5666630000000  0.4819170000000  0.4084050000000 1.0
C      1  0.4791470000000  0.5473230000000  0.5099940000000 1.0
C      1  0.5041460000000  0.5091370000000  0.5277320000000 1.0
C      1  0.5458040000000  0.5015400000000  0.5781840000000 1.0
C      1  0.4004090000000  0.4644700000000  0.5206140000000 1.0
C      1  0.4400810000000  0.5791840000000  0.5112610000000 1.0
C      1  0.4504000000000  0.5159250000000  0.4843370000000 1.0
C      1  0.4595080000000  0.5215350000000  0.4305710000000 1.0
C      1  0.5808030000000  0.5647830000000  0.5163130000000 1.0
C      1  0.4491570000000  0.4945130000000  0.4330390000000 1.0
C      1  0.4558050000000  0.5605700000000  0.4682410000000 1.0
C      1  0.4442310000000  0.4754420000000  0.5521680000000 1.0
C      1  0.4273430000000  0.6008290000000  0.4982410000000 1.0
C      1  0.6007450000000  0.4966230000000  0.4793890000000 1.0
C      1  0.5832090000000  0.5387640000000  0.5296880000000 1.0
C      1  0.5355650000000  0.4067470000000  0.5136200000000 1.0
C      1  0.4246430000000  0.5211090000000  0.4889270000000 1.0
C      1  0.4478620000000  0.5729380000000  0.5810220000000 1.0
C      1  0.5130120000000  0.5725420000000  0.5340350000000 1.0
C      1  0.5000230000000  0.4948170000000  0.5854330000000 1.0
C      1  0.4700150000000  0.5652900000000  0.5937120000000 1.0
C      1  0.6013410000000  0.4494980000000  0.4293880000000 1.0
C      1  0.5436050000000  0.4962410000000  0.4157540000000 1.0
C      1  0.5145640000000  0.5422660000000  0.5774860000000 1.0
C      1  0.4675920000000  0.4477310000000  0.4255350000000 1.0
C      1  0.6086830000000  0.4390830000000  0.4527600000000 1.0
C      1  0.5074960000000  0.4559290000000  0.4847220000000 1.0
C      1  0.5464410000000  0.5201610000000  0.4313230000000 1.0
C      1  0.5560700000000  0.4505300000000  0.5716040000000 1.0
C      1  0.5293470000000  0.5743610000000  0.4842330000000 1.0
C      1  0.5672460000000  0.4422920000000  0.5136250000000 1.0
C      1  0.4741300000000  0.4731410000000  0.5127900000000 1.0
C      1  0.5477570000000  0.5225880000000  0.5001910000000 1.0
C      1  0.4937790000000  0.3761780000000  0.4712170000000 1.0
C      1  0.3834740000000  0.5052880000000  0.5459110000000 1.0
C      1  0.5533690000000  0.5338330000000  0.4746260000000 1.0
C      1  0.5516370000000  0.4656420000000  0.4751750000000 1.0
C      1  0.4871840000000  0.4923240000000  0.4676020000000 1.0
C      1  0.5723470000000  0.5170690000000  0.5150450000000 1.0
C      1  0.4632490000000  0.5264870000000  0.5526530000000 1.0
C      1  0.4943150000000  0.4387190000000  0.4304020000000 1.0
C      1  0.4965840000000  0.5004510000000  0.4059890000000 1.0
C      1  0.4318230000000  0.4528240000000  0.4838880000000 1.0
C      1  0.3896560000000  0.5550120000000  0.4812840000000 1.0
C      1  0.4540800000000  0.4598990000000  0.4684960000000 1.0
C      1  0.5731610000000  0.5449110000000  0.5560250000000 1.0
END
