TITL C-612601-4209-1009 5.9157642015852e-05 125000 -550.16109924451 0 0 91 (C1) n - 1
REM
REM in /home/nfs/bkarasulu/CARBON/AIRSS/Generating-Clusters/TERSOFF/Only-C1/FIRE-HFTN
REM
REM
REM
REM
REM
REM ./C.cell (11c1c37f851c82e70ff6c80c92926a4b)
REM AIRSS Version 0.9.1 bugfix July 2018 build 013d7b7c2542+ Fri, 06 Jul 2018 19:26:36 +0100
REM compiler GCC version 9.2.1 20190827 (Red Hat 9.2.1-1)
REM options -cpp -mtune=generic -march=x86-64 -g -O0 -fpre-include=/usr/include/finclude/math-vector-fortran.h
REM seed 509634590 -559100795 -1256428483 191117230 10047553 1226775098 1326727664 220708688 -2077446181 780689649 -612276460 1161847987 817961230 343847578 1295236399 1060487715 280992077 -64017450 -284017262 -190629222 1846211679 157017357 1630870417 -1028282046 941876100 -384844609 2049389382 -1115619012 951035272 -787830833 1592994843 120644524 -822814138
REM
CELL 1.54180   50.00000   50.00000   50.00000   90.00000   90.00000   90.00000
LATT -1
SFAC C  
C      1  0.4183350000000  0.5303860000000  0.4853460000000 1.0
C      1  0.5565710000000  0.4463900000000  0.4743890000000 1.0
C      1  0.5316400000000  0.4311780000000  0.5157860000000 1.0
C      1  0.4692920000000  0.4950590000000  0.4836710000000 1.0
C      1  0.5358160000000  0.5639130000000  0.4849730000000 1.0
C      1  0.4557860000000  0.5711460000000  0.5980300000000 1.0
C      1  0.4802350000000  0.4477080000000  0.5799660000000 1.0
C      1  0.5187370000000  0.4676020000000  0.3739090000000 1.0
C      1  0.4778550000000  0.5194670000000  0.4423070000000 1.0
C      1  0.5257730000000  0.5408090000000  0.4971780000000 1.0
C      1  0.5219410000000  0.4128880000000  0.5354350000000 1.0
C      1  0.5594330000000  0.5559760000000  0.5658220000000 1.0
C      1  0.4188530000000  0.5204400000000  0.4383560000000 1.0
C      1  0.5165270000000  0.5208370000000  0.4120770000000 1.0
C      1  0.5628950000000  0.4905160000000  0.5274070000000 1.0
C      1  0.4498020000000  0.5833840000000  0.4399820000000 1.0
C      1  0.5095180000000  0.5696510000000  0.5386860000000 1.0
C      1  0.5642380000000  0.5147190000000  0.5410740000000 1.0
C      1  0.5245870000000  0.5219930000000  0.5685620000000 1.0
C      1  0.4913140000000  0.5742260000000  0.5595220000000 1.0
C      1  0.5556610000000  0.5836780000000  0.4920050000000 1.0
C      1  0.5624540000000  0.5011640000000  0.4130340000000 1.0
C      1  0.4800460000000  0.4037710000000  0.5540570000000 1.0
C      1  0.5028440000000  0.4640410000000  0.4413520000000 1.0
C      1  0.5419740000000  0.4385710000000  0.4288510000000 1.0
C      1  0.4093020000000  0.4791330000000  0.4955390000000 1.0
C      1  0.5058820000000  0.3942510000000  0.4733860000000 1.0
C      1  0.5497850000000  0.4614220000000  0.5642850000000 1.0
C      1  0.5811820000000  0.4849290000000  0.4234720000000 1.0
C      1  0.5634600000000  0.4436710000000  0.4465940000000 1.0
C      1  0.5201390000000  0.4230640000000  0.5635590000000 1.0
C      1  0.4924150000000  0.4793460000000  0.4859480000000 1.0
C      1  0.5248670000000  0.4745890000000  0.3995440000000 1.0
C      1  0.4615820000000  0.5182330000000  0.5239680000000 1.0
C      1  0.4866970000000  0.5686270000000  0.4967680000000 1.0
C      1  0.4599330000000  0.5119140000000  0.4626160000000 1.0
C      1  0.4918640000000  0.4237660000000  0.5714950000000 1.0
C      1  0.4755830000000  0.4563990000000  0.4372580000000 1.0
C      1  0.5529670000000  0.5801910000000  0.5562420000000 1.0
C      1  0.5453090000000  0.4714210000000  0.5384150000000 1.0
C      1  0.5194850000000  0.5173660000000  0.5966550000000 1.0
C      1  0.5745210000000  0.4843680000000  0.5022650000000 1.0
C      1  0.4994560000000  0.5129980000000  0.5549560000000 1.0
C      1  0.4820890000000  0.5561500000000  0.4122910000000 1.0
C      1  0.4164910000000  0.5337240000000  0.5134670000000 1.0
C      1  0.4735270000000  0.5740530000000  0.5791540000000 1.0
C      1  0.4884490000000  0.5249440000000  0.5311340000000 1.0
C      1  0.5109590000000  0.4783510000000  0.4645980000000 1.0
C      1  0.5832100000000  0.4611480000000  0.4360320000000 1.0
C      1  0.4974850000000  0.3972720000000  0.5334550000000 1.0
C      1  0.5422610000000  0.4261850000000  0.4894950000000 1.0
C      1  0.5062750000000  0.5853200000000  0.4853210000000 1.0
C      1  0.4492080000000  0.4303610000000  0.5014710000000 1.0
C      1  0.4926360000000  0.5319040000000  0.4218100000000 1.0
C      1  0.4801610000000  0.4006170000000  0.4769260000000 1.0
C      1  0.5593300000000  0.6048290000000  0.4718980000000 1.0
C      1  0.4395040000000  0.4503110000000  0.5185250000000 1.0
C      1  0.4643660000000  0.5749320000000  0.4192290000000 1.0
C      1  0.5499070000000  0.5303750000000  0.5592980000000 1.0
C      1  0.4605690000000  0.5721920000000  0.4881470000000 1.0
C      1  0.5365850000000  0.6214050000000  0.4728810000000 1.0
C      1  0.4208800000000  0.4902580000000  0.5658010000000 1.0
C      1  0.4474340000000  0.5807460000000  0.4664680000000 1.0
C      1  0.4416610000000  0.5379980000000  0.5258080000000 1.0
C      1  0.4324170000000  0.5211580000000  0.4622750000000 1.0
C      1  0.6010430000000  0.4881410000000  0.4971210000000 1.0
C      1  0.4838280000000  0.4962660000000  0.5748680000000 1.0
C      1  0.5566450000000  0.4739230000000  0.4827210000000 1.0
C      1  0.5323820000000  0.5163050000000  0.4854380000000 1.0
C      1  0.5305990000000  0.4040960000000  0.4764070000000 1.0
C      1  0.4960680000000  0.5034070000000  0.6003260000000 1.0
C      1  0.5258370000000  0.4585620000000  0.5221270000000 1.0
C      1  0.5333310000000  0.5857260000000  0.5369560000000 1.0
C      1  0.5218020000000  0.4568260000000  0.4215290000000 1.0
C      1  0.5017780000000  0.5486560000000  0.5168820000000 1.0
C      1  0.4335840000000  0.4760840000000  0.5078550000000 1.0
C      1  0.4031660000000  0.5058020000000  0.5528670000000 1.0
C      1  0.5353490000000  0.4907750000000  0.4734180000000 1.0
C      1  0.4681100000000  0.4727100000000  0.5739460000000 1.0
C      1  0.4630610000000  0.4397300000000  0.4559570000000 1.0
C      1  0.5028380000000  0.4698320000000  0.5105220000000 1.0
C      1  0.4413130000000  0.4709050000000  0.5643890000000 1.0
C      1  0.4619030000000  0.4650080000000  0.4151660000000 1.0
C      1  0.5187450000000  0.6101740000000  0.4934710000000 1.0
C      1  0.5394880000000  0.5990320000000  0.5128770000000 1.0
C      1  0.4370420000000  0.4493300000000  0.5463730000000 1.0
C      1  0.4542580000000  0.4958240000000  0.5075280000000 1.0
C      1  0.4626130000000  0.4224920000000  0.4780930000000 1.0
C      1  0.3982990000000  0.5215060000000  0.5313870000000 1.0
C      1  0.5350310000000  0.5004940000000  0.4064300000000 1.0
C      1  0.5399280000000  0.4389600000000  0.5751210000000 1.0
END
