TITL C-612605-9286-123 0.294118263132411 125000 -698.719204859156 0 0 113 (C1) n - 1
REM
REM in /home/nfs/bkarasulu/CARBON/AIRSS/Generating-Clusters/TERSOFF/Only-C1/FIRE-HFTN
REM
REM
REM
REM
REM
REM ./C.cell (11c1c37f851c82e70ff6c80c92926a4b)
REM AIRSS Version 0.9.1 bugfix July 2018 build 013d7b7c2542+ Fri, 06 Jul 2018 19:26:36 +0100
REM compiler GCC version 9.2.1 20190827 (Red Hat 9.2.1-1)
REM options -cpp -mtune=generic -march=x86-64 -g -O0 -fpre-include=/usr/include/finclude/math-vector-fortran.h
REM seed -1517995460 -1909505448 -1988986744 47989383 946998500 -1924157262 -2080156936 -2045458302 -765081081 1094315675 -2058235977 -2081346502 666748252 1057484506 -1815716720 2026313890 568109712 -1029288506 -367334038 703634267 385039092 -1006835425 -865684135 1412115183 942445015 -975477434 -1003473591 -133080544 -1691139708 1284061665 432827355 193042824 -1367783273
REM
CELL 1.54180   50.00000   50.00000   50.00000   90.00000   90.00000   90.00000
LATT -1
SFAC C  
C      1  0.5298260000000  0.5590020000000  0.5518110000000 1.0
C      1  0.4650650000000  0.4416810000000  0.6350620000000 1.0
C      1  0.5089950000000  0.5714450000000  0.5665780000000 1.0
C      1  0.5688010000000  0.4432390000000  0.4681450000000 1.0
C      1  0.5322060000000  0.5322260000000  0.3909430000000 1.0
C      1  0.4414060000000  0.4711340000000  0.4370330000000 1.0
C      1  0.4750070000000  0.4277470000000  0.5450180000000 1.0
C      1  0.4733240000000  0.4123340000000  0.4992530000000 1.0
C      1  0.4865810000000  0.4933460000000  0.5309090000000 1.0
C      1  0.4984510000000  0.5616990000000  0.4804850000000 1.0
C      1  0.5882590000000  0.5389730000000  0.5128800000000 1.0
C      1  0.4193330000000  0.4879760000000  0.4440170000000 1.0
C      1  0.5405710000000  0.5476330000000  0.4141990000000 1.0
C      1  0.5010760000000  0.4482450000000  0.4376170000000 1.0
C      1  0.4813930000000  0.5514410000000  0.5004580000000 1.0
C      1  0.4794150000000  0.4538220000000  0.6170130000000 1.0
C      1  0.5879790000000  0.4865400000000  0.4609090000000 1.0
C      1  0.4281030000000  0.4210850000000  0.5250100000000 1.0
C      1  0.4140990000000  0.5124230000000  0.4306150000000 1.0
C      1  0.6087250000000  0.4931890000000  0.5031350000000 1.0
C      1  0.5555910000000  0.5283630000000  0.4307820000000 1.0
C      1  0.5310110000000  0.4488740000000  0.5693030000000 1.0
C      1  0.4851340000000  0.5130320000000  0.4718770000000 1.0
C      1  0.5411150000000  0.6006810000000  0.5154050000000 1.0
C      1  0.5400870000000  0.4238720000000  0.5069970000000 1.0
C      1  0.4127480000000  0.4889130000000  0.4723820000000 1.0
C      1  0.6034890000000  0.4560800000000  0.5331870000000 1.0
C      1  0.4895210000000  0.4180530000000  0.5223510000000 1.0
C      1  0.5481820000000  0.4258080000000  0.4788920000000 1.0
C      1  0.5267890000000  0.4792730000000  0.5089540000000 1.0
C      1  0.4601340000000  0.4435360000000  0.5606170000000 1.0
C      1  0.5508930000000  0.5684950000000  0.4814100000000 1.0
C      1  0.5860180000000  0.4431370000000  0.5148290000000 1.0
C      1  0.5578110000000  0.4740420000000  0.4258230000000 1.0
C      1  0.5176360000000  0.6083320000000  0.5004150000000 1.0
C      1  0.5915780000000  0.4480400000000  0.4871610000000 1.0
C      1  0.5450420000000  0.4663990000000  0.5261890000000 1.0
C      1  0.4639470000000  0.4066370000000  0.4518490000000 1.0
C      1  0.5056960000000  0.4379070000000  0.4126930000000 1.0
C      1  0.4829870000000  0.5665980000000  0.5544690000000 1.0
C      1  0.5416710000000  0.4709150000000  0.5532340000000 1.0
C      1  0.4436100000000  0.5142220000000  0.5819730000000 1.0
C      1  0.4987370000000  0.4962460000000  0.5572500000000 1.0
C      1  0.3932500000000  0.5085830000000  0.4786070000000 1.0
C      1  0.5692940000000  0.5561790000000  0.5254870000000 1.0
C      1  0.4819240000000  0.4693850000000  0.4882260000000 1.0
C      1  0.4745210000000  0.5248160000000  0.4954100000000 1.0
C      1  0.4535720000000  0.4628050000000  0.4825620000000 1.0
C      1  0.4830530000000  0.4864600000000  0.5791330000000 1.0
C      1  0.5444180000000  0.5029760000000  0.6160370000000 1.0
C      1  0.4158810000000  0.5375120000000  0.5303310000000 1.0
C      1  0.4614820000000  0.5585540000000  0.5701880000000 1.0
C      1  0.4983640000000  0.4747810000000  0.5116640000000 1.0
C      1  0.5182280000000  0.4185950000000  0.5260150000000 1.0
C      1  0.5217300000000  0.4629310000000  0.5933430000000 1.0
C      1  0.5532270000000  0.5197600000000  0.5585850000000 1.0
C      1  0.4406250000000  0.4225910000000  0.4555490000000 1.0
C      1  0.5696320000000  0.4667860000000  0.4500060000000 1.0
C      1  0.5515050000000  0.4604590000000  0.4011200000000 1.0
C      1  0.5706960000000  0.5596050000000  0.4640220000000 1.0
C      1  0.4176720000000  0.5089850000000  0.5280960000000 1.0
C      1  0.4892980000000  0.4741200000000  0.4407010000000 1.0
C      1  0.4433170000000  0.4123600000000  0.5028480000000 1.0
C      1  0.4456810000000  0.4506220000000  0.4567780000000 1.0
C      1  0.4180770000000  0.5488780000000  0.4620910000000 1.0
C      1  0.5959940000000  0.5182570000000  0.4954110000000 1.0
C      1  0.4303470000000  0.5645760000000  0.4830570000000 1.0
C      1  0.5089710000000  0.6081600000000  0.4524080000000 1.0
C      1  0.4140910000000  0.4400910000000  0.5379130000000 1.0
C      1  0.5159410000000  0.5476960000000  0.5287100000000 1.0
C      1  0.4227570000000  0.5554440000000  0.5092970000000 1.0
C      1  0.4907160000000  0.4861170000000  0.4662490000000 1.0
C      1  0.5343320000000  0.4975160000000  0.5650100000000 1.0
C      1  0.5402660000000  0.4777390000000  0.3825640000000 1.0
C      1  0.4176700000000  0.5464920000000  0.5569970000000 1.0
C      1  0.4334930000000  0.4816110000000  0.4911860000000 1.0
C      1  0.4656900000000  0.5080520000000  0.5168280000000 1.0
C      1  0.5855290000000  0.5143220000000  0.4679190000000 1.0
C      1  0.4658310000000  0.4833740000000  0.4266700000000 1.0
C      1  0.5347590000000  0.4893180000000  0.5948600000000 1.0
C      1  0.4399590000000  0.5408890000000  0.5733930000000 1.0
C      1  0.4884710000000  0.5571240000000  0.5273500000000 1.0
C      1  0.5500750000000  0.6167990000000  0.5356990000000 1.0
C      1  0.4547140000000  0.4888130000000  0.5773380000000 1.0
C      1  0.5386820000000  0.5044440000000  0.3928190000000 1.0
C      1  0.5553320000000  0.5468940000000  0.5495990000000 1.0
C      1  0.5253230000000  0.4255080000000  0.5539910000000 1.0
C      1  0.4658030000000  0.5108380000000  0.4188970000000 1.0
C      1  0.5724910000000  0.5340500000000  0.4526140000000 1.0
C      1  0.5335970000000  0.5053360000000  0.5010400000000 1.0
C      1  0.6035560000000  0.4737280000000  0.4819000000000 1.0
C      1  0.5026190000000  0.4308120000000  0.4603060000000 1.0
C      1  0.4285490000000  0.5364960000000  0.4381290000000 1.0
C      1  0.4392020000000  0.4988140000000  0.5129310000000 1.0
C      1  0.4178280000000  0.4644430000000  0.5518870000000 1.0
C      1  0.5319140000000  0.5735120000000  0.4202530000000 1.0
C      1  0.4485060000000  0.5863930000000  0.4801550000000 1.0
C      1  0.4938590000000  0.4666520000000  0.5970820000000 1.0
C      1  0.5204980000000  0.5945400000000  0.4323350000000 1.0
C      1  0.4839210000000  0.4126460000000  0.4716150000000 1.0
C      1  0.4984250000000  0.6088350000000  0.4789150000000 1.0
C      1  0.3947110000000  0.5348210000000  0.4717180000000 1.0
C      1  0.4545700000000  0.5343540000000  0.4269580000000 1.0
C      1  0.5273760000000  0.5291320000000  0.5112650000000 1.0
C      1  0.5558010000000  0.5766050000000  0.5084130000000 1.0
C      1  0.6130810000000  0.4811380000000  0.5282650000000 1.0
C      1  0.4278980000000  0.4120290000000  0.4786210000000 1.0
C      1  0.5583320000000  0.4426710000000  0.5195000000000 1.0
C      1  0.4057490000000  0.4889570000000  0.5442340000000 1.0
C      1  0.4427240000000  0.4655340000000  0.5658800000000 1.0
C      1  0.5517820000000  0.5020510000000  0.4200010000000 1.0
C      1  0.5242000000000  0.5638850000000  0.4741160000000 1.0
C      1  0.4705790000000  0.6021140000000  0.4817690000000 1.0
END
