TITL C-612602-9376-900 5267.86543190712 125000 -978.907825641437 0 0 166 (C1) n - 1
REM
REM in /home/nfs/bkarasulu/CARBON/AIRSS/Generating-Clusters/TERSOFF/Only-C1/FIRE-HFTN
REM
REM
REM
REM
REM
REM ./C.cell (11c1c37f851c82e70ff6c80c92926a4b)
REM AIRSS Version 0.9.1 bugfix July 2018 build 013d7b7c2542+ Fri, 06 Jul 2018 19:26:36 +0100
REM compiler GCC version 9.2.1 20190827 (Red Hat 9.2.1-1)
REM options -cpp -mtune=generic -march=x86-64 -g -O0 -fpre-include=/usr/include/finclude/math-vector-fortran.h
REM seed -1697475446 -140632074 1351050526 1038390888 -595066194 -1625962901 -886859796 -1766579603 -1239859434 -870051971 603708811 563653739 1030140270 -296370871 -1913914218 -543878783 -1976750083 -120840535 -1288804318 224614098 2055701318 76164890 2008357501 619924015 -205455452 1847210889 -182089520 -447790068 837940973 2140251661 -1909752329 -703114604 -1193532962
REM
CELL 1.54180   50.00000   50.00000   50.00000   90.00000   90.00000   90.00000
LATT -1
SFAC C  
C      1  0.5252080000000  0.4220230000000  0.5718870000000 1.0
C      1  0.5321450000000  0.5398860000000  0.4264110000000 1.0
C      1  0.4080390000000  0.5053890000000  0.3700510000000 1.0
C      1  0.4285080000000  0.6026790000000  0.5408680000000 1.0
C      1  0.6007880000000  0.5772940000000  0.5118150000000 1.0
C      1  0.4846360000000  0.4603960000000  0.5298500000000 1.0
C      1  0.5280220000000  0.5868920000000  0.4666740000000 1.0
C      1  0.5188180000000  0.4361510000000  0.5044490000000 1.0
C      1  0.5040420000000  0.4710040000000  0.4524640000000 1.0
C      1  0.5227460000000  0.4970310000000  0.6065670000000 1.0
C      1  0.4296520000000  0.4311270000000  0.4059940000000 1.0
C      1  0.5798790000000  0.5923410000000  0.5209810000000 1.0
C      1  0.4568620000000  0.6048120000000  0.5429480000000 1.0
C      1  0.5812530000000  0.4203370000000  0.4329480000000 1.0
C      1  0.4591360000000  0.4812890000000  0.4510850000000 1.0
C      1  0.4267530000000  0.5151560000000  0.3853300000000 1.0
C      1  0.4886840000000  0.5352580000000  0.6101660000000 1.0
C      1  0.5149250000000  0.5409820000000  0.4496130000000 1.0
C      1  0.4097690000000  0.4710150000000  0.5292920000000 1.0
C      1  0.4340310000000  0.4406010000000  0.5601730000000 1.0
C      1  0.4306130000000  0.4924390000000  0.4942970000000 1.0
C      1  0.5668600000000  0.4783960000000  0.5453850000000 1.0
C      1  0.4557820000000  0.5263870000000  0.5778730000000 1.0
C      1  0.4867890000000  0.4946690000000  0.4453060000000 1.0
C      1  0.5669120000000  0.4765990000000  0.4893710000000 1.0
C      1  0.4456430000000  0.4692390000000  0.5642730000000 1.0
C      1  0.4963500000000  0.3934220000000  0.5174320000000 1.0
C      1  0.5395030000000  0.4774470000000  0.4785250000000 1.0
C      1  0.5081540000000  0.5335240000000  0.5576290000000 1.0
C      1  0.4214200000000  0.5930650000000  0.4647140000000 1.0
C      1  0.4351880000000  0.4846330000000  0.5391490000000 1.0
C      1  0.4145090000000  0.4428770000000  0.5371960000000 1.0
C      1  0.5396050000000  0.4909280000000  0.4288970000000 1.0
C      1  0.6027010000000  0.5421180000000  0.4586350000000 1.0
C      1  0.4812110000000  0.5639910000000  0.6036030000000 1.0
C      1  0.4967720000000  0.4839930000000  0.5133560000000 1.0
C      1  0.3799630000000  0.5543900000000  0.4931900000000 1.0
C      1  0.4291610000000  0.5529080000000  0.6069320000000 1.0
C      1  0.4826990000000  0.5513410000000  0.4960940000000 1.0
C      1  0.4137360000000  0.5832880000000  0.5260240000000 1.0
C      1  0.5746720000000  0.5635200000000  0.4255700000000 1.0
C      1  0.4153710000000  0.5296830000000  0.6019730000000 1.0
C      1  0.4551260000000  0.5548750000000  0.5081550000000 1.0
C      1  0.3995360000000  0.5270210000000  0.4538470000000 1.0
C      1  0.4983210000000  0.5339250000000  0.3534830000000 1.0
C      1  0.5375710000000  0.5929360000000  0.5507230000000 1.0
C      1  0.5484650000000  0.4300750000000  0.3980530000000 1.0
C      1  0.5026170000000  0.4782790000000  0.5974740000000 1.0
C      1  0.6168950000000  0.4607900000000  0.5032670000000 1.0
C      1  0.5060480000000  0.6014680000000  0.4572890000000 1.0
C      1  0.5680940000000  0.4044550000000  0.4821770000000 1.0
C      1  0.6568820000000  0.5137040000000  0.4761780000000 1.0
C      1  0.5475480000000  0.5820700000000  0.5746470000000 1.0
C      1  0.6001340000000  0.4393280000000  0.5032780000000 1.0
C      1  0.5291810000000  0.4381840000000  0.5960240000000 1.0
C      1  0.5009810000000  0.5803630000000  0.5878960000000 1.0
C      1  0.4517500000000  0.5268320000000  0.4707650000000 1.0
C      1  0.5660570000000  0.4910830000000  0.4170590000000 1.0
C      1  0.5193830000000  0.4761710000000  0.5002510000000 1.0
C      1  0.5399300000000  0.5429870000000  0.4917140000000 1.0
C      1  0.4467430000000  0.5386870000000  0.5563110000000 1.0
C      1  0.4673760000000  0.4492460000000  0.5070050000000 1.0
C      1  0.4749730000000  0.4304190000000  0.4658400000000 1.0
C      1  0.4851150000000  0.6023250000000  0.5419390000000 1.0
C      1  0.4524900000000  0.5674840000000  0.6065180000000 1.0
C      1  0.4992930000000  0.5643740000000  0.5155370000000 1.0
C      1  0.4932230000000  0.4838120000000  0.5712990000000 1.0
C      1  0.4739450000000  0.3866320000000  0.4490280000000 1.0
C      1  0.4617130000000  0.5492950000000  0.5359570000000 1.0
C      1  0.5529750000000  0.6003010000000  0.4708340000000 1.0
C      1  0.3562350000000  0.5667400000000  0.4868210000000 1.0
C      1  0.4840500000000  0.3657640000000  0.5549190000000 1.0
C      1  0.5803260000000  0.5004910000000  0.5567260000000 1.0
C      1  0.5425660000000  0.5003430000000  0.4582240000000 1.0
C      1  0.5841200000000  0.5255630000000  0.5447500000000 1.0
C      1  0.4130500000000  0.5020270000000  0.4505520000000 1.0
C      1  0.4039860000000  0.4866750000000  0.5049480000000 1.0
C      1  0.5067020000000  0.4540770000000  0.4070840000000 1.0
C      1  0.4161880000000  0.5484750000000  0.4428010000000 1.0
C      1  0.4499010000000  0.4160050000000  0.5551170000000 1.0
C      1  0.5600480000000  0.5400070000000  0.4191180000000 1.0
C      1  0.5704350000000  0.4939080000000  0.6191790000000 1.0
C      1  0.4386090000000  0.4988810000000  0.4660740000000 1.0
C      1  0.5222970000000  0.5226150000000  0.5060630000000 1.0
C      1  0.5777780000000  0.5166450000000  0.4207420000000 1.0
C      1  0.5505190000000  0.5572520000000  0.5167190000000 1.0
C      1  0.5153790000000  0.5245750000000  0.6045390000000 1.0
C      1  0.5159130000000  0.4821260000000  0.4116580000000 1.0
C      1  0.5880940000000  0.5661100000000  0.4508330000000 1.0
C      1  0.5099780000000  0.4436300000000  0.5318050000000 1.0
C      1  0.5030040000000  0.5973580000000  0.5630240000000 1.0
C      1  0.4366890000000  0.4833380000000  0.5904120000000 1.0
C      1  0.4917090000000  0.5497990000000  0.5401440000000 1.0
C      1  0.5497370000000  0.4384000000000  0.5067650000000 1.0
C      1  0.5032320000000  0.5058530000000  0.5570800000000 1.0
C      1  0.4277870000000  0.4255140000000  0.5173560000000 1.0
C      1  0.5181660000000  0.4048560000000  0.5022840000000 1.0
C      1  0.5342160000000  0.4314450000000  0.4555610000000 1.0
C      1  0.4691310000000  0.4029200000000  0.4718180000000 1.0
C      1  0.4465950000000  0.5237870000000  0.4030040000000 1.0
C      1  0.4578070000000  0.4918560000000  0.6084700000000 1.0
C      1  0.4845540000000  0.6132310000000  0.4484240000000 1.0
C      1  0.4615570000000  0.4505530000000  0.4407080000000 1.0
C      1  0.4691020000000  0.3972310000000  0.5065540000000 1.0
C      1  0.3847600000000  0.5052300000000  0.4958060000000 1.0
C      1  0.4254020000000  0.4227650000000  0.3816810000000 1.0
C      1  0.5787540000000  0.4060320000000  0.4558020000000 1.0
C      1  0.3994440000000  0.6392950000000  0.5682010000000 1.0
C      1  0.4949640000000  0.5205790000000  0.4582640000000 1.0
C      1  0.5525430000000  0.5848030000000  0.5267900000000 1.0
C      1  0.5502520000000  0.4610520000000  0.5603360000000 1.0
C      1  0.4402010000000  0.4427320000000  0.4987790000000 1.0
C      1  0.4863050000000  0.5250110000000  0.3748190000000 1.0
C      1  0.5005580000000  0.3856440000000  0.5450750000000 1.0
C      1  0.4347880000000  0.4403680000000  0.4316890000000 1.0
C      1  0.5491780000000  0.4601920000000  0.5898660000000 1.0
C      1  0.4383700000000  0.5504800000000  0.4850730000000 1.0
C      1  0.5541450000000  0.5231910000000  0.4723620000000 1.0
C      1  0.4871850000000  0.4418030000000  0.4878020000000 1.0
C      1  0.5283310000000  0.4085370000000  0.4432460000000 1.0
C      1  0.5206010000000  0.4291290000000  0.4032530000000 1.0
C      1  0.5252180000000  0.5589120000000  0.4705330000000 1.0
C      1  0.4397220000000  0.5398140000000  0.4258440000000 1.0
C      1  0.5421720000000  0.3933240000000  0.4902050000000 1.0
C      1  0.4881090000000  0.3917010000000  0.4260520000000 1.0
C      1  0.5748650000000  0.4268470000000  0.4992800000000 1.0
C      1  0.4961340000000  0.5923800000000  0.5176100000000 1.0
C      1  0.5611630000000  0.5389170000000  0.5358300000000 1.0
C      1  0.4765000000000  0.5026180000000  0.5060190000000 1.0
C      1  0.4800180000000  0.5237790000000  0.4840450000000 1.0
C      1  0.5274070000000  0.4574730000000  0.4602270000000 1.0
C      1  0.3860560000000  0.5293940000000  0.4800700000000 1.0
C      1  0.5211620000000  0.3951990000000  0.5632680000000 1.0
C      1  0.4243710000000  0.5659950000000  0.4649420000000 1.0
C      1  0.4159490000000  0.4414660000000  0.4522410000000 1.0
C      1  0.5059120000000  0.4513740000000  0.6063510000000 1.0
C      1  0.5486960000000  0.4844320000000  0.6057370000000 1.0
C      1  0.5235870000000  0.5401480000000  0.5816220000000 1.0
C      1  0.5297760000000  0.4420920000000  0.5514820000000 1.0
C      1  0.5275930000000  0.5672970000000  0.5879510000000 1.0
C      1  0.4605760000000  0.5385090000000  0.4447570000000 1.0
C      1  0.6313540000000  0.5116210000000  0.4864670000000 1.0
C      1  0.5390750000000  0.3763640000000  0.5725240000000 1.0
C      1  0.4233690000000  0.4471830000000  0.4771390000000 1.0
C      1  0.4481800000000  0.4066570000000  0.5269190000000 1.0
C      1  0.4497550000000  0.4961570000000  0.5157130000000 1.0
C      1  0.5714420000000  0.4380380000000  0.4128590000000 1.0
C      1  0.5774270000000  0.4657930000000  0.4119880000000 1.0
C      1  0.5771170000000  0.5863850000000  0.4665680000000 1.0
C      1  0.4678330000000  0.5175070000000  0.6019580000000 1.0
C      1  0.4801470000000  0.4499390000000  0.4168190000000 1.0
C      1  0.5691270000000  0.4778000000000  0.5173400000000 1.0
C      1  0.5534200000000  0.6267240000000  0.4780370000000 1.0
C      1  0.5116110000000  0.4067320000000  0.4203720000000 1.0
C      1  0.4155010000000  0.5033890000000  0.5934960000000 1.0
C      1  0.4917090000000  0.4992860000000  0.4153290000000 1.0
C      1  0.3969780000000  0.5670740000000  0.5123860000000 1.0
C      1  0.6242750000000  0.4864960000000  0.4983630000000 1.0
C      1  0.4745640000000  0.5154150000000  0.3985710000000 1.0
C      1  0.4749250000000  0.4680310000000  0.5570270000000 1.0
C      1  0.5866150000000  0.4756450000000  0.4703220000000 1.0
C      1  0.5998360000000  0.5213550000000  0.4385750000000 1.0
C      1  0.6099100000000  0.5503840000000  0.5087040000000 1.0
C      1  0.4134620000000  0.6216820000000  0.5550670000000 1.0
C      1  0.6077390000000  0.5346320000000  0.5324410000000 1.0
C      1  0.6145230000000  0.5355040000000  0.4842860000000 1.0
END
