TITL C-612602-9376-540 22.398651101258 125000 -911.253605095618 0 0 150 (C1) n - 1
REM
REM in /home/nfs/bkarasulu/CARBON/AIRSS/Generating-Clusters/TERSOFF/Only-C1/FIRE-HFTN
REM
REM
REM
REM
REM
REM ./C.cell (11c1c37f851c82e70ff6c80c92926a4b)
REM AIRSS Version 0.9.1 bugfix July 2018 build 013d7b7c2542+ Fri, 06 Jul 2018 19:26:36 +0100
REM compiler GCC version 9.2.1 20190827 (Red Hat 9.2.1-1)
REM options -cpp -mtune=generic -march=x86-64 -g -O0 -fpre-include=/usr/include/finclude/math-vector-fortran.h
REM seed 1273056043 161232321 501749317 -2018095526 1725230073 -1154014578 1351937520 -1190367869 -523899710 1947936461 705241891 -1468532432 -532225248 1961322177 710896933 1055796340 1880259603 -1894840444 2130491622 -1888084929 1740611393 1847314596 -1667196386 -1644681553 230100218 -2029966357 956329745 -131257284 1691602069 -567228884 1860043870 -1789580529 -69905464
REM
CELL 1.54180   50.00000   50.00000   50.00000   90.00000   90.00000   90.00000
LATT -1
SFAC C  
C      1  0.5042580000000  0.3780270000000  0.4586420000000 1.0
C      1  0.5323780000000  0.5585320000000  0.4308090000000 1.0
C      1  0.4837540000000  0.4105730000000  0.5659540000000 1.0
C      1  0.5237610000000  0.5378790000000  0.4118660000000 1.0
C      1  0.5140430000000  0.4861830000000  0.5741220000000 1.0
C      1  0.5790840000000  0.5157810000000  0.4667180000000 1.0
C      1  0.4781290000000  0.5398100000000  0.4569310000000 1.0
C      1  0.4361820000000  0.5909930000000  0.4824820000000 1.0
C      1  0.4198770000000  0.4503350000000  0.4832700000000 1.0
C      1  0.3950970000000  0.4931310000000  0.5019700000000 1.0
C      1  0.4179340000000  0.4597110000000  0.4195580000000 1.0
C      1  0.4083440000000  0.4661500000000  0.5471950000000 1.0
C      1  0.5603440000000  0.4862220000000  0.5135380000000 1.0
C      1  0.5285710000000  0.4916360000000  0.4554660000000 1.0
C      1  0.4452330000000  0.4933340000000  0.4921070000000 1.0
C      1  0.5125630000000  0.5061610000000  0.4720950000000 1.0
C      1  0.4568280000000  0.5058780000000  0.3862660000000 1.0
C      1  0.5769070000000  0.5434320000000  0.4596740000000 1.0
C      1  0.5506700000000  0.4376000000000  0.5243880000000 1.0
C      1  0.5316930000000  0.4305330000000  0.5674980000000 1.0
C      1  0.5643900000000  0.5821290000000  0.5328570000000 1.0
C      1  0.5829570000000  0.5422140000000  0.5771350000000 1.0
C      1  0.5195750000000  0.5323530000000  0.4805460000000 1.0
C      1  0.4740740000000  0.5573430000000  0.5484830000000 1.0
C      1  0.5161850000000  0.5819930000000  0.4321270000000 1.0
C      1  0.4960850000000  0.6094010000000  0.4713180000000 1.0
C      1  0.5181000000000  0.4713310000000  0.5509520000000 1.0
C      1  0.4633420000000  0.4509150000000  0.5135670000000 1.0
C      1  0.5971900000000  0.4536680000000  0.5267470000000 1.0
C      1  0.5049250000000  0.6005790000000  0.4477260000000 1.0
C      1  0.5438560000000  0.5275130000000  0.4939660000000 1.0
C      1  0.4732270000000  0.4981150000000  0.5049620000000 1.0
C      1  0.5524510000000  0.5807690000000  0.5594780000000 1.0
C      1  0.4949010000000  0.5472990000000  0.4797960000000 1.0
C      1  0.5671270000000  0.4626090000000  0.4118310000000 1.0
C      1  0.4754720000000  0.5102530000000  0.5622100000000 1.0
C      1  0.5248180000000  0.5316340000000  0.5365700000000 1.0
C      1  0.4138810000000  0.5296100000000  0.5672330000000 1.0
C      1  0.4974270000000  0.4333860000000  0.5767450000000 1.0
C      1  0.5095950000000  0.5230840000000  0.6324650000000 1.0
C      1  0.5815220000000  0.4880200000000  0.4132310000000 1.0
C      1  0.4142490000000  0.5764220000000  0.5013620000000 1.0
C      1  0.4649680000000  0.3964270000000  0.5189920000000 1.0
C      1  0.4748250000000  0.5527180000000  0.4145240000000 1.0
C      1  0.4658380000000  0.4088630000000  0.4428030000000 1.0
C      1  0.5446180000000  0.5357330000000  0.5199030000000 1.0
C      1  0.4817140000000  0.6066140000000  0.4953730000000 1.0
C      1  0.4160360000000  0.4918970000000  0.4556530000000 1.0
C      1  0.4067570000000  0.5512960000000  0.4851810000000 1.0
C      1  0.4479570000000  0.4626940000000  0.4896620000000 1.0
C      1  0.4872160000000  0.5389090000000  0.5682310000000 1.0
C      1  0.4330260000000  0.5058730000000  0.5325310000000 1.0
C      1  0.5592890000000  0.5590620000000  0.5755170000000 1.0
C      1  0.5458290000000  0.5248970000000  0.3991120000000 1.0
C      1  0.4636570000000  0.5038260000000  0.5357830000000 1.0
C      1  0.4605060000000  0.4318890000000  0.4235800000000 1.0
C      1  0.5010740000000  0.4246570000000  0.4923430000000 1.0
C      1  0.4915960000000  0.5571120000000  0.5933740000000 1.0
C      1  0.5011480000000  0.4294890000000  0.3946400000000 1.0
C      1  0.5607840000000  0.4428620000000  0.5687830000000 1.0
C      1  0.4325050000000  0.5180700000000  0.5055350000000 1.0
C      1  0.4190420000000  0.4427360000000  0.5338690000000 1.0
C      1  0.4945120000000  0.4485080000000  0.5106810000000 1.0
C      1  0.4353580000000  0.5088320000000  0.3717930000000 1.0
C      1  0.4022820000000  0.5239190000000  0.5002900000000 1.0
C      1  0.4322130000000  0.6574800000000  0.5112860000000 1.0
C      1  0.4862230000000  0.4878900000000  0.5776060000000 1.0
C      1  0.5479760000000  0.5174020000000  0.5908750000000 1.0
C      1  0.5170750000000  0.4663540000000  0.5000130000000 1.0
C      1  0.5245370000000  0.5013810000000  0.6396980000000 1.0
C      1  0.5358430000000  0.4338710000000  0.4614610000000 1.0
C      1  0.4437720000000  0.5721110000000  0.4594680000000 1.0
C      1  0.5744380000000  0.4418850000000  0.5412740000000 1.0
C      1  0.4425100000000  0.6352400000000  0.5024280000000 1.0
C      1  0.4542740000000  0.4000740000000  0.4937080000000 1.0
C      1  0.4037330000000  0.4770720000000  0.4783320000000 1.0
C      1  0.4862590000000  0.3896570000000  0.4426610000000 1.0
C      1  0.4280860000000  0.4312410000000  0.4601130000000 1.0
C      1  0.4814570000000  0.5037770000000  0.4001020000000 1.0
C      1  0.4138830000000  0.5714400000000  0.5304930000000 1.0
C      1  0.5174870000000  0.3784160000000  0.4835240000000 1.0
C      1  0.5201720000000  0.4766800000000  0.4076010000000 1.0
C      1  0.5673070000000  0.4660270000000  0.5844780000000 1.0
C      1  0.4102630000000  0.4361710000000  0.5078230000000 1.0
C      1  0.5322640000000  0.4192830000000  0.5393880000000 1.0
C      1  0.4666720000000  0.4594390000000  0.4658440000000 1.0
C      1  0.5164790000000  0.5362280000000  0.5618880000000 1.0
C      1  0.6115530000000  0.4956790000000  0.4918230000000 1.0
C      1  0.4927970000000  0.5922520000000  0.5179300000000 1.0
C      1  0.5128330000000  0.4007800000000  0.5291580000000 1.0
C      1  0.5270970000000  0.4930410000000  0.4285490000000 1.0
C      1  0.5181270000000  0.5956760000000  0.5310100000000 1.0
C      1  0.4979340000000  0.5427920000000  0.6176520000000 1.0
C      1  0.4647770000000  0.5600450000000  0.4410220000000 1.0
C      1  0.6001160000000  0.5493620000000  0.5040920000000 1.0
C      1  0.5956470000000  0.5573200000000  0.4768190000000 1.0
C      1  0.5434050000000  0.5936990000000  0.5161050000000 1.0
C      1  0.5334040000000  0.4938970000000  0.5917350000000 1.0
C      1  0.5405460000000  0.4579270000000  0.3999210000000 1.0
C      1  0.5508220000000  0.4793050000000  0.4675130000000 1.0
C      1  0.4481610000000  0.4101910000000  0.4671230000000 1.0
C      1  0.3886610000000  0.5336200000000  0.5257670000000 1.0
C      1  0.4336190000000  0.4403720000000  0.4323060000000 1.0
C      1  0.6022150000000  0.4986660000000  0.4628810000000 1.0
C      1  0.4481160000000  0.4460760000000  0.5381700000000 1.0
C      1  0.5433860000000  0.4623290000000  0.5109360000000 1.0
C      1  0.4493590000000  0.5398330000000  0.4945780000000 1.0
C      1  0.4050820000000  0.5472510000000  0.5454020000000 1.0
C      1  0.5717570000000  0.4915050000000  0.5395290000000 1.0
C      1  0.6110840000000  0.5221850000000  0.5059320000000 1.0
C      1  0.4913430000000  0.4757750000000  0.4040000000000 1.0
C      1  0.4755600000000  0.4609790000000  0.5779960000000 1.0
C      1  0.4504040000000  0.4590180000000  0.5650170000000 1.0
C      1  0.6013280000000  0.4903800000000  0.4350630000000 1.0
C      1  0.5486480000000  0.4739270000000  0.6059500000000 1.0
C      1  0.5475480000000  0.5958460000000  0.4887030000000 1.0
C      1  0.4532890000000  0.6111000000000  0.4934720000000 1.0
C      1  0.5604960000000  0.5024370000000  0.4866440000000 1.0
C      1  0.4869930000000  0.5008690000000  0.4795090000000 1.0
C      1  0.5352800000000  0.3588460000000  0.4903310000000 1.0
C      1  0.5280720000000  0.4337170000000  0.3915930000000 1.0
C      1  0.5017380000000  0.4535500000000  0.5388850000000 1.0
C      1  0.4079430000000  0.4880780000000  0.5292520000000 1.0
C      1  0.5057920000000  0.5811640000000  0.5816990000000 1.0
C      1  0.5720400000000  0.4478690000000  0.4356170000000 1.0
C      1  0.4100970000000  0.4834280000000  0.4295880000000 1.0
C      1  0.4424390000000  0.5015330000000  0.4625620000000 1.0
C      1  0.4806880000000  0.4468020000000  0.4066060000000 1.0
C      1  0.5410880000000  0.4802420000000  0.6330080000000 1.0
C      1  0.4943770000000  0.5308110000000  0.4076250000000 1.0
C      1  0.5118170000000  0.3999340000000  0.5010050000000 1.0
C      1  0.4750210000000  0.5510050000000  0.5006750000000 1.0
C      1  0.5864250000000  0.5661870000000  0.5232670000000 1.0
C      1  0.5236190000000  0.5892590000000  0.5597890000000 1.0
C      1  0.4686870000000  0.5124710000000  0.4586730000000 1.0
C      1  0.4899530000000  0.4512700000000  0.4557390000000 1.0
C      1  0.6083590000000  0.4713670000000  0.5083480000000 1.0
C      1  0.5772370000000  0.4895050000000  0.5680840000000 1.0
C      1  0.5550040000000  0.5598980000000  0.4497950000000 1.0
C      1  0.4795420000000  0.5673900000000  0.5230130000000 1.0
C      1  0.5758880000000  0.5146190000000  0.5820220000000 1.0
C      1  0.5565250000000  0.4525060000000  0.4586500000000 1.0
C      1  0.4205990000000  0.5040190000000  0.5764420000000 1.0
C      1  0.5086280000000  0.4336970000000  0.4664970000000 1.0
C      1  0.4856820000000  0.3992770000000  0.5398330000000 1.0
C      1  0.5371020000000  0.5409550000000  0.5807160000000 1.0
C      1  0.4325050000000  0.5481390000000  0.4713110000000 1.0
C      1  0.5684470000000  0.5103490000000  0.4015140000000 1.0
C      1  0.4256010000000  0.4755910000000  0.5698370000000 1.0
C      1  0.5532370000000  0.5838470000000  0.4656400000000 1.0
END
