TITL C-612600-6631-1429 886.656771914949 125000 -617.039102904764 0 0 101 (C1) n - 1
REM
REM in /home/nfs/bkarasulu/CARBON/AIRSS/Generating-Clusters/TERSOFF/Only-C1/FIRE-HFTN
REM
REM
REM
REM
REM
REM ./C.cell (11c1c37f851c82e70ff6c80c92926a4b)
REM AIRSS Version 0.9.1 bugfix July 2018 build 013d7b7c2542+ Fri, 06 Jul 2018 19:26:36 +0100
REM compiler GCC version 9.2.1 20190827 (Red Hat 9.2.1-1)
REM options -cpp -mtune=generic -march=x86-64 -g -O0 -fpre-include=/usr/include/finclude/math-vector-fortran.h
REM seed 743296296 -951266128 810329992 -757082298 652795888 -1564101928 222100691 196670878 -1210249303 -235002063 1160720656 -444243377 1830316427 1922146410 196847125 -1725797931 -1780055936 -1544774504 576811853 149999116 715494814 -1737430873 -40070083 -1705979880 -1433636366 898665230 -1592500202 1117390388 -1032868578 1204967963 -394278838 1737175496 1245525458
REM
CELL 1.54180   50.00000   50.00000   50.00000   90.00000   90.00000   90.00000
LATT -1
SFAC C  
C      1  0.4875650000000  0.5480750000000  0.4289650000000 1.0
C      1  0.5324010000000  0.5643520000000  0.4376900000000 1.0
C      1  0.4851380000000  0.4666700000000  0.5504570000000 1.0
C      1  0.5765620000000  0.5496540000000  0.5292870000000 1.0
C      1  0.4895950000000  0.4370600000000  0.4552480000000 1.0
C      1  0.4836850000000  0.4134230000000  0.5492540000000 1.0
C      1  0.4402490000000  0.5131970000000  0.5394460000000 1.0
C      1  0.5968820000000  0.4639560000000  0.4786970000000 1.0
C      1  0.4712370000000  0.5415160000000  0.5965900000000 1.0
C      1  0.5825460000000  0.4769420000000  0.4582420000000 1.0
C      1  0.4309010000000  0.4890670000000  0.5276410000000 1.0
C      1  0.5235220000000  0.5717330000000  0.4646590000000 1.0
C      1  0.5308230000000  0.5048370000000  0.4647110000000 1.0
C      1  0.5590740000000  0.4350710000000  0.4908410000000 1.0
C      1  0.4960420000000  0.4918630000000  0.5589320000000 1.0
C      1  0.5253810000000  0.4666040000000  0.4870340000000 1.0
C      1  0.4477500000000  0.4528610000000  0.5985390000000 1.0
C      1  0.4757560000000  0.5277520000000  0.4758040000000 1.0
C      1  0.5255270000000  0.5367950000000  0.5006740000000 1.0
C      1  0.5242820000000  0.5096820000000  0.4183030000000 1.0
C      1  0.4254220000000  0.4961590000000  0.5828110000000 1.0
C      1  0.5069560000000  0.5266880000000  0.5200470000000 1.0
C      1  0.5343000000000  0.5728120000000  0.5490280000000 1.0
C      1  0.5808650000000  0.5053100000000  0.4484300000000 1.0
C      1  0.5670990000000  0.5478370000000  0.4812740000000 1.0
C      1  0.4782960000000  0.4774280000000  0.4269200000000 1.0
C      1  0.5136110000000  0.4024720000000  0.4834830000000 1.0
C      1  0.4967990000000  0.5847880000000  0.4687100000000 1.0
C      1  0.5156970000000  0.4375480000000  0.5171460000000 1.0
C      1  0.5384620000000  0.5585890000000  0.4854990000000 1.0
C      1  0.4239860000000  0.5522430000000  0.4565980000000 1.0
C      1  0.5590460000000  0.5640110000000  0.5437870000000 1.0
C      1  0.4876620000000  0.4658390000000  0.4515000000000 1.0
C      1  0.4119060000000  0.5682870000000  0.4762910000000 1.0
C      1  0.5556370000000  0.4736820000000  0.4197120000000 1.0
C      1  0.4594720000000  0.5581390000000  0.5290280000000 1.0
C      1  0.4689030000000  0.4403170000000  0.5880080000000 1.0
C      1  0.4237750000000  0.5235840000000  0.4601850000000 1.0
C      1  0.4487310000000  0.5380600000000  0.5820770000000 1.0
C      1  0.4865790000000  0.4402040000000  0.5121330000000 1.0
C      1  0.5764860000000  0.5339500000000  0.5057630000000 1.0
C      1  0.5628670000000  0.4749940000000  0.5798230000000 1.0
C      1  0.5099750000000  0.5626810000000  0.4199470000000 1.0
C      1  0.4603110000000  0.4305100000000  0.4589280000000 1.0
C      1  0.5147080000000  0.5153640000000  0.4449220000000 1.0
C      1  0.5544900000000  0.5455280000000  0.4335330000000 1.0
C      1  0.4439090000000  0.4658500000000  0.5186650000000 1.0
C      1  0.5693660000000  0.5009050000000  0.4210210000000 1.0
C      1  0.4400840000000  0.4421540000000  0.5015950000000 1.0
C      1  0.4501220000000  0.5160540000000  0.4695780000000 1.0
C      1  0.4599450000000  0.5467870000000  0.4225830000000 1.0
C      1  0.4983610000000  0.6288860000000  0.5004280000000 1.0
C      1  0.4104780000000  0.4960780000000  0.4575880000000 1.0
C      1  0.4286800000000  0.4729840000000  0.4644210000000 1.0
C      1  0.5575340000000  0.4616010000000  0.5328910000000 1.0
C      1  0.4375390000000  0.5729810000000  0.5197640000000 1.0
C      1  0.5139500000000  0.5096300000000  0.5435240000000 1.0
C      1  0.5648070000000  0.4562600000000  0.5600300000000 1.0
C      1  0.5162700000000  0.4243900000000  0.4636410000000 1.0
C      1  0.4831040000000  0.4397780000000  0.5634470000000 1.0
C      1  0.4589660000000  0.4082180000000  0.5343070000000 1.0
C      1  0.4777670000000  0.4790730000000  0.4750620000000 1.0
C      1  0.4614250000000  0.4240580000000  0.5107190000000 1.0
C      1  0.4855810000000  0.4874030000000  0.5033630000000 1.0
C      1  0.4696570000000  0.5778450000000  0.4588170000000 1.0
C      1  0.5307140000000  0.4775930000000  0.4639440000000 1.0
C      1  0.4976360000000  0.6080280000000  0.4848240000000 1.0
C      1  0.4386720000000  0.3918800000000  0.5417080000000 1.0
C      1  0.5721610000000  0.5347470000000  0.4554650000000 1.0
C      1  0.5205580000000  0.5303290000000  0.6053120000000 1.0
C      1  0.5868810000000  0.4419100000000  0.4909580000000 1.0
C      1  0.5510860000000  0.5006430000000  0.5760900000000 1.0
C      1  0.4937420000000  0.5247980000000  0.5987700000000 1.0
C      1  0.5431330000000  0.5187280000000  0.5960750000000 1.0
C      1  0.4587960000000  0.5295660000000  0.5248660000000 1.0
C      1  0.5447590000000  0.4413400000000  0.5159460000000 1.0
C      1  0.4521680000000  0.4883550000000  0.4704320000000 1.0
C      1  0.4929180000000  0.5313480000000  0.4522230000000 1.0
C      1  0.4377270000000  0.4452900000000  0.4726510000000 1.0
C      1  0.4823180000000  0.5703370000000  0.5401590000000 1.0
C      1  0.5505720000000  0.5231520000000  0.4152260000000 1.0
C      1  0.5045530000000  0.3982700000000  0.5356280000000 1.0
C      1  0.5136720000000  0.4805040000000  0.5063000000000 1.0
C      1  0.5416760000000  0.5043060000000  0.5491110000000 1.0
C      1  0.4358740000000  0.5174440000000  0.5675530000000 1.0
C      1  0.5290130000000  0.4817400000000  0.4114630000000 1.0
C      1  0.5459840000000  0.4363080000000  0.4628400000000 1.0
C      1  0.5626070000000  0.5078460000000  0.5061430000000 1.0
C      1  0.5396150000000  0.5141170000000  0.4894900000000 1.0
C      1  0.4635030000000  0.4962320000000  0.4141990000000 1.0
C      1  0.5112570000000  0.3934470000000  0.5092680000000 1.0
C      1  0.4532200000000  0.5213070000000  0.4119250000000 1.0
C      1  0.5077030000000  0.5750650000000  0.5471470000000 1.0
C      1  0.4906220000000  0.5002740000000  0.5851220000000 1.0
C      1  0.5628020000000  0.4574100000000  0.4435080000000 1.0
C      1  0.4189190000000  0.5762030000000  0.5009080000000 1.0
C      1  0.4740810000000  0.4672400000000  0.5224830000000 1.0
C      1  0.5567390000000  0.4907090000000  0.5280980000000 1.0
C      1  0.4807560000000  0.5184940000000  0.5066070000000 1.0
C      1  0.4308010000000  0.4732280000000  0.5953470000000 1.0
C      1  0.4482600000000  0.5627440000000  0.4441740000000 1.0
END
