TITL C-612604-1799-632 0.00147446445226799 125000 -616.96491058949 0 0 101 (C1) n - 1
REM
REM in /home/nfs/bkarasulu/CARBON/AIRSS/Generating-Clusters/TERSOFF/Only-C1/FIRE-HFTN
REM
REM
REM
REM
REM
REM ./C.cell (11c1c37f851c82e70ff6c80c92926a4b)
REM AIRSS Version 0.9.1 bugfix July 2018 build 013d7b7c2542+ Fri, 06 Jul 2018 19:26:36 +0100
REM compiler GCC version 9.2.1 20190827 (Red Hat 9.2.1-1)
REM options -cpp -mtune=generic -march=x86-64 -g -O0 -fpre-include=/usr/include/finclude/math-vector-fortran.h
REM seed -1182678879 -386938675 985973644 1942420430 319240324 -1377051198 1638088753 115098475 -104157414 -1933518495 141601395 -789346308 -1391995237 -129250668 -719386784 -1072305475 -1747428091 1599530303 -696358855 -849003748 1332841496 1137621092 -1348608276 -430562781 -662143820 1972940414 -317961169 -573361563 -1729077789 1712218916 -1141539238 778120969 -356126781
REM
CELL 1.54180   50.00000   50.00000   50.00000   90.00000   90.00000   90.00000
LATT -1
SFAC C  
C      1  0.5286900000000  0.5140010000000  0.4089710000000 1.0
C      1  0.5856910000000  0.4369720000000  0.5153330000000 1.0
C      1  0.4400470000000  0.4863340000000  0.5185310000000 1.0
C      1  0.5379740000000  0.4915410000000  0.4237220000000 1.0
C      1  0.5781130000000  0.4702670000000  0.4822590000000 1.0
C      1  0.4252600000000  0.5061820000000  0.4389430000000 1.0
C      1  0.5146070000000  0.5921120000000  0.4707640000000 1.0
C      1  0.4494950000000  0.4937150000000  0.4270780000000 1.0
C      1  0.4926210000000  0.5826700000000  0.5357010000000 1.0
C      1  0.4604490000000  0.5284110000000  0.5600220000000 1.0
C      1  0.4712520000000  0.5126240000000  0.4376880000000 1.0
C      1  0.4538040000000  0.5495840000000  0.5392170000000 1.0
C      1  0.4061480000000  0.4896230000000  0.4518610000000 1.0
C      1  0.5843370000000  0.4518790000000  0.5379720000000 1.0
C      1  0.4528960000000  0.4632240000000  0.4270190000000 1.0
C      1  0.5160170000000  0.5778290000000  0.5207050000000 1.0
C      1  0.5081710000000  0.4152340000000  0.4530580000000 1.0
C      1  0.4514370000000  0.4612820000000  0.4832180000000 1.0
C      1  0.5486840000000  0.5713580000000  0.4468720000000 1.0
C      1  0.5389470000000  0.4144960000000  0.4998750000000 1.0
C      1  0.5533430000000  0.4781850000000  0.4699160000000 1.0
C      1  0.4448550000000  0.5025430000000  0.5605970000000 1.0
C      1  0.5537290000000  0.4251880000000  0.4778830000000 1.0
C      1  0.5571130000000  0.5245370000000  0.4834000000000 1.0
C      1  0.5335100000000  0.5260330000000  0.5710900000000 1.0
C      1  0.4810390000000  0.6341960000000  0.4664540000000 1.0
C      1  0.5028340000000  0.5293250000000  0.5214540000000 1.0
C      1  0.4494860000000  0.5667340000000  0.4792340000000 1.0
C      1  0.4118890000000  0.5244080000000  0.5333550000000 1.0
C      1  0.4565120000000  0.4382510000000  0.4983450000000 1.0
C      1  0.4313640000000  0.5302000000000  0.4540540000000 1.0
C      1  0.4846830000000  0.5209240000000  0.5746500000000 1.0
C      1  0.5422810000000  0.5144860000000  0.5053440000000 1.0
C      1  0.4685800000000  0.3953340000000  0.5049360000000 1.0
C      1  0.4956180000000  0.5509770000000  0.4819010000000 1.0
C      1  0.4287100000000  0.5459550000000  0.5245440000000 1.0
C      1  0.4505190000000  0.5539340000000  0.4507060000000 1.0
C      1  0.5510030000000  0.4801860000000  0.5638200000000 1.0
C      1  0.4868890000000  0.4080540000000  0.5506840000000 1.0
C      1  0.5285820000000  0.5867550000000  0.4962880000000 1.0
C      1  0.4296650000000  0.4760420000000  0.4941190000000 1.0
C      1  0.5452900000000  0.4975460000000  0.4503050000000 1.0
C      1  0.5891930000000  0.4926790000000  0.4983570000000 1.0
C      1  0.5226560000000  0.4219790000000  0.5211100000000 1.0
C      1  0.5119580000000  0.4021590000000  0.5387710000000 1.0
C      1  0.5376740000000  0.5042540000000  0.5530960000000 1.0
C      1  0.5286670000000  0.4646010000000  0.4213720000000 1.0
C      1  0.5372530000000  0.4244230000000  0.4526580000000 1.0
C      1  0.4701180000000  0.4875700000000  0.5205960000000 1.0
C      1  0.5038920000000  0.5647550000000  0.5801330000000 1.0
C      1  0.4617170000000  0.4378670000000  0.4372140000000 1.0
C      1  0.4311510000000  0.5499930000000  0.4962650000000 1.0
C      1  0.4802490000000  0.5131490000000  0.5111690000000 1.0
C      1  0.5088990000000  0.4805200000000  0.5910770000000 1.0
C      1  0.4740640000000  0.5654990000000  0.4945750000000 1.0
C      1  0.5551480000000  0.5362400000000  0.5846650000000 1.0
C      1  0.5280680000000  0.4656750000000  0.5755440000000 1.0
C      1  0.5754430000000  0.4777560000000  0.5464530000000 1.0
C      1  0.4746850000000  0.5432770000000  0.4367920000000 1.0
C      1  0.5149970000000  0.4511510000000  0.5287210000000 1.0
C      1  0.5076990000000  0.5369750000000  0.5769400000000 1.0
C      1  0.5830970000000  0.5003630000000  0.5274050000000 1.0
C      1  0.5133310000000  0.5343960000000  0.4694830000000 1.0
C      1  0.4362000000000  0.5251190000000  0.4828700000000 1.0
C      1  0.4631540000000  0.4509080000000  0.5556060000000 1.0
C      1  0.5018900000000  0.5549370000000  0.4310260000000 1.0
C      1  0.5435620000000  0.4416720000000  0.4302360000000 1.0
C      1  0.4712440000000  0.4744930000000  0.4673910000000 1.0
C      1  0.5382250000000  0.5226730000000  0.4622110000000 1.0
C      1  0.4880660000000  0.4656570000000  0.5226980000000 1.0
C      1  0.4980020000000  0.6144890000000  0.4681530000000 1.0
C      1  0.4935070000000  0.4622690000000  0.4563920000000 1.0
C      1  0.4638540000000  0.5165400000000  0.4871330000000 1.0
C      1  0.5129980000000  0.4480500000000  0.5590640000000 1.0
C      1  0.4733050000000  0.5023540000000  0.4649230000000 1.0
C      1  0.4955820000000  0.5843320000000  0.5636000000000 1.0
C      1  0.5552810000000  0.5729060000000  0.4961060000000 1.0
C      1  0.5347530000000  0.4973510000000  0.5254110000000 1.0
C      1  0.4850890000000  0.4923540000000  0.5810810000000 1.0
C      1  0.4652590000000  0.4065770000000  0.5316300000000 1.0
C      1  0.4874700000000  0.4344410000000  0.5638160000000 1.0
C      1  0.5325440000000  0.4709290000000  0.5155830000000 1.0
C      1  0.5167520000000  0.5380290000000  0.4126390000000 1.0
C      1  0.4076900000000  0.4802580000000  0.4772550000000 1.0
C      1  0.5560960000000  0.5528340000000  0.5197160000000 1.0
C      1  0.5195420000000  0.5744660000000  0.4470460000000 1.0
C      1  0.4783680000000  0.4197060000000  0.4565250000000 1.0
C      1  0.4674430000000  0.4150810000000  0.4837210000000 1.0
C      1  0.4712800000000  0.5679120000000  0.5241410000000 1.0
C      1  0.5119600000000  0.4558520000000  0.4755540000000 1.0
C      1  0.5767340000000  0.4418430000000  0.4884990000000 1.0
C      1  0.5844250000000  0.5171870000000  0.4832250000000 1.0
C      1  0.4547460000000  0.4349700000000  0.5289420000000 1.0
C      1  0.5016020000000  0.4627850000000  0.4293260000000 1.0
C      1  0.3848940000000  0.5264710000000  0.5361280000000 1.0
C      1  0.4617690000000  0.4787410000000  0.5681290000000 1.0
C      1  0.5252400000000  0.5498500000000  0.5249980000000 1.0
C      1  0.5329220000000  0.4686660000000  0.4873850000000 1.0
C      1  0.5748630000000  0.5307810000000  0.5295140000000 1.0
C      1  0.4266850000000  0.5006570000000  0.5389040000000 1.0
C      1  0.5649110000000  0.5714430000000  0.4691390000000 1.0
END
