TITL C-612602-9376-1426 0.018228766902249 125000 -270.54315110302 0 0 45 (C1) n - 1
REM
REM in /home/nfs/bkarasulu/CARBON/AIRSS/Generating-Clusters/TERSOFF/Only-C1/FIRE-HFTN
REM
REM
REM
REM
REM
REM ./C.cell (11c1c37f851c82e70ff6c80c92926a4b)
REM AIRSS Version 0.9.1 bugfix July 2018 build 013d7b7c2542+ Fri, 06 Jul 2018 19:26:36 +0100
REM compiler GCC version 9.2.1 20190827 (Red Hat 9.2.1-1)
REM options -cpp -mtune=generic -march=x86-64 -g -O0 -fpre-include=/usr/include/finclude/math-vector-fortran.h
REM seed -1160950319 -262976250 2108965691 1386999637 1692372605 -898541955 -939196441 -391542937 33470878 1160874018 2067770406 615200185 -1889018791 641547051 -582823665 -1722388885 2050134684 268732311 -937275222 1367479830 1526825403 640170563 -1851050995 329114501 680211174 2038035511 -1325173295 320713624 -2048038045 -767585525 1793252265 -1731993334 -831614638
REM
CELL 1.54180   50.00000   50.00000   50.00000   90.00000   90.00000   90.00000
LATT -1
SFAC C  
C      1  0.5020230000000  0.5420270000000  0.4644610000000 1.0
C      1  0.4877560000000  0.5236890000000  0.4480350000000 1.0
C      1  0.4127720000000  0.5060550000000  0.5082870000000 1.0
C      1  0.5341720000000  0.4451530000000  0.5089730000000 1.0
C      1  0.4821720000000  0.4604780000000  0.4558520000000 1.0
C      1  0.5194590000000  0.5387450000000  0.5531950000000 1.0
C      1  0.4686360000000  0.5496640000000  0.4955680000000 1.0
C      1  0.4836060000000  0.5614080000000  0.4746320000000 1.0
C      1  0.5691650000000  0.4844130000000  0.5143770000000 1.0
C      1  0.5690820000000  0.5112230000000  0.5144940000000 1.0
C      1  0.5147850000000  0.4559820000000  0.4912000000000 1.0
C      1  0.4117170000000  0.5129540000000  0.5355120000000 1.0
C      1  0.5671450000000  0.5097320000000  0.4327160000000 1.0
C      1  0.5034720000000  0.4430760000000  0.5463390000000 1.0
C      1  0.4828540000000  0.4807440000000  0.5347560000000 1.0
C      1  0.4301530000000  0.5193160000000  0.5538620000000 1.0
C      1  0.4834620000000  0.5492770000000  0.5207260000000 1.0
C      1  0.5469120000000  0.4949170000000  0.4412340000000 1.0
C      1  0.3905160000000  0.5057160000000  0.4925060000000 1.0
C      1  0.4474910000000  0.4719130000000  0.5003870000000 1.0
C      1  0.5872930000000  0.5254380000000  0.4256530000000 1.0
C      1  0.4657960000000  0.5092360000000  0.4591540000000 1.0
C      1  0.5088650000000  0.5042790000000  0.4964640000000 1.0
C      1  0.4546480000000  0.5194330000000  0.4842950000000 1.0
C      1  0.4908720000000  0.5031100000000  0.5204260000000 1.0
C      1  0.5199310000000  0.4881670000000  0.5702360000000 1.0
C      1  0.4632890000000  0.4815890000000  0.4529130000000 1.0
C      1  0.5124510000000  0.5515130000000  0.5280540000000 1.0
C      1  0.5580790000000  0.4600810000000  0.5119970000000 1.0
C      1  0.4874860000000  0.4496460000000  0.4827480000000 1.0
C      1  0.6070830000000  0.5410210000000  0.4189330000000 1.0
C      1  0.5258010000000  0.4820820000000  0.4536590000000 1.0
C      1  0.5235780000000  0.4306450000000  0.5307860000000 1.0
C      1  0.4765460000000  0.5247690000000  0.5330650000000 1.0
C      1  0.5171160000000  0.5302570000000  0.4861150000000 1.0
C      1  0.5220560000000  0.5148120000000  0.5658270000000 1.0
C      1  0.4808380000000  0.4528780000000  0.5307780000000 1.0
C      1  0.4565860000000  0.5230590000000  0.5524370000000 1.0
C      1  0.5567760000000  0.5350280000000  0.5119870000000 1.0
C      1  0.4683550000000  0.4520020000000  0.5041980000000 1.0
C      1  0.4385450000000  0.4994030000000  0.4979850000000 1.0
C      1  0.5063180000000  0.4655260000000  0.4407900000000 1.0
C      1  0.5307600000000  0.5448140000000  0.5065420000000 1.0
C      1  0.5204830000000  0.4825200000000  0.4819190000000 1.0
C      1  0.5130970000000  0.4622100000000  0.5659230000000 1.0
END
