TITL C-612605-9286-1200 1096.48223366139 125000 -1191.76441371459 0 0 196 (C1) n - 1
REM
REM in /home/nfs/bkarasulu/CARBON/AIRSS/Generating-Clusters/TERSOFF/Only-C1/FIRE-HFTN
REM
REM
REM
REM
REM
REM ./C.cell (11c1c37f851c82e70ff6c80c92926a4b)
REM AIRSS Version 0.9.1 bugfix July 2018 build 013d7b7c2542+ Fri, 06 Jul 2018 19:26:36 +0100
REM compiler GCC version 9.2.1 20190827 (Red Hat 9.2.1-1)
REM options -cpp -mtune=generic -march=x86-64 -g -O0 -fpre-include=/usr/include/finclude/math-vector-fortran.h
REM seed 1447571860 -1032083627 264279961 2061167860 1872552310 1723957912 -1013352333 1924162200 -988252750 -467806900 638950674 1279361052 1407013991 -1921916860 1645334271 -1612607728 1173798821 -1452197456 556203427 -1371492871 -1053888521 -1380512276 -305375265 967319069 -908973031 -423817661 -156812892 561105661 245016655 -336468496 -1294319969 -1423558664 1346689791
REM
CELL 1.54180   50.00000   50.00000   50.00000   90.00000   90.00000   90.00000
LATT -1
SFAC C  
C      1  0.4619510000000  0.4836710000000  0.3817800000000 1.0
C      1  0.4584750000000  0.4916130000000  0.6572130000000 1.0
C      1  0.5425190000000  0.4754200000000  0.3902400000000 1.0
C      1  0.4662700000000  0.6188760000000  0.4337250000000 1.0
C      1  0.4135940000000  0.4288150000000  0.5617620000000 1.0
C      1  0.5922910000000  0.5590670000000  0.4970520000000 1.0
C      1  0.5773930000000  0.5595920000000  0.5942790000000 1.0
C      1  0.3964050000000  0.4255980000000  0.5826690000000 1.0
C      1  0.6008670000000  0.4349620000000  0.5863460000000 1.0
C      1  0.5136650000000  0.4752410000000  0.3868620000000 1.0
C      1  0.5640550000000  0.4837750000000  0.5539770000000 1.0
C      1  0.4709820000000  0.5556460000000  0.3919530000000 1.0
C      1  0.5417590000000  0.5082980000000  0.6525140000000 1.0
C      1  0.5918400000000  0.5156550000000  0.4782440000000 1.0
C      1  0.6081220000000  0.4370150000000  0.3783040000000 1.0
C      1  0.5016110000000  0.6018100000000  0.5604220000000 1.0
C      1  0.5007240000000  0.4050940000000  0.5854930000000 1.0
C      1  0.5469130000000  0.6133460000000  0.4897670000000 1.0
C      1  0.5134220000000  0.6125060000000  0.4497080000000 1.0
C      1  0.4341100000000  0.3912420000000  0.4781600000000 1.0
C      1  0.5396750000000  0.5307860000000  0.5824800000000 1.0
C      1  0.3307250000000  0.4796940000000  0.4934460000000 1.0
C      1  0.5226730000000  0.4220440000000  0.4710420000000 1.0
C      1  0.5114570000000  0.4070050000000  0.4088730000000 1.0
C      1  0.5323300000000  0.5545250000000  0.4766110000000 1.0
C      1  0.5110070000000  0.5849470000000  0.4445950000000 1.0
C      1  0.5449020000000  0.5821090000000  0.5323950000000 1.0
C      1  0.5449240000000  0.4443160000000  0.5089410000000 1.0
C      1  0.5961770000000  0.4443680000000  0.5168530000000 1.0
C      1  0.5588170000000  0.4235280000000  0.6257530000000 1.0
C      1  0.3295600000000  0.5148790000000  0.5220680000000 1.0
C      1  0.5786810000000  0.4368210000000  0.5698300000000 1.0
C      1  0.5850870000000  0.4911620000000  0.6009410000000 1.0
C      1  0.5983630000000  0.4525900000000  0.3973780000000 1.0
C      1  0.3887380000000  0.4004340000000  0.4662560000000 1.0
C      1  0.6164010000000  0.4211180000000  0.3587790000000 1.0
C      1  0.4372890000000  0.6276910000000  0.5007390000000 1.0
C      1  0.5237920000000  0.5323100000000  0.4173950000000 1.0
C      1  0.5024180000000  0.4742500000000  0.4132460000000 1.0
C      1  0.4524050000000  0.5696190000000  0.6035770000000 1.0
C      1  0.5511620000000  0.4977880000000  0.5330430000000 1.0
C      1  0.3920240000000  0.4209040000000  0.4487860000000 1.0
C      1  0.5128150000000  0.3866330000000  0.5434260000000 1.0
C      1  0.5746230000000  0.5146940000000  0.6130130000000 1.0
C      1  0.4370240000000  0.5759750000000  0.4176990000000 1.0
C      1  0.5882200000000  0.4656880000000  0.4198550000000 1.0
C      1  0.4430210000000  0.6270940000000  0.5284230000000 1.0
C      1  0.4901830000000  0.4983440000000  0.4196090000000 1.0
C      1  0.4568840000000  0.5353800000000  0.5576340000000 1.0
C      1  0.4058130000000  0.4133230000000  0.5090430000000 1.0
C      1  0.5088510000000  0.5770990000000  0.4172360000000 1.0
C      1  0.4137750000000  0.6231470000000  0.4826990000000 1.0
C      1  0.5559530000000  0.4177230000000  0.5074060000000 1.0
C      1  0.5000320000000  0.5139470000000  0.5641610000000 1.0
C      1  0.5190710000000  0.5111200000000  0.5874410000000 1.0
C      1  0.4438830000000  0.4465430000000  0.5056260000000 1.0
C      1  0.5438040000000  0.4697820000000  0.4683870000000 1.0
C      1  0.5108440000000  0.4889010000000  0.6033670000000 1.0
C      1  0.4877470000000  0.5341740000000  0.3847220000000 1.0
C      1  0.5068710000000  0.5278090000000  0.5045750000000 1.0
C      1  0.4901480000000  0.4881680000000  0.3711350000000 1.0
C      1  0.4670960000000  0.4376360000000  0.5263160000000 1.0
C      1  0.4461050000000  0.4590360000000  0.4788120000000 1.0
C      1  0.4626270000000  0.5270240000000  0.5295700000000 1.0
C      1  0.4718790000000  0.4605540000000  0.5467890000000 1.0
C      1  0.5999240000000  0.4537630000000  0.4666900000000 1.0
C      1  0.3814110000000  0.4795050000000  0.4823500000000 1.0
C      1  0.4479230000000  0.5741390000000  0.5316660000000 1.0
C      1  0.4228200000000  0.5016560000000  0.5479700000000 1.0
C      1  0.5220480000000  0.4345310000000  0.5536070000000 1.0
C      1  0.4779410000000  0.4664670000000  0.5749820000000 1.0
C      1  0.4538660000000  0.4565490000000  0.3830140000000 1.0
C      1  0.4983760000000  0.4672910000000  0.4814360000000 1.0
C      1  0.5328280000000  0.5346720000000  0.4965730000000 1.0
C      1  0.4360200000000  0.4120720000000  0.5577990000000 1.0
C      1  0.5338880000000  0.4295960000000  0.4450270000000 1.0
C      1  0.5499650000000  0.5538560000000  0.5374330000000 1.0
C      1  0.5586360000000  0.4613820000000  0.4908970000000 1.0
C      1  0.4853620000000  0.5477670000000  0.4639510000000 1.0
C      1  0.3908600000000  0.5711420000000  0.5712980000000 1.0
C      1  0.4569410000000  0.6205010000000  0.5507330000000 1.0
C      1  0.5562170000000  0.5291150000000  0.5164000000000 1.0
C      1  0.4523100000000  0.4980620000000  0.6095560000000 1.0
C      1  0.4816170000000  0.4818390000000  0.5299470000000 1.0
C      1  0.5302520000000  0.5590600000000  0.4110590000000 1.0
C      1  0.5133970000000  0.5074030000000  0.4581630000000 1.0
C      1  0.4877560000000  0.5931000000000  0.5041130000000 1.0
C      1  0.3945410000000  0.5058800000000  0.4362380000000 1.0
C      1  0.5758380000000  0.4149380000000  0.5517820000000 1.0
C      1  0.5645280000000  0.5133970000000  0.6393490000000 1.0
C      1  0.4998610000000  0.5223430000000  0.4075280000000 1.0
C      1  0.3584700000000  0.4893070000000  0.4950640000000 1.0
C      1  0.5622690000000  0.4500020000000  0.6227170000000 1.0
C      1  0.4902000000000  0.5356190000000  0.5252420000000 1.0
C      1  0.5249700000000  0.5944920000000  0.5492290000000 1.0
C      1  0.5574750000000  0.3981850000000  0.4173140000000 1.0
C      1  0.3991050000000  0.5994120000000  0.4783360000000 1.0
C      1  0.5716160000000  0.4861880000000  0.3464840000000 1.0
C      1  0.4490770000000  0.4104500000000  0.4664580000000 1.0
C      1  0.6494530000000  0.4870910000000  0.5069050000000 1.0
C      1  0.5895070000000  0.5824790000000  0.5913520000000 1.0
C      1  0.4607260000000  0.5942400000000  0.4191100000000 1.0
C      1  0.5954520000000  0.5753990000000  0.4759640000000 1.0
C      1  0.5161960000000  0.5009470000000  0.6492910000000 1.0
C      1  0.4741980000000  0.6049930000000  0.5676640000000 1.0
C      1  0.5266380000000  0.4839600000000  0.5314070000000 1.0
C      1  0.4597290000000  0.5584880000000  0.4670480000000 1.0
C      1  0.4131020000000  0.4376110000000  0.4469550000000 1.0
C      1  0.6047080000000  0.4688970000000  0.4432930000000 1.0
C      1  0.4336770000000  0.5061670000000  0.4958920000000 1.0
C      1  0.4632790000000  0.4980810000000  0.4282780000000 1.0
C      1  0.4334150000000  0.5191050000000  0.6011300000000 1.0
C      1  0.5824660000000  0.5324430000000  0.4999540000000 1.0
C      1  0.4351750000000  0.5510480000000  0.4743860000000 1.0
C      1  0.5219130000000  0.4480850000000  0.5267060000000 1.0
C      1  0.5869670000000  0.4559130000000  0.4915070000000 1.0
C      1  0.4149700000000  0.5637070000000  0.5647270000000 1.0
C      1  0.5900770000000  0.5802600000000  0.4502620000000 1.0
C      1  0.5038660000000  0.4940440000000  0.5418750000000 1.0
C      1  0.4102380000000  0.4492740000000  0.5422000000000 1.0
C      1  0.4960750000000  0.4354850000000  0.5131690000000 1.0
C      1  0.5589420000000  0.3995680000000  0.6136860000000 1.0
C      1  0.4077140000000  0.5196920000000  0.4173860000000 1.0
C      1  0.4075560000000  0.3958480000000  0.4870420000000 1.0
C      1  0.5056460000000  0.4654100000000  0.5869560000000 1.0
C      1  0.6205820000000  0.4918760000000  0.4483940000000 1.0
C      1  0.4693790000000  0.4945690000000  0.6322380000000 1.0
C      1  0.5671310000000  0.4689170000000  0.6023790000000 1.0
C      1  0.5528980000000  0.5974200000000  0.5103450000000 1.0
C      1  0.5175620000000  0.3735700000000  0.5206910000000 1.0
C      1  0.4212310000000  0.5134630000000  0.5748630000000 1.0
C      1  0.4935970000000  0.6271000000000  0.4361020000000 1.0
C      1  0.5320650000000  0.6206680000000  0.4688060000000 1.0
C      1  0.4640830000000  0.4901670000000  0.5847300000000 1.0
C      1  0.5330670000000  0.5448780000000  0.5581570000000 1.0
C      1  0.6242680000000  0.4053720000000  0.3395490000000 1.0
C      1  0.4982380000000  0.4937330000000  0.6287610000000 1.0
C      1  0.3966350000000  0.4599370000000  0.4958490000000 1.0
C      1  0.4630790000000  0.5022290000000  0.4565100000000 1.0
C      1  0.5585080000000  0.4740940000000  0.4212830000000 1.0
C      1  0.5287030000000  0.4526300000000  0.5745550000000 1.0
C      1  0.4831740000000  0.4795710000000  0.5020120000000 1.0
C      1  0.5059450000000  0.5397410000000  0.5494750000000 1.0
C      1  0.4226410000000  0.5295960000000  0.4843320000000 1.0
C      1  0.6397000000000  0.4662570000000  0.5205390000000 1.0
C      1  0.5639410000000  0.5352110000000  0.5963450000000 1.0
C      1  0.5584290000000  0.4605390000000  0.5745490000000 1.0
C      1  0.6110750000000  0.4748820000000  0.5573820000000 1.0
C      1  0.6049020000000  0.4882570000000  0.5803370000000 1.0
C      1  0.5567000000000  0.5683070000000  0.4120850000000 1.0
C      1  0.4138230000000  0.5791320000000  0.4333260000000 1.0
C      1  0.5325840000000  0.5161500000000  0.4383670000000 1.0
C      1  0.4399350000000  0.5460550000000  0.6083440000000 1.0
C      1  0.4501640000000  0.6312850000000  0.4533200000000 1.0
C      1  0.4400970000000  0.5584810000000  0.5537660000000 1.0
C      1  0.5459440000000  0.4556500000000  0.4431910000000 1.0
C      1  0.5751040000000  0.5111380000000  0.4560900000000 1.0
C      1  0.5386170000000  0.4041330000000  0.4884940000000 1.0
C      1  0.4219780000000  0.6345050000000  0.4567910000000 1.0
C      1  0.5628070000000  0.3862850000000  0.5906570000000 1.0
C      1  0.5588210000000  0.4797790000000  0.3682690000000 1.0
C      1  0.4870400000000  0.5191340000000  0.4621700000000 1.0
C      1  0.4138600000000  0.4418520000000  0.5134480000000 1.0
C      1  0.4826060000000  0.5787340000000  0.4057560000000 1.0
C      1  0.5189570000000  0.4828330000000  0.4706260000000 1.0
C      1  0.4423370000000  0.4384760000000  0.4560660000000 1.0
C      1  0.4661770000000  0.5827390000000  0.5143970000000 1.0
C      1  0.5797190000000  0.4205890000000  0.5242540000000 1.0
C      1  0.4396040000000  0.5095290000000  0.5239510000000 1.0
C      1  0.5019660000000  0.4385110000000  0.4842060000000 1.0
C      1  0.5770350000000  0.5765410000000  0.4272960000000 1.0
C      1  0.5282810000000  0.3793830000000  0.4967960000000 1.0
C      1  0.3999040000000  0.5845320000000  0.4556820000000 1.0
C      1  0.4556010000000  0.4403100000000  0.4042090000000 1.0
C      1  0.5119620000000  0.4087070000000  0.5606630000000 1.0
C      1  0.4321060000000  0.5247490000000  0.4038210000000 1.0
C      1  0.5571550000000  0.5028030000000  0.4364540000000 1.0
C      1  0.6151030000000  0.4599550000000  0.5330250000000 1.0
C      1  0.6187360000000  0.5075340000000  0.4723580000000 1.0
C      1  0.4716920000000  0.5151450000000  0.5721040000000 1.0
C      1  0.4574600000000  0.4137400000000  0.5414960000000 1.0
C      1  0.4636940000000  0.5896990000000  0.5894290000000 1.0
C      1  0.4590130000000  0.6323720000000  0.4813500000000 1.0
C      1  0.5342420000000  0.4113610000000  0.4233970000000 1.0
C      1  0.4097850000000  0.4767060000000  0.5468720000000 1.0
C      1  0.4493750000000  0.5014500000000  0.4028310000000 1.0
C      1  0.4468310000000  0.4884250000000  0.4764250000000 1.0
C      1  0.4914000000000  0.5160590000000  0.3630930000000 1.0
C      1  0.3141040000000  0.4952760000000  0.5096900000000 1.0
C      1  0.6397920000000  0.5058950000000  0.4905470000000 1.0
C      1  0.3884180000000  0.4904410000000  0.4572390000000 1.0
C      1  0.4575440000000  0.4411300000000  0.4307900000000 1.0
C      1  0.5092570000000  0.5638120000000  0.4630350000000 1.0
C      1  0.5692810000000  0.3908170000000  0.5648430000000 1.0
C      1  0.4435930000000  0.5514460000000  0.4020310000000 1.0
C      1  0.3561170000000  0.5118980000000  0.5137760000000 1.0
END
