TITL C-612607-4507-1135 0.00107245047853545 125000 -505.080683108879 0 0 84 (C1) n - 1
REM
REM in /home/nfs/bkarasulu/CARBON/AIRSS/Generating-Clusters/TERSOFF/Only-C1/FIRE-HFTN
REM
REM
REM
REM
REM
REM ./C.cell (11c1c37f851c82e70ff6c80c92926a4b)
REM AIRSS Version 0.9.1 bugfix July 2018 build 013d7b7c2542+ Fri, 06 Jul 2018 19:26:36 +0100
REM compiler GCC version 9.2.1 20190827 (Red Hat 9.2.1-1)
REM options -cpp -mtune=generic -march=x86-64 -g -O0 -fpre-include=/usr/include/finclude/math-vector-fortran.h
REM seed 1291296314 -324907798 1754588619 2057683646 857651687 420149597 125966060 331001171 -1784745557 822114632 1496314696 -436322269 -1106807845 -1457583496 1448963181 402016627 1869575415 71855256 990951773 -948932718 658060728 -670007586 47566058 514541628 1218271939 -579722699 -922462114 977497143 1750626467 1797222713 -2101633864 868196248 110797484
REM
CELL 1.54180   50.00000   50.00000   50.00000   90.00000   90.00000   90.00000
LATT -1
SFAC C  
C      1  0.5771200000000  0.5316370000000  0.4451510000000 1.0
C      1  0.5046470000000  0.5245280000000  0.4910870000000 1.0
C      1  0.4701520000000  0.4219680000000  0.4744010000000 1.0
C      1  0.4705760000000  0.5732760000000  0.4886620000000 1.0
C      1  0.4481730000000  0.5579480000000  0.4753380000000 1.0
C      1  0.5176970000000  0.4719980000000  0.4868440000000 1.0
C      1  0.4847820000000  0.5121530000000  0.4745060000000 1.0
C      1  0.4925270000000  0.4661940000000  0.5743570000000 1.0
C      1  0.4256300000000  0.5182350000000  0.5333400000000 1.0
C      1  0.5851780000000  0.5039310000000  0.4783200000000 1.0
C      1  0.5331900000000  0.5281650000000  0.5850130000000 1.0
C      1  0.5271430000000  0.4983520000000  0.5339170000000 1.0
C      1  0.5150030000000  0.5353470000000  0.4351880000000 1.0
C      1  0.4676900000000  0.4680340000000  0.4922630000000 1.0
C      1  0.5799270000000  0.5215090000000  0.5270350000000 1.0
C      1  0.4724500000000  0.4657900000000  0.5524540000000 1.0
C      1  0.5501260000000  0.5423560000000  0.5669120000000 1.0
C      1  0.4699790000000  0.5487360000000  0.4298970000000 1.0
C      1  0.5531690000000  0.5562620000000  0.4920450000000 1.0
C      1  0.4631500000000  0.5892540000000  0.5101390000000 1.0
C      1  0.5385490000000  0.4931820000000  0.4901770000000 1.0
C      1  0.4470830000000  0.5544350000000  0.4464130000000 1.0
C      1  0.4483030000000  0.5037070000000  0.4200910000000 1.0
C      1  0.5545360000000  0.5582670000000  0.5436320000000 1.0
C      1  0.5786980000000  0.5029700000000  0.4503450000000 1.0
C      1  0.3946130000000  0.3953190000000  0.4897100000000 1.0
C      1  0.5116310000000  0.4450880000000  0.5699220000000 1.0
C      1  0.5076630000000  0.5426360000000  0.5907860000000 1.0
C      1  0.4838920000000  0.5361860000000  0.5751530000000 1.0
C      1  0.4218740000000  0.4402620000000  0.4771480000000 1.0
C      1  0.4511180000000  0.4537070000000  0.4406240000000 1.0
C      1  0.5743570000000  0.4852120000000  0.5619340000000 1.0
C      1  0.4270990000000  0.4936820000000  0.5475820000000 1.0
C      1  0.4935390000000  0.4635270000000  0.5035820000000 1.0
C      1  0.5256180000000  0.5702000000000  0.4930030000000 1.0
C      1  0.4074890000000  0.4171340000000  0.4835890000000 1.0
C      1  0.4953000000000  0.4958470000000  0.4524410000000 1.0
C      1  0.4935090000000  0.4141480000000  0.4865340000000 1.0
C      1  0.5659720000000  0.4926090000000  0.4952790000000 1.0
C      1  0.4496920000000  0.4760920000000  0.4258640000000 1.0
C      1  0.5377560000000  0.4700820000000  0.4407990000000 1.0
C      1  0.4172110000000  0.5179730000000  0.5048470000000 1.0
C      1  0.5511050000000  0.5854210000000  0.5446050000000 1.0
C      1  0.4668440000000  0.5294810000000  0.5155080000000 1.0
C      1  0.4233250000000  0.5426140000000  0.4356740000000 1.0
C      1  0.4873880000000  0.4531410000000  0.5302460000000 1.0
C      1  0.4968520000000  0.5582860000000  0.4342270000000 1.0
C      1  0.5853010000000  0.4533230000000  0.4946800000000 1.0
C      1  0.5795190000000  0.4748970000000  0.5133700000000 1.0
C      1  0.5357230000000  0.4741810000000  0.5304400000000 1.0
C      1  0.4240520000000  0.5182480000000  0.4235250000000 1.0
C      1  0.4927160000000  0.5119950000000  0.5628870000000 1.0
C      1  0.5289130000000  0.5180800000000  0.4803720000000 1.0
C      1  0.4991860000000  0.5754730000000  0.4803210000000 1.0
C      1  0.5337160000000  0.4596730000000  0.4155610000000 1.0
C      1  0.4602840000000  0.5450440000000  0.5618030000000 1.0
C      1  0.5780230000000  0.4557510000000  0.4676340000000 1.0
C      1  0.4267330000000  0.5422970000000  0.4897450000000 1.0
C      1  0.4211310000000  0.4908110000000  0.4926230000000 1.0
C      1  0.4495090000000  0.4888960000000  0.4919710000000 1.0
C      1  0.4105110000000  0.4660010000000  0.4840260000000 1.0
C      1  0.5828260000000  0.4932330000000  0.5360150000000 1.0
C      1  0.5407710000000  0.4491750000000  0.5689180000000 1.0
C      1  0.4976150000000  0.5120570000000  0.4293230000000 1.0
C      1  0.5034790000000  0.4915300000000  0.5794740000000 1.0
C      1  0.5139600000000  0.4744080000000  0.4577140000000 1.0
C      1  0.5316200000000  0.4977070000000  0.5849620000000 1.0
C      1  0.4715100000000  0.5206390000000  0.4199560000000 1.0
C      1  0.5640380000000  0.5451760000000  0.5192690000000 1.0
C      1  0.4622160000000  0.5133240000000  0.4913030000000 1.0
C      1  0.5014220000000  0.5791980000000  0.4521230000000 1.0
C      1  0.5655520000000  0.4755680000000  0.4488690000000 1.0
C      1  0.5482280000000  0.4301450000000  0.5460270000000 1.0
C      1  0.5058960000000  0.5152230000000  0.5382510000000 1.0
C      1  0.4952580000000  0.5295680000000  0.5171550000000 1.0
C      1  0.5507110000000  0.4765620000000  0.5757140000000 1.0
C      1  0.4491970000000  0.5345810000000  0.5372800000000 1.0
C      1  0.5339100000000  0.5329270000000  0.4563890000000 1.0
C      1  0.4477340000000  0.4372990000000  0.4636930000000 1.0
C      1  0.4462630000000  0.4755450000000  0.5529870000000 1.0
C      1  0.5036400000000  0.4337920000000  0.5437220000000 1.0
C      1  0.5591380000000  0.5465140000000  0.4628830000000 1.0
C      1  0.5153080000000  0.4128080000000  0.5033730000000 1.0
C      1  0.5250650000000  0.4214660000000  0.5290560000000 1.0
END
