TITL C-612607-4507-586 -0.0478075242480134 125000 -929.874625943015 0 0 151 (C1) n - 1
REM
REM in /home/nfs/bkarasulu/CARBON/AIRSS/Generating-Clusters/TERSOFF/Only-C1/FIRE-HFTN
REM
REM
REM
REM
REM
REM ./C.cell (11c1c37f851c82e70ff6c80c92926a4b)
REM AIRSS Version 0.9.1 bugfix July 2018 build 013d7b7c2542+ Fri, 06 Jul 2018 19:26:36 +0100
REM compiler GCC version 9.2.1 20190827 (Red Hat 9.2.1-1)
REM options -cpp -mtune=generic -march=x86-64 -g -O0 -fpre-include=/usr/include/finclude/math-vector-fortran.h
REM seed -1909645524 -2143754961 -955036196 -1040447459 -1193156359 1928745205 -1783461734 1961340865 -179628524 50616816 920892547 -314432643 1370188045 -1209622015 -1552454353 1837797252 -1523251552 -582147641 102717454 387611472 7317609 1222609920 1853902951 -139487437 -1947197233 -2022397503 145017088 98493997 -501559470 -1053241134 250596042 764821356 -566962074
REM
CELL 1.54180   50.00000   50.00000   50.00000   90.00000   90.00000   90.00000
LATT -1
SFAC C  
C      1  0.5406140000000  0.5350000000000  0.5818620000000 1.0
C      1  0.3873830000000  0.4863190000000  0.5915190000000 1.0
C      1  0.4440640000000  0.5854190000000  0.4599950000000 1.0
C      1  0.4172430000000  0.5534130000000  0.5918680000000 1.0
C      1  0.3880460000000  0.5114810000000  0.6001020000000 1.0
C      1  0.5044480000000  0.4655870000000  0.4584810000000 1.0
C      1  0.4349090000000  0.4679140000000  0.4772180000000 1.0
C      1  0.4969270000000  0.5507970000000  0.5266660000000 1.0
C      1  0.5712050000000  0.4815310000000  0.4791070000000 1.0
C      1  0.5991530000000  0.4208050000000  0.4958960000000 1.0
C      1  0.4227690000000  0.4345560000000  0.4451960000000 1.0
C      1  0.5054690000000  0.4433130000000  0.6021580000000 1.0
C      1  0.5616160000000  0.5663100000000  0.5453170000000 1.0
C      1  0.4527760000000  0.4748840000000  0.4210350000000 1.0
C      1  0.5319950000000  0.4890760000000  0.6054760000000 1.0
C      1  0.3976780000000  0.4678800000000  0.5753350000000 1.0
C      1  0.4316880000000  0.5108900000000  0.3982490000000 1.0
C      1  0.3944930000000  0.4236190000000  0.5070630000000 1.0
C      1  0.4883910000000  0.5554060000000  0.4772490000000 1.0
C      1  0.4907860000000  0.4373730000000  0.5753760000000 1.0
C      1  0.4997740000000  0.5434330000000  0.3914900000000 1.0
C      1  0.4580150000000  0.4539840000000  0.4634060000000 1.0
C      1  0.5124450000000  0.4378760000000  0.5192410000000 1.0
C      1  0.4123520000000  0.4500460000000  0.4697700000000 1.0
C      1  0.4964310000000  0.5171520000000  0.5930140000000 1.0
C      1  0.5292180000000  0.4904950000000  0.5381080000000 1.0
C      1  0.5274000000000  0.4460390000000  0.4031380000000 1.0
C      1  0.4478460000000  0.4807720000000  0.4995740000000 1.0
C      1  0.5295460000000  0.4444770000000  0.4983670000000 1.0
C      1  0.5032660000000  0.5682390000000  0.4046190000000 1.0
C      1  0.4513250000000  0.4902520000000  0.3960430000000 1.0
C      1  0.6189980000000  0.5559900000000  0.4742260000000 1.0
C      1  0.5010540000000  0.4611310000000  0.5602180000000 1.0
C      1  0.5201440000000  0.4136930000000  0.4359520000000 1.0
C      1  0.5217200000000  0.4641160000000  0.6094750000000 1.0
C      1  0.5716980000000  0.4941890000000  0.5068810000000 1.0
C      1  0.5567970000000  0.4413250000000  0.5047830000000 1.0
C      1  0.5074990000000  0.5991250000000  0.5680920000000 1.0
C      1  0.4888760000000  0.6123340000000  0.5543370000000 1.0
C      1  0.4376260000000  0.5848540000000  0.5100770000000 1.0
C      1  0.4464910000000  0.5559330000000  0.5535170000000 1.0
C      1  0.3977090000000  0.5110610000000  0.4700200000000 1.0
C      1  0.4990860000000  0.5006610000000  0.5339920000000 1.0
C      1  0.4606350000000  0.4358020000000  0.5782750000000 1.0
C      1  0.4151070000000  0.4127810000000  0.5205420000000 1.0
C      1  0.4942590000000  0.5447290000000  0.4538960000000 1.0
C      1  0.5668220000000  0.4971960000000  0.4331240000000 1.0
C      1  0.4913810000000  0.4332590000000  0.3714120000000 1.0
C      1  0.5581610000000  0.4984050000000  0.4602110000000 1.0
C      1  0.4698500000000  0.6161110000000  0.5360500000000 1.0
C      1  0.4862030000000  0.4849820000000  0.5569240000000 1.0
C      1  0.5248100000000  0.5148580000000  0.5950470000000 1.0
C      1  0.5547980000000  0.5880700000000  0.5249620000000 1.0
C      1  0.5618000000000  0.5436510000000  0.4290710000000 1.0
C      1  0.4927850000000  0.5611570000000  0.5026160000000 1.0
C      1  0.5173730000000  0.4439540000000  0.4725470000000 1.0
C      1  0.4417660000000  0.4157490000000  0.5190340000000 1.0
C      1  0.5969110000000  0.5509720000000  0.4601570000000 1.0
C      1  0.4283620000000  0.5447550000000  0.4861650000000 1.0
C      1  0.6267990000000  0.5215840000000  0.5843320000000 1.0
C      1  0.4349850000000  0.5731040000000  0.4833360000000 1.0
C      1  0.5503110000000  0.4463290000000  0.5524820000000 1.0
C      1  0.4472280000000  0.4034740000000  0.4741610000000 1.0
C      1  0.6052600000000  0.4248970000000  0.5237670000000 1.0
C      1  0.5342690000000  0.5445110000000  0.4253980000000 1.0
C      1  0.5443780000000  0.5312630000000  0.5207400000000 1.0
C      1  0.5166880000000  0.4966530000000  0.4044630000000 1.0
C      1  0.4990890000000  0.4151510000000  0.5298110000000 1.0
C      1  0.4863590000000  0.5278540000000  0.5383540000000 1.0
C      1  0.4412660000000  0.4501270000000  0.5629020000000 1.0
C      1  0.4572440000000  0.5799050000000  0.5950430000000 1.0
C      1  0.5951910000000  0.5007910000000  0.5229370000000 1.0
C      1  0.5049780000000  0.4304520000000  0.3947300000000 1.0
C      1  0.5113080000000  0.5877350000000  0.4263010000000 1.0
C      1  0.4925660000000  0.5982440000000  0.4460620000000 1.0
C      1  0.4956100000000  0.4915440000000  0.5048870000000 1.0
C      1  0.5084870000000  0.5047040000000  0.4309680000000 1.0
C      1  0.4912200000000  0.4884640000000  0.4463850000000 1.0
C      1  0.4796120000000  0.5005570000000  0.5797390000000 1.0
C      1  0.4516880000000  0.6074060000000  0.5185120000000 1.0
C      1  0.5484390000000  0.5034550000000  0.5222200000000 1.0
C      1  0.4511610000000  0.4184640000000  0.5975850000000 1.0
C      1  0.6132880000000  0.5233120000000  0.5621150000000 1.0
C      1  0.5521750000000  0.4195080000000  0.5637100000000 1.0
C      1  0.4989480000000  0.5134200000000  0.3876550000000 1.0
C      1  0.6082100000000  0.4768140000000  0.5313860000000 1.0
C      1  0.3892110000000  0.4956590000000  0.4923130000000 1.0
C      1  0.3947800000000  0.4476510000000  0.4924510000000 1.0
C      1  0.5674010000000  0.4495400000000  0.5301510000000 1.0
C      1  0.4322250000000  0.5644270000000  0.5296410000000 1.0
C      1  0.4389570000000  0.5177870000000  0.5283120000000 1.0
C      1  0.5386010000000  0.5937720000000  0.4345410000000 1.0
C      1  0.4721000000000  0.4449590000000  0.4872780000000 1.0
C      1  0.5701130000000  0.5973610000000  0.4782160000000 1.0
C      1  0.5138890000000  0.4165750000000  0.4632110000000 1.0
C      1  0.4748710000000  0.3979660000000  0.4178090000000 1.0
C      1  0.5969270000000  0.5704630000000  0.5143320000000 1.0
C      1  0.5310180000000  0.6005560000000  0.5157970000000 1.0
C      1  0.4805610000000  0.6068580000000  0.6336970000000 1.0
C      1  0.5765070000000  0.4341070000000  0.4848340000000 1.0
C      1  0.5046030000000  0.3981140000000  0.4828920000000 1.0
C      1  0.4877580000000  0.4029320000000  0.5058110000000 1.0
C      1  0.5147410000000  0.5036630000000  0.4860880000000 1.0
C      1  0.5155810000000  0.6081020000000  0.4949370000000 1.0
C      1  0.4995060000000  0.4109200000000  0.4154830000000 1.0
C      1  0.4417920000000  0.5160240000000  0.4464030000000 1.0
C      1  0.4344620000000  0.4914680000000  0.5214080000000 1.0
C      1  0.5764230000000  0.5888520000000  0.5048930000000 1.0
C      1  0.3799150000000  0.5152200000000  0.4495020000000 1.0
C      1  0.4752920000000  0.4713760000000  0.5012910000000 1.0
C      1  0.4351330000000  0.4080840000000  0.4487850000000 1.0
C      1  0.5117570000000  0.5320120000000  0.4366480000000 1.0
C      1  0.4622170000000  0.4167610000000  0.4973080000000 1.0
C      1  0.5035810000000  0.6080770000000  0.4707890000000 1.0
C      1  0.4404880000000  0.5635610000000  0.5799100000000 1.0
C      1  0.3991260000000  0.5356250000000  0.5995810000000 1.0
C      1  0.5278890000000  0.4056400000000  0.5677340000000 1.0
C      1  0.5734400000000  0.4546450000000  0.4652280000000 1.0
C      1  0.5768230000000  0.4057320000000  0.5601270000000 1.0
C      1  0.4464480000000  0.4514390000000  0.4367710000000 1.0
C      1  0.4126620000000  0.4752930000000  0.5299440000000 1.0
C      1  0.4746400000000  0.4991580000000  0.3819530000000 1.0
C      1  0.4647570000000  0.5942500000000  0.4455290000000 1.0
C      1  0.5020540000000  0.4137660000000  0.5586990000000 1.0
C      1  0.5255280000000  0.5803580000000  0.5738240000000 1.0
C      1  0.4165660000000  0.4625000000000  0.5553180000000 1.0
C      1  0.6199110000000  0.5652920000000  0.4993860000000 1.0
C      1  0.5609670000000  0.4500200000000  0.4382940000000 1.0
C      1  0.5566550000000  0.5984490000000  0.4545150000000 1.0
C      1  0.4587350000000  0.5300660000000  0.5457920000000 1.0
C      1  0.4267100000000  0.5395490000000  0.5144110000000 1.0
C      1  0.4688860000000  0.5935750000000  0.6145440000000 1.0
C      1  0.5983220000000  0.4056040000000  0.5435130000000 1.0
C      1  0.4241130000000  0.5231380000000  0.4683350000000 1.0
C      1  0.5740710000000  0.5203500000000  0.4192520000000 1.0
C      1  0.3935790000000  0.4722310000000  0.5080240000000 1.0
C      1  0.5693710000000  0.5488170000000  0.4560440000000 1.0
C      1  0.5289960000000  0.4652820000000  0.5532480000000 1.0
C      1  0.4497300000000  0.3970980000000  0.4271490000000 1.0
C      1  0.5345840000000  0.4739980000000  0.4036160000000 1.0
C      1  0.5963450000000  0.4513500000000  0.5317230000000 1.0
C      1  0.5863390000000  0.5524720000000  0.5349260000000 1.0
C      1  0.5409110000000  0.4321590000000  0.4265120000000 1.0
C      1  0.5586280000000  0.4738380000000  0.4207820000000 1.0
C      1  0.5490190000000  0.5410070000000  0.4748930000000 1.0
C      1  0.5379240000000  0.5144420000000  0.4715550000000 1.0
C      1  0.5975300000000  0.5257880000000  0.5387570000000 1.0
C      1  0.4626280000000  0.4947740000000  0.4420420000000 1.0
C      1  0.5454610000000  0.5492520000000  0.5009730000000 1.0
C      1  0.5441120000000  0.5598640000000  0.5675580000000 1.0
C      1  0.4313810000000  0.5254330000000  0.4211940000000 1.0
END
