TITL C-612607-4507-1144 0.000105686051966127 125000 -122.025331062205 0 0 22 (C1) n - 1
REM
REM in /home/nfs/bkarasulu/CARBON/AIRSS/Generating-Clusters/TERSOFF/Only-C1/FIRE-HFTN
REM
REM
REM
REM
REM
REM ./C.cell (11c1c37f851c82e70ff6c80c92926a4b)
REM AIRSS Version 0.9.1 bugfix July 2018 build 013d7b7c2542+ Fri, 06 Jul 2018 19:26:36 +0100
REM compiler GCC version 9.2.1 20190827 (Red Hat 9.2.1-1)
REM options -cpp -mtune=generic -march=x86-64 -g -O0 -fpre-include=/usr/include/finclude/math-vector-fortran.h
REM seed -1384540940 -1346526949 -1531612930 525698363 1924427050 -829600294 -1480908226 -225829787 -1051075621 -1594124981 -1806492506 -442366232 413667531 1983436202 -597684857 622643863 1371858097 1869488902 -1278254601 -2103990705 -1294895031 197665463 -1298980129 -1133277829 1573879378 -882376604 99038175 1063797579 -245233082 -1466410022 -1807435890 -836737640 1859178651
REM
CELL 1.54180   50.00000   50.00000   50.00000   90.00000   90.00000   90.00000
LATT -1
SFAC C  
C      1  0.5425490000000  0.5048330000000  0.5707630000000 1.0
C      1  0.5109410000000  0.5000430000000  0.5346450000000 1.0
C      1  0.5291800000000  0.4916700000000  0.4254340000000 1.0
C      1  0.4523820000000  0.5155220000000  0.5125090000000 1.0
C      1  0.4842470000000  0.4925110000000  0.5402360000000 1.0
C      1  0.5443630000000  0.4658690000000  0.5427160000000 1.0
C      1  0.4707530000000  0.5299760000000  0.4966910000000 1.0
C      1  0.4644640000000  0.5199060000000  0.4448500000000 1.0
C      1  0.5548300000000  0.4432670000000  0.5350490000000 1.0
C      1  0.4940120000000  0.5383890000000  0.5110480000000 1.0
C      1  0.4363700000000  0.4836810000000  0.5462760000000 1.0
C      1  0.5048710000000  0.5108600000000  0.4660940000000 1.0
C      1  0.5073260000000  0.5028340000000  0.4380820000000 1.0
C      1  0.5498770000000  0.4811250000000  0.4136190000000 1.0
C      1  0.4816940000000  0.5090290000000  0.4261680000000 1.0
C      1  0.5328220000000  0.4903670000000  0.5496800000000 1.0
C      1  0.5239680000000  0.5098820000000  0.4873040000000 1.0
C      1  0.4571560000000  0.4968850000000  0.5333590000000 1.0
C      1  0.4168960000000  0.4713050000000  0.5583930000000 1.0
C      1  0.5498240000000  0.5019690000000  0.4836260000000 1.0
C      1  0.4772230000000  0.5217390000000  0.4705070000000 1.0
C      1  0.5142530000000  0.5183370000000  0.5129520000000 1.0
END
