TITL C-612603-7354-723 -2.17545079081864e-05 125000 -812.528928336446 0 0 132 (C1) n - 1
REM
REM in /home/nfs/bkarasulu/CARBON/AIRSS/Generating-Clusters/TERSOFF/Only-C1/FIRE-HFTN
REM
REM
REM
REM
REM
REM ./C.cell (11c1c37f851c82e70ff6c80c92926a4b)
REM AIRSS Version 0.9.1 bugfix July 2018 build 013d7b7c2542+ Fri, 06 Jul 2018 19:26:36 +0100
REM compiler GCC version 9.2.1 20190827 (Red Hat 9.2.1-1)
REM options -cpp -mtune=generic -march=x86-64 -g -O0 -fpre-include=/usr/include/finclude/math-vector-fortran.h
REM seed -985117833 1113365978 -986676529 -452235095 -262225771 -1436771436 -1796678306 1012177267 1986810611 1543026834 686560745 354504994 66820344 231105912 -994637492 -962011530 1326480063 -963901930 -404374105 -907438513 924146593 1792429262 2000542961 1861974357 -95409787 1031589066 -2043714323 -2098577729 658810159 849065704 -666247929 496324069 2145446439
REM
CELL 1.54180   50.00000   50.00000   50.00000   90.00000   90.00000   90.00000
LATT -1
SFAC C  
C      1  0.5489410000000  0.5244260000000  0.4298540000000 1.0
C      1  0.5032150000000  0.5623320000000  0.5612230000000 1.0
C      1  0.3991970000000  0.5092340000000  0.5809460000000 1.0
C      1  0.4646610000000  0.5597130000000  0.4903950000000 1.0
C      1  0.4705870000000  0.3971540000000  0.4662350000000 1.0
C      1  0.5073710000000  0.5759630000000  0.4455130000000 1.0
C      1  0.3999530000000  0.4958990000000  0.5562310000000 1.0
C      1  0.3800900000000  0.5431970000000  0.6092220000000 1.0
C      1  0.4235150000000  0.4750880000000  0.4368390000000 1.0
C      1  0.5120470000000  0.5916880000000  0.5218570000000 1.0
C      1  0.5487600000000  0.5116900000000  0.4811250000000 1.0
C      1  0.4739400000000  0.5179030000000  0.5209940000000 1.0
C      1  0.5004110000000  0.5241800000000  0.4495420000000 1.0
C      1  0.4382260000000  0.5348620000000  0.4243840000000 1.0
C      1  0.5257390000000  0.5333920000000  0.5262790000000 1.0
C      1  0.4114020000000  0.4281600000000  0.4977660000000 1.0
C      1  0.5260530000000  0.5593320000000  0.5785250000000 1.0
C      1  0.5773740000000  0.5178100000000  0.4387000000000 1.0
C      1  0.4840430000000  0.4772950000000  0.5526300000000 1.0
C      1  0.4906400000000  0.5011050000000  0.3954830000000 1.0
C      1  0.5020070000000  0.5261170000000  0.3887940000000 1.0
C      1  0.5170450000000  0.4408030000000  0.3687080000000 1.0
C      1  0.4866130000000  0.4723100000000  0.3897360000000 1.0
C      1  0.5257320000000  0.5133550000000  0.4424970000000 1.0
C      1  0.5156640000000  0.4069300000000  0.5129760000000 1.0
C      1  0.4373070000000  0.4199430000000  0.5424710000000 1.0
C      1  0.5387650000000  0.5846830000000  0.5823010000000 1.0
C      1  0.4090720000000  0.5109390000000  0.5343250000000 1.0
C      1  0.5740510000000  0.4475490000000  0.4346840000000 1.0
C      1  0.5947560000000  0.5567900000000  0.4986900000000 1.0
C      1  0.5175240000000  0.5097840000000  0.5387610000000 1.0
C      1  0.5892160000000  0.4923420000000  0.4438910000000 1.0
C      1  0.5384000000000  0.5945110000000  0.5345730000000 1.0
C      1  0.4018640000000  0.5325300000000  0.5965140000000 1.0
C      1  0.5799300000000  0.5484560000000  0.4758380000000 1.0
C      1  0.4111590000000  0.4525290000000  0.4497040000000 1.0
C      1  0.4942090000000  0.4801630000000  0.6195010000000 1.0
C      1  0.4133990000000  0.5393070000000  0.5380520000000 1.0
C      1  0.4850170000000  0.4762550000000  0.5050980000000 1.0
C      1  0.4848400000000  0.4612000000000  0.5282770000000 1.0
C      1  0.5526350000000  0.4079770000000  0.4780550000000 1.0
C      1  0.5099890000000  0.4542710000000  0.3917920000000 1.0
C      1  0.5642240000000  0.4985060000000  0.4989870000000 1.0
C      1  0.5516500000000  0.4818270000000  0.5167580000000 1.0
C      1  0.5666340000000  0.4350930000000  0.5143450000000 1.0
C      1  0.5178340000000  0.4569030000000  0.4412310000000 1.0
C      1  0.4361190000000  0.4819500000000  0.4102200000000 1.0
C      1  0.4644980000000  0.4247570000000  0.5488970000000 1.0
C      1  0.4366260000000  0.5497210000000  0.4491020000000 1.0
C      1  0.4619870000000  0.5190710000000  0.6302180000000 1.0
C      1  0.5063420000000  0.5503690000000  0.4005970000000 1.0
C      1  0.5063520000000  0.4684440000000  0.5971720000000 1.0
C      1  0.6171060000000  0.5163560000000  0.5247140000000 1.0
C      1  0.4485020000000  0.5768130000000  0.5608100000000 1.0
C      1  0.5167680000000  0.4717440000000  0.4651000000000 1.0
C      1  0.5119660000000  0.5424030000000  0.5029670000000 1.0
C      1  0.4490150000000  0.5666380000000  0.5132510000000 1.0
C      1  0.4894060000000  0.5060580000000  0.5438540000000 1.0
C      1  0.5668630000000  0.4373250000000  0.5629230000000 1.0
C      1  0.5914460000000  0.4764770000000  0.4692770000000 1.0
C      1  0.4180390000000  0.5318800000000  0.4938780000000 1.0
C      1  0.5009290000000  0.6225170000000  0.4855370000000 1.0
C      1  0.5527390000000  0.4384990000000  0.4180540000000 1.0
C      1  0.4899350000000  0.4178310000000  0.5062960000000 1.0
C      1  0.5471360000000  0.5535570000000  0.4239930000000 1.0
C      1  0.5577540000000  0.4833060000000  0.5826240000000 1.0
C      1  0.4451980000000  0.4603480000000  0.4864330000000 1.0
C      1  0.4448030000000  0.5356970000000  0.6187550000000 1.0
C      1  0.4273820000000  0.5451220000000  0.5989910000000 1.0
C      1  0.4469620000000  0.5099000000000  0.4135910000000 1.0
C      1  0.3972950000000  0.4458960000000  0.5404650000000 1.0
C      1  0.5262220000000  0.4491500000000  0.4156570000000 1.0
C      1  0.4631330000000  0.5763380000000  0.5365560000000 1.0
C      1  0.5402510000000  0.5349420000000  0.5838120000000 1.0
C      1  0.5763090000000  0.4661290000000  0.5666060000000 1.0
C      1  0.4943280000000  0.4658220000000  0.4813540000000 1.0
C      1  0.4359960000000  0.5652250000000  0.5813440000000 1.0
C      1  0.5278700000000  0.4130480000000  0.5390980000000 1.0
C      1  0.4245880000000  0.5518340000000  0.5149210000000 1.0
C      1  0.5103190000000  0.5978080000000  0.4931570000000 1.0
C      1  0.4790600000000  0.4987680000000  0.6308390000000 1.0
C      1  0.4788370000000  0.5764400000000  0.4460360000000 1.0
C      1  0.3931020000000  0.4691480000000  0.5526350000000 1.0
C      1  0.5682810000000  0.4303910000000  0.4855370000000 1.0
C      1  0.5731690000000  0.5634840000000  0.4308110000000 1.0
C      1  0.4771680000000  0.4193770000000  0.4806280000000 1.0
C      1  0.6046700000000  0.4911810000000  0.5212180000000 1.0
C      1  0.5820140000000  0.5768620000000  0.5141600000000 1.0
C      1  0.5870750000000  0.4714240000000  0.4242560000000 1.0
C      1  0.4891400000000  0.4595120000000  0.5757780000000 1.0
C      1  0.5318870000000  0.3976440000000  0.4918140000000 1.0
C      1  0.5575730000000  0.5744810000000  0.5275880000000 1.0
C      1  0.5552870000000  0.4234180000000  0.5392080000000 1.0
C      1  0.5406070000000  0.6026540000000  0.5618080000000 1.0
C      1  0.5487110000000  0.5480780000000  0.5329070000000 1.0
C      1  0.5901350000000  0.4733870000000  0.5405900000000 1.0
C      1  0.4806220000000  0.5210760000000  0.4697020000000 1.0
C      1  0.5912720000000  0.4900110000000  0.4944410000000 1.0
C      1  0.5706380000000  0.4616630000000  0.5221790000000 1.0
C      1  0.4833590000000  0.5361520000000  0.4965350000000 1.0
C      1  0.5787260000000  0.4487600000000  0.4648980000000 1.0
C      1  0.5318390000000  0.4960030000000  0.4646250000000 1.0
C      1  0.4779750000000  0.4812740000000  0.4369980000000 1.0
C      1  0.5290490000000  0.5547550000000  0.4837610000000 1.0
C      1  0.6131850000000  0.5398670000000  0.5119410000000 1.0
C      1  0.5205230000000  0.5635210000000  0.4220430000000 1.0
C      1  0.5868680000000  0.5446460000000  0.4484530000000 1.0
C      1  0.4341040000000  0.4945820000000  0.4554730000000 1.0
C      1  0.5187270000000  0.5786080000000  0.4725950000000 1.0
C      1  0.4702540000000  0.4474690000000  0.4715290000000 1.0
C      1  0.4699750000000  0.4540390000000  0.4423200000000 1.0
C      1  0.5549260000000  0.5120150000000  0.5825690000000 1.0
C      1  0.5263390000000  0.4637460000000  0.5498310000000 1.0
C      1  0.4559790000000  0.4147170000000  0.4136320000000 1.0
C      1  0.4174850000000  0.5044710000000  0.5066710000000 1.0
C      1  0.4152000000000  0.4292300000000  0.5264200000000 1.0
C      1  0.4556300000000  0.5083920000000  0.4643610000000 1.0
C      1  0.4855340000000  0.4303150000000  0.5692150000000 1.0
C      1  0.4583410000000  0.4628520000000  0.3991370000000 1.0
C      1  0.4783630000000  0.4342450000000  0.5258510000000 1.0
C      1  0.4077610000000  0.4371400000000  0.4721410000000 1.0
C      1  0.4610230000000  0.4408370000000  0.4186210000000 1.0
C      1  0.5347630000000  0.4703320000000  0.5945610000000 1.0
C      1  0.5318900000000  0.4858790000000  0.5352960000000 1.0
C      1  0.4382420000000  0.4851470000000  0.5010480000000 1.0
C      1  0.4640180000000  0.4950040000000  0.5077350000000 1.0
C      1  0.5103100000000  0.4162100000000  0.5620810000000 1.0
C      1  0.4745470000000  0.5032190000000  0.4190170000000 1.0
C      1  0.4921020000000  0.5775650000000  0.5388730000000 1.0
C      1  0.4166720000000  0.5411920000000  0.4674730000000 1.0
C      1  0.5525840000000  0.5399520000000  0.4798700000000 1.0
C      1  0.4585720000000  0.5643990000000  0.4617690000000 1.0
END
