TITL C-612603-7354-1349 10.6636139066818 125000 -1198.28610130376 0 0 196 (C1) n - 1
REM
REM in /home/nfs/bkarasulu/CARBON/AIRSS/Generating-Clusters/TERSOFF/Only-C1/FIRE-HFTN
REM
REM
REM
REM
REM
REM ./C.cell (11c1c37f851c82e70ff6c80c92926a4b)
REM AIRSS Version 0.9.1 bugfix July 2018 build 013d7b7c2542+ Fri, 06 Jul 2018 19:26:36 +0100
REM compiler GCC version 9.2.1 20190827 (Red Hat 9.2.1-1)
REM options -cpp -mtune=generic -march=x86-64 -g -O0 -fpre-include=/usr/include/finclude/math-vector-fortran.h
REM seed 1009918119 493244164 539295845 -372721462 965630893 115722931 -795488060 2110210729 -359403554 946964089 2010305528 -878609711 960795816 2129135760 1043311198 -2078597533 1963547966 498737901 1627972522 1938218909 -1408860903 702961623 -651414918 -1391311567 -1792855812 233313382 444251535 542469127 1459969394 -451803413 423638524 -1228047786 -1150966825
REM
CELL 1.54180   50.00000   50.00000   50.00000   90.00000   90.00000   90.00000
LATT -1
SFAC C  
C      1  0.5041900000000  0.3915890000000  0.5745650000000 1.0
C      1  0.5219690000000  0.5024230000000  0.5178510000000 1.0
C      1  0.5842930000000  0.4068290000000  0.4536890000000 1.0
C      1  0.4812340000000  0.5988050000000  0.4469920000000 1.0
C      1  0.5413560000000  0.5985600000000  0.5434660000000 1.0
C      1  0.4680050000000  0.5064400000000  0.6115200000000 1.0
C      1  0.4864560000000  0.4294390000000  0.4784670000000 1.0
C      1  0.4419890000000  0.4797510000000  0.4849780000000 1.0
C      1  0.4784140000000  0.4598330000000  0.5878770000000 1.0
C      1  0.4081290000000  0.5876320000000  0.4605800000000 1.0
C      1  0.4765200000000  0.6176950000000  0.5100970000000 1.0
C      1  0.4576210000000  0.6011480000000  0.4658100000000 1.0
C      1  0.6178390000000  0.5047370000000  0.4628170000000 1.0
C      1  0.6105220000000  0.5038080000000  0.5138920000000 1.0
C      1  0.4120190000000  0.4130640000000  0.4410920000000 1.0
C      1  0.4114480000000  0.5713190000000  0.5076680000000 1.0
C      1  0.5676100000000  0.5549380000000  0.4572970000000 1.0
C      1  0.5021270000000  0.4146160000000  0.5921490000000 1.0
C      1  0.5880290000000  0.4736130000000  0.4357470000000 1.0
C      1  0.4291240000000  0.4112120000000  0.5181690000000 1.0
C      1  0.5679710000000  0.5211000000000  0.5498120000000 1.0
C      1  0.5243240000000  0.5460250000000  0.4968310000000 1.0
C      1  0.5199680000000  0.4950820000000  0.5606800000000 1.0
C      1  0.3913670000000  0.4552130000000  0.4463460000000 1.0
C      1  0.5750280000000  0.5997380000000  0.4860570000000 1.0
C      1  0.4968940000000  0.5697720000000  0.5253330000000 1.0
C      1  0.4969540000000  0.4928530000000  0.5092200000000 1.0
C      1  0.4835210000000  0.3741380000000  0.4431260000000 1.0
C      1  0.5883750000000  0.4915440000000  0.5002600000000 1.0
C      1  0.5941140000000  0.6027310000000  0.5083970000000 1.0
C      1  0.4816410000000  0.5993980000000  0.5610080000000 1.0
C      1  0.4119250000000  0.4503420000000  0.5900800000000 1.0
C      1  0.4226030000000  0.4298410000000  0.4979460000000 1.0
C      1  0.5213560000000  0.5301650000000  0.5206040000000 1.0
C      1  0.4390770000000  0.4460770000000  0.4546570000000 1.0
C      1  0.6210420000000  0.5503720000000  0.4445380000000 1.0
C      1  0.3857450000000  0.5010990000000  0.4409690000000 1.0
C      1  0.5686150000000  0.5433960000000  0.5044680000000 1.0
C      1  0.6232790000000  0.5645270000000  0.5159600000000 1.0
C      1  0.5040120000000  0.5868410000000  0.4030740000000 1.0
C      1  0.5679610000000  0.5449210000000  0.4281030000000 1.0
C      1  0.5014220000000  0.3961200000000  0.4405000000000 1.0
C      1  0.5047350000000  0.6024980000000  0.5776950000000 1.0
C      1  0.4849320000000  0.4725840000000  0.4947460000000 1.0
C      1  0.4958940000000  0.4383750000000  0.4521340000000 1.0
C      1  0.3949910000000  0.4727980000000  0.5242690000000 1.0
C      1  0.4715380000000  0.4827960000000  0.6274470000000 1.0
C      1  0.4624680000000  0.3899170000000  0.5482460000000 1.0
C      1  0.5386990000000  0.4438870000000  0.4699130000000 1.0
C      1  0.6112520000000  0.5238620000000  0.4406570000000 1.0
C      1  0.5224030000000  0.5012690000000  0.6108950000000 1.0
C      1  0.5207670000000  0.4550140000000  0.4486290000000 1.0
C      1  0.5808190000000  0.4247640000000  0.4334870000000 1.0
C      1  0.4950610000000  0.5198780000000  0.4279200000000 1.0
C      1  0.5720240000000  0.5333260000000  0.4787540000000 1.0
C      1  0.5921680000000  0.4412470000000  0.4976840000000 1.0
C      1  0.5734250000000  0.4968320000000  0.4251870000000 1.0
C      1  0.5424500000000  0.4616490000000  0.4273270000000 1.0
C      1  0.3837080000000  0.4583030000000  0.5000730000000 1.0
C      1  0.4733910000000  0.3671540000000  0.4672590000000 1.0
C      1  0.5877990000000  0.5066400000000  0.5650960000000 1.0
C      1  0.5311960000000  0.5276700000000  0.3968660000000 1.0
C      1  0.5465710000000  0.6123220000000  0.4927580000000 1.0
C      1  0.5780480000000  0.5400120000000  0.5314730000000 1.0
C      1  0.5280410000000  0.5758610000000  0.4145750000000 1.0
C      1  0.5232200000000  0.5089760000000  0.3758310000000 1.0
C      1  0.4841560000000  0.3772200000000  0.5609760000000 1.0
C      1  0.5754440000000  0.4106000000000  0.5936080000000 1.0
C      1  0.4448960000000  0.5763750000000  0.5395890000000 1.0
C      1  0.4637490000000  0.5769030000000  0.5612930000000 1.0
C      1  0.6094030000000  0.4528380000000  0.4763050000000 1.0
C      1  0.4649720000000  0.5501520000000  0.5731760000000 1.0
C      1  0.4422700000000  0.4486310000000  0.4847460000000 1.0
C      1  0.4609620000000  0.5513760000000  0.4841470000000 1.0
C      1  0.6079830000000  0.4759890000000  0.4576200000000 1.0
C      1  0.5279950000000  0.5439890000000  0.5616610000000 1.0
C      1  0.4685260000000  0.4835600000000  0.4739630000000 1.0
C      1  0.4371160000000  0.4267630000000  0.4328780000000 1.0
C      1  0.4958760000000  0.5123510000000  0.6002290000000 1.0
C      1  0.4695520000000  0.5582430000000  0.4179150000000 1.0
C      1  0.5089080000000  0.4816410000000  0.4528550000000 1.0
C      1  0.4284330000000  0.5501940000000  0.3939290000000 1.0
C      1  0.5021950000000  0.5371970000000  0.4822720000000 1.0
C      1  0.4268570000000  0.5223880000000  0.4606180000000 1.0
C      1  0.4855490000000  0.5447770000000  0.4375120000000 1.0
C      1  0.5413650000000  0.5675750000000  0.4591650000000 1.0
C      1  0.5298370000000  0.5907450000000  0.5697320000000 1.0
C      1  0.4140030000000  0.4239860000000  0.5854040000000 1.0
C      1  0.4825820000000  0.5169700000000  0.5066470000000 1.0
C      1  0.4705930000000  0.4454820000000  0.4971720000000 1.0
C      1  0.5543660000000  0.5772160000000  0.5304290000000 1.0
C      1  0.3986680000000  0.5764790000000  0.4831770000000 1.0
C      1  0.3988480000000  0.5152490000000  0.4634580000000 1.0
C      1  0.4399140000000  0.4688690000000  0.3997340000000 1.0
C      1  0.4593440000000  0.4983910000000  0.5529460000000 1.0
C      1  0.4419620000000  0.5136610000000  0.5978240000000 1.0
C      1  0.5027980000000  0.4089800000000  0.4908370000000 1.0
C      1  0.4672970000000  0.5356900000000  0.5265720000000 1.0
C      1  0.4044160000000  0.5178980000000  0.5628550000000 1.0
C      1  0.5946000000000  0.3934240000000  0.5846760000000 1.0
C      1  0.5808350000000  0.5680990000000  0.5388170000000 1.0
C      1  0.4355390000000  0.5889140000000  0.5141440000000 1.0
C      1  0.4794860000000  0.5857110000000  0.4191440000000 1.0
C      1  0.4215420000000  0.4069120000000  0.5662930000000 1.0
C      1  0.5741910000000  0.5057920000000  0.5922000000000 1.0
C      1  0.5416350000000  0.4153520000000  0.4683710000000 1.0
C      1  0.4813640000000  0.4847940000000  0.4503460000000 1.0
C      1  0.5094670000000  0.4847640000000  0.3791670000000 1.0
C      1  0.4198320000000  0.5004010000000  0.5805550000000 1.0
C      1  0.5443170000000  0.4910710000000  0.4224070000000 1.0
C      1  0.4873960000000  0.4702510000000  0.3912140000000 1.0
C      1  0.5356620000000  0.5635330000000  0.5808350000000 1.0
C      1  0.5096190000000  0.6019850000000  0.4551860000000 1.0
C      1  0.6227840000000  0.5190040000000  0.4908570000000 1.0
C      1  0.5442220000000  0.4241080000000  0.5219260000000 1.0
C      1  0.4456840000000  0.5419490000000  0.5921910000000 1.0
C      1  0.4991690000000  0.6255360000000  0.4952960000000 1.0
C      1  0.4892610000000  0.4650030000000  0.6138250000000 1.0
C      1  0.5181790000000  0.4604410000000  0.5492860000000 1.0
C      1  0.3865720000000  0.5054110000000  0.4891450000000 1.0
C      1  0.4667820000000  0.4762250000000  0.5698490000000 1.0
C      1  0.4621930000000  0.4862160000000  0.3916220000000 1.0
C      1  0.3969850000000  0.4973360000000  0.4151130000000 1.0
C      1  0.5199560000000  0.6147290000000  0.4790120000000 1.0
C      1  0.5357910000000  0.4506570000000  0.6118430000000 1.0
C      1  0.5731580000000  0.5057940000000  0.4802620000000 1.0
C      1  0.6025820000000  0.5815220000000  0.5258110000000 1.0
C      1  0.4427110000000  0.4623570000000  0.5329780000000 1.0
C      1  0.5030400000000  0.6165890000000  0.6011190000000 1.0
C      1  0.5535530000000  0.4637500000000  0.4832770000000 1.0
C      1  0.4148870000000  0.4722490000000  0.5726250000000 1.0
C      1  0.5477900000000  0.4068950000000  0.5887690000000 1.0
C      1  0.5758860000000  0.4647410000000  0.5051940000000 1.0
C      1  0.4145800000000  0.4816440000000  0.4017420000000 1.0
C      1  0.5671000000000  0.4066360000000  0.4763250000000 1.0
C      1  0.5444350000000  0.4476380000000  0.5399780000000 1.0
C      1  0.4827230000000  0.5474450000000  0.4652880000000 1.0
C      1  0.4448790000000  0.5138840000000  0.4395340000000 1.0
C      1  0.4713830000000  0.5037370000000  0.4330110000000 1.0
C      1  0.5635030000000  0.4521390000000  0.6171420000000 1.0
C      1  0.3959620000000  0.4343450000000  0.4880190000000 1.0
C      1  0.5263850000000  0.4994260000000  0.4649990000000 1.0
C      1  0.5330170000000  0.3872010000000  0.5737510000000 1.0
C      1  0.6089550000000  0.5020240000000  0.5438810000000 1.0
C      1  0.5454360000000  0.4906820000000  0.5247980000000 1.0
C      1  0.4552650000000  0.6034740000000  0.4960770000000 1.0
C      1  0.5867810000000  0.5774440000000  0.4680330000000 1.0
C      1  0.5424650000000  0.6186090000000  0.5223230000000 1.0
C      1  0.4768610000000  0.3765630000000  0.4914730000000 1.0
C      1  0.5410160000000  0.5177610000000  0.5586330000000 1.0
C      1  0.3922090000000  0.5021730000000  0.5176010000000 1.0
C      1  0.5858040000000  0.5220570000000  0.4264530000000 1.0
C      1  0.4121930000000  0.5463620000000  0.5241210000000 1.0
C      1  0.6135890000000  0.5638310000000  0.4685700000000 1.0
C      1  0.3736520000000  0.4793170000000  0.4818810000000 1.0
C      1  0.4319980000000  0.5977470000000  0.4534840000000 1.0
C      1  0.3987230000000  0.5236630000000  0.5350740000000 1.0
C      1  0.5815580000000  0.4339380000000  0.6084850000000 1.0
C      1  0.5222940000000  0.5119450000000  0.4201870000000 1.0
C      1  0.5606390000000  0.4679460000000  0.5298490000000 1.0
C      1  0.4743450000000  0.5605050000000  0.5100310000000 1.0
C      1  0.4793430000000  0.4394590000000  0.4073540000000 1.0
C      1  0.4372510000000  0.4015270000000  0.5435440000000 1.0
C      1  0.5508210000000  0.4907790000000  0.4739120000000 1.0
C      1  0.4399390000000  0.5027190000000  0.5026540000000 1.0
C      1  0.4675510000000  0.5204830000000  0.3577420000000 1.0
C      1  0.4977440000000  0.5116120000000  0.5713230000000 1.0
C      1  0.3746330000000  0.4765880000000  0.4533770000000 1.0
C      1  0.4975100000000  0.4408020000000  0.5354590000000 1.0
C      1  0.5484760000000  0.5169770000000  0.6052730000000 1.0
C      1  0.4918740000000  0.4221440000000  0.4287960000000 1.0
C      1  0.4409040000000  0.5282750000000  0.4856750000000 1.0
C      1  0.4474650000000  0.4914030000000  0.5283930000000 1.0
C      1  0.4856040000000  0.3498340000000  0.5601700000000 1.0
C      1  0.4615710000000  0.5156730000000  0.3847160000000 1.0
C      1  0.4541580000000  0.5409850000000  0.3993720000000 1.0
C      1  0.4187480000000  0.4645600000000  0.4460190000000 1.0
C      1  0.5128560000000  0.5503400000000  0.5391880000000 1.0
C      1  0.4682960000000  0.4452310000000  0.5277260000000 1.0
C      1  0.5176690000000  0.4721500000000  0.6150320000000 1.0
C      1  0.6228980000000  0.5489990000000  0.4921500000000 1.0
C      1  0.5464370000000  0.5625770000000  0.5058520000000 1.0
C      1  0.4784390000000  0.6166540000000  0.5384130000000 1.0
C      1  0.5703700000000  0.4507540000000  0.4300780000000 1.0
C      1  0.5454490000000  0.5468570000000  0.6030000000000 1.0
C      1  0.5445690000000  0.5514670000000  0.4090170000000 1.0
C      1  0.5277030000000  0.4259160000000  0.5998710000000 1.0
C      1  0.5731390000000  0.4189650000000  0.5015290000000 1.0
C      1  0.5179490000000  0.3998630000000  0.4663270000000 1.0
C      1  0.4494310000000  0.4416710000000  0.4097740000000 1.0
C      1  0.3932340000000  0.4287650000000  0.4585770000000 1.0
C      1  0.4747550000000  0.5241140000000  0.5553800000000 1.0
C      1  0.5277180000000  0.5842630000000  0.4422070000000 1.0
C      1  0.4151880000000  0.4643010000000  0.5438570000000 1.0
C      1  0.5142840000000  0.4196700000000  0.5170170000000 1.0
C      1  0.4390830000000  0.5472170000000  0.5342740000000 1.0
END
