TITL C-612606-7351-1087 -6.54023354966188e-06 125000 -327.813242698407 0 0 54 (C1) n - 1
REM
REM in /home/nfs/bkarasulu/CARBON/AIRSS/Generating-Clusters/TERSOFF/Only-C1/FIRE-HFTN
REM
REM
REM
REM
REM
REM ./C.cell (11c1c37f851c82e70ff6c80c92926a4b)
REM AIRSS Version 0.9.1 bugfix July 2018 build 013d7b7c2542+ Fri, 06 Jul 2018 19:26:36 +0100
REM compiler GCC version 9.2.1 20190827 (Red Hat 9.2.1-1)
REM options -cpp -mtune=generic -march=x86-64 -g -O0 -fpre-include=/usr/include/finclude/math-vector-fortran.h
REM seed 317043157 610253659 -826819565 -1738923974 40481938 2009150303 -645737746 849699852 -1885021637 -2077502515 -120114692 54601498 700313323 991484529 989210102 -1347491587 -1387765578 39239258 1107108804 -418038818 -540813178 -68615802 -334396561 -801465961 -1801904791 1951064197 1210832742 1195355913 1628072506 1955687320 414587999 -1842571038 -119350774
REM
CELL 1.54180   50.00000   50.00000   50.00000   90.00000   90.00000   90.00000
LATT -1
SFAC C  
C      1  0.4496190000000  0.4265460000000  0.5281350000000 1.0
C      1  0.5693240000000  0.4854500000000  0.4713160000000 1.0
C      1  0.5969610000000  0.4812750000000  0.4728080000000 1.0
C      1  0.4369010000000  0.4387980000000  0.5078630000000 1.0
C      1  0.5354520000000  0.4974030000000  0.5699690000000 1.0
C      1  0.4326320000000  0.5139780000000  0.4404040000000 1.0
C      1  0.4790510000000  0.4499760000000  0.5629440000000 1.0
C      1  0.5441010000000  0.5198190000000  0.4370780000000 1.0
C      1  0.5307350000000  0.5341170000000  0.6018020000000 1.0
C      1  0.4715160000000  0.5465460000000  0.5168260000000 1.0
C      1  0.4828250000000  0.5050470000000  0.4961370000000 1.0
C      1  0.4900780000000  0.4760090000000  0.5624940000000 1.0
C      1  0.4796720000000  0.5258150000000  0.5589500000000 1.0
C      1  0.5519760000000  0.4767310000000  0.5180210000000 1.0
C      1  0.5668350000000  0.5441940000000  0.5240540000000 1.0
C      1  0.4716700000000  0.4981160000000  0.5586580000000 1.0
C      1  0.5096690000000  0.5319560000000  0.4665310000000 1.0
C      1  0.4999920000000  0.4829310000000  0.4573880000000 1.0
C      1  0.4804170000000  0.4442740000000  0.4706780000000 1.0
C      1  0.5071910000000  0.5342880000000  0.5590310000000 1.0
C      1  0.4747190000000  0.4921390000000  0.4167370000000 1.0
C      1  0.4993000000000  0.5537870000000  0.5132450000000 1.0
C      1  0.4338560000000  0.4660080000000  0.5006360000000 1.0
C      1  0.6226320000000  0.4776920000000  0.4755110000000 1.0
C      1  0.4983450000000  0.5338520000000  0.4201260000000 1.0
C      1  0.4859250000000  0.4835640000000  0.5123930000000 1.0
C      1  0.4391870000000  0.4750570000000  0.4734990000000 1.0
C      1  0.4735830000000  0.5204330000000  0.4158060000000 1.0
C      1  0.4474980000000  0.5302430000000  0.4222910000000 1.0
C      1  0.5523850000000  0.4717200000000  0.4899790000000 1.0
C      1  0.5165540000000  0.5497680000000  0.5361430000000 1.0
C      1  0.5684810000000  0.4951970000000  0.5326230000000 1.0
C      1  0.5094220000000  0.5517030000000  0.4867010000000 1.0
C      1  0.4632400000000  0.5255540000000  0.4997820000000 1.0
C      1  0.4597160000000  0.4614490000000  0.4583250000000 1.0
C      1  0.4389060000000  0.5217320000000  0.4867060000000 1.0
C      1  0.4651330000000  0.4316020000000  0.5493640000000 1.0
C      1  0.5180040000000  0.4784910000000  0.5571440000000 1.0
C      1  0.5439190000000  0.5551210000000  0.5325090000000 1.0
C      1  0.5300590000000  0.4670300000000  0.5338580000000 1.0
C      1  0.4992190000000  0.5064540000000  0.4733250000000 1.0
C      1  0.5190440000000  0.5327330000000  0.4396770000000 1.0
C      1  0.5592510000000  0.5024940000000  0.4510570000000 1.0
C      1  0.4634870000000  0.5437490000000  0.5438490000000 1.0
C      1  0.5322630000000  0.4545790000000  0.4799230000000 1.0
C      1  0.4332230000000  0.5027620000000  0.4663700000000 1.0
C      1  0.5065330000000  0.4571420000000  0.4698910000000 1.0
C      1  0.4765510000000  0.4779910000000  0.4405250000000 1.0
C      1  0.5247860000000  0.5224300000000  0.5779120000000 1.0
C      1  0.4339700000000  0.4834230000000  0.5233060000000 1.0
C      1  0.5623160000000  0.4959100000000  0.5606300000000 1.0
C      1  0.5773510000000  0.5195790000000  0.5218470000000 1.0
C      1  0.4470210000000  0.4919550000000  0.5453260000000 1.0
C      1  0.4375050000000  0.5533830000000  0.4118940000000 1.0
END
