TITL C-612602-9376-266 0.00538878909563964 125000 -474.768480568424 0 0 79 (C1) n - 1
REM
REM in /home/nfs/bkarasulu/CARBON/AIRSS/Generating-Clusters/TERSOFF/Only-C1/FIRE-HFTN
REM
REM
REM
REM
REM
REM ./C.cell (11c1c37f851c82e70ff6c80c92926a4b)
REM AIRSS Version 0.9.1 bugfix July 2018 build 013d7b7c2542+ Fri, 06 Jul 2018 19:26:36 +0100
REM compiler GCC version 9.2.1 20190827 (Red Hat 9.2.1-1)
REM options -cpp -mtune=generic -march=x86-64 -g -O0 -fpre-include=/usr/include/finclude/math-vector-fortran.h
REM seed -987390706 -2124674718 -966842066 -489226290 -1071581888 -2029166610 528499898 1674492601 -543172292 -891549274 1471395087 857725923 -210664064 1728004430 -21826429 -731832437 620823917 819671667 1273743059 -6291055 -82191328 1051569044 2119429725 -1079366305 1442434331 1837285807 114515888 379977303 -948926999 1064340114 2084480996 -28214346 929874945
REM
CELL 1.54180   50.00000   50.00000   50.00000   90.00000   90.00000   90.00000
LATT -1
SFAC C  
C      1  0.5174480000000  0.4931420000000  0.4880660000000 1.0
C      1  0.5930260000000  0.4827050000000  0.5001480000000 1.0
C      1  0.5188500000000  0.4627340000000  0.5380630000000 1.0
C      1  0.4242750000000  0.5662210000000  0.5029260000000 1.0
C      1  0.5395230000000  0.5825630000000  0.5600360000000 1.0
C      1  0.4894850000000  0.4970120000000  0.4841070000000 1.0
C      1  0.4075240000000  0.4646410000000  0.4639970000000 1.0
C      1  0.3917760000000  0.5086900000000  0.4785350000000 1.0
C      1  0.4908290000000  0.5266590000000  0.5479490000000 1.0
C      1  0.5410330000000  0.4800810000000  0.5449660000000 1.0
C      1  0.5348010000000  0.4410460000000  0.4590940000000 1.0
C      1  0.4808720000000  0.5551530000000  0.5505640000000 1.0
C      1  0.5185000000000  0.5504220000000  0.4989620000000 1.0
C      1  0.5161440000000  0.4245650000000  0.4743060000000 1.0
C      1  0.4771470000000  0.3854180000000  0.4265190000000 1.0
C      1  0.5457750000000  0.5940910000000  0.5366680000000 1.0
C      1  0.4833470000000  0.4022410000000  0.4454300000000 1.0
C      1  0.4345160000000  0.5212970000000  0.5552840000000 1.0
C      1  0.4626240000000  0.4311340000000  0.5041670000000 1.0
C      1  0.5371410000000  0.5073430000000  0.5037360000000 1.0
C      1  0.4811390000000  0.4201110000000  0.5741270000000 1.0
C      1  0.5646820000000  0.4372090000000  0.5512520000000 1.0
C      1  0.4324150000000  0.4869750000000  0.5230790000000 1.0
C      1  0.5201690000000  0.5249630000000  0.5429330000000 1.0
C      1  0.5369410000000  0.5051240000000  0.5323920000000 1.0
C      1  0.4700400000000  0.4367360000000  0.4778030000000 1.0
C      1  0.4055290000000  0.5563710000000  0.4843750000000 1.0
C      1  0.5752200000000  0.4679220000000  0.5158330000000 1.0
C      1  0.4746450000000  0.4722740000000  0.5969760000000 1.0
C      1  0.5029460000000  0.5259590000000  0.5944460000000 1.0
C      1  0.4424740000000  0.5731380000000  0.5211310000000 1.0
C      1  0.5660950000000  0.4649680000000  0.5431510000000 1.0
C      1  0.5658630000000  0.5469690000000  0.4892050000000 1.0
C      1  0.5305070000000  0.4606320000000  0.4391390000000 1.0
C      1  0.5538120000000  0.4562130000000  0.5007950000000 1.0
C      1  0.5435310000000  0.5596530000000  0.4494710000000 1.0
C      1  0.5311400000000  0.5674360000000  0.5805250000000 1.0
C      1  0.5496520000000  0.5343780000000  0.4375880000000 1.0
C      1  0.4955910000000  0.4624060000000  0.5545820000000 1.0
C      1  0.4745590000000  0.5480320000000  0.4395180000000 1.0
C      1  0.4771240000000  0.5327060000000  0.4176450000000 1.0
C      1  0.5530260000000  0.4145980000000  0.5410980000000 1.0
C      1  0.4624580000000  0.5706320000000  0.5386850000000 1.0
C      1  0.5162670000000  0.5671170000000  0.4505950000000 1.0
C      1  0.4809510000000  0.5210400000000  0.4981920000000 1.0
C      1  0.4897240000000  0.4206850000000  0.4652450000000 1.0
C      1  0.4517460000000  0.5056720000000  0.4563030000000 1.0
C      1  0.5135520000000  0.4974080000000  0.4125870000000 1.0
C      1  0.5419980000000  0.5343390000000  0.4970260000000 1.0
C      1  0.5187250000000  0.5479110000000  0.5941780000000 1.0
C      1  0.4801380000000  0.4382210000000  0.5536340000000 1.0
C      1  0.4918960000000  0.5556010000000  0.4601680000000 1.0
C      1  0.4466530000000  0.5081550000000  0.5343560000000 1.0
C      1  0.5334650000000  0.4874160000000  0.4298010000000 1.0
C      1  0.4931740000000  0.5451060000000  0.4871270000000 1.0
C      1  0.5275380000000  0.4497930000000  0.5133780000000 1.0
C      1  0.4901480000000  0.5107820000000  0.5738270000000 1.0
C      1  0.5358440000000  0.4060660000000  0.5213930000000 1.0
C      1  0.5598550000000  0.5686660000000  0.4714900000000 1.0
C      1  0.4321760000000  0.5235640000000  0.4590930000000 1.0
C      1  0.4927990000000  0.5134320000000  0.4078370000000 1.0
C      1  0.5906030000000  0.5425940000000  0.4995520000000 1.0
C      1  0.3841260000000  0.5718240000000  0.4770980000000 1.0
C      1  0.5576820000000  0.4465000000000  0.4747500000000 1.0
C      1  0.5535750000000  0.5061050000000  0.4392790000000 1.0
C      1  0.5765200000000  0.4973430000000  0.4532960000000 1.0
C      1  0.5516870000000  0.5996530000000  0.5110980000000 1.0
C      1  0.3990780000000  0.4820390000000  0.4845120000000 1.0
C      1  0.4725660000000  0.5166950000000  0.5254810000000 1.0
C      1  0.4588040000000  0.4593640000000  0.4652980000000 1.0
C      1  0.5915180000000  0.4918500000000  0.4748210000000 1.0
C      1  0.5217680000000  0.4231990000000  0.5029810000000 1.0
C      1  0.4656800000000  0.4326150000000  0.5304260000000 1.0
C      1  0.4871520000000  0.4822120000000  0.5743660000000 1.0
C      1  0.4691210000000  0.4860340000000  0.4672130000000 1.0
C      1  0.4112730000000  0.4780900000000  0.5095400000000 1.0
C      1  0.4088280000000  0.5305620000000  0.4729960000000 1.0
C      1  0.5571620000000  0.5931410000000  0.4854800000000 1.0
C      1  0.4320150000000  0.4566450000000  0.4563170000000 1.0
END
