TITL C-612605-9286-120 0.00842709186073172 125000 -952.690313392151 0 0 154 (C1) n - 1
REM
REM in /home/nfs/bkarasulu/CARBON/AIRSS/Generating-Clusters/TERSOFF/Only-C1/FIRE-HFTN
REM
REM
REM
REM
REM
REM ./C.cell (11c1c37f851c82e70ff6c80c92926a4b)
REM AIRSS Version 0.9.1 bugfix July 2018 build 013d7b7c2542+ Fri, 06 Jul 2018 19:26:36 +0100
REM compiler GCC version 9.2.1 20190827 (Red Hat 9.2.1-1)
REM options -cpp -mtune=generic -march=x86-64 -g -O0 -fpre-include=/usr/include/finclude/math-vector-fortran.h
REM seed 1613547215 -1743139160 1727753454 857174273 -640078710 -1279664393 2134340637 -787193012 -1357233889 -1603081594 -1838803746 1427666464 1123429793 533507806 -1047155116 -346246588 -706514067 747933922 868826279 -1154904524 481113709 833639503 -646731196 1152917225 670622094 -2137471103 1552426150 -2078454660 -18451099 415383627 -80088525 -1614031844 182937847
REM
CELL 1.54180   50.00000   50.00000   50.00000   90.00000   90.00000   90.00000
LATT -1
SFAC C  
C      1  0.3746800000000  0.4739940000000  0.5815320000000 1.0
C      1  0.4536190000000  0.5774910000000  0.5726180000000 1.0
C      1  0.3849920000000  0.4554410000000  0.4020780000000 1.0
C      1  0.4736080000000  0.3904270000000  0.5561140000000 1.0
C      1  0.6116300000000  0.5186210000000  0.4887670000000 1.0
C      1  0.5764410000000  0.5541690000000  0.4978340000000 1.0
C      1  0.5640620000000  0.4326420000000  0.4505980000000 1.0
C      1  0.4341220000000  0.5033070000000  0.5897410000000 1.0
C      1  0.4134040000000  0.4336960000000  0.5160280000000 1.0
C      1  0.5973400000000  0.5424560000000  0.4810710000000 1.0
C      1  0.5037890000000  0.6204240000000  0.5219400000000 1.0
C      1  0.5459050000000  0.4168060000000  0.4665810000000 1.0
C      1  0.4160380000000  0.4244720000000  0.4905490000000 1.0
C      1  0.5400500000000  0.4920150000000  0.3939810000000 1.0
C      1  0.4426680000000  0.5405760000000  0.4921640000000 1.0
C      1  0.5988370000000  0.4939350000000  0.4466980000000 1.0
C      1  0.3761250000000  0.4970800000000  0.5238150000000 1.0
C      1  0.5542220000000  0.5348290000000  0.5876450000000 1.0
C      1  0.5282100000000  0.5940420000000  0.4448000000000 1.0
C      1  0.4647430000000  0.4261660000000  0.4623950000000 1.0
C      1  0.6199370000000  0.4713180000000  0.4859170000000 1.0
C      1  0.4684640000000  0.4714780000000  0.3909230000000 1.0
C      1  0.4516120000000  0.5188070000000  0.5743040000000 1.0
C      1  0.4363990000000  0.4798980000000  0.4921170000000 1.0
C      1  0.5719300000000  0.5611540000000  0.5507150000000 1.0
C      1  0.5084670000000  0.5295140000000  0.5289460000000 1.0
C      1  0.5042810000000  0.3999090000000  0.4530950000000 1.0
C      1  0.5564430000000  0.6116440000000  0.4828960000000 1.0
C      1  0.5265680000000  0.6041470000000  0.5261160000000 1.0
C      1  0.5411850000000  0.4679600000000  0.4117340000000 1.0
C      1  0.5731960000000  0.4904400000000  0.5770610000000 1.0
C      1  0.5796050000000  0.5602590000000  0.5250750000000 1.0
C      1  0.4278830000000  0.4814370000000  0.5196040000000 1.0
C      1  0.5204130000000  0.4071320000000  0.4761330000000 1.0
C      1  0.4231930000000  0.5250200000000  0.4305360000000 1.0
C      1  0.4063810000000  0.5555650000000  0.5624800000000 1.0
C      1  0.4902850000000  0.3807730000000  0.5363270000000 1.0
C      1  0.4742890000000  0.5278060000000  0.5879120000000 1.0
C      1  0.3814260000000  0.4694210000000  0.5224800000000 1.0
C      1  0.4957210000000  0.4743520000000  0.5682150000000 1.0
C      1  0.5488240000000  0.5361640000000  0.4642630000000 1.0
C      1  0.4980240000000  0.5375650000000  0.5774660000000 1.0
C      1  0.4260640000000  0.5694560000000  0.5758000000000 1.0
C      1  0.5520930000000  0.5576610000000  0.5707730000000 1.0
C      1  0.5737540000000  0.4930510000000  0.5186410000000 1.0
C      1  0.5168830000000  0.5561180000000  0.5211120000000 1.0
C      1  0.4932520000000  0.5402510000000  0.4061180000000 1.0
C      1  0.4917790000000  0.6144130000000  0.4746340000000 1.0
C      1  0.4330080000000  0.5087270000000  0.5280550000000 1.0
C      1  0.4235190000000  0.5278440000000  0.5081910000000 1.0
C      1  0.4083440000000  0.4603090000000  0.5246210000000 1.0
C      1  0.5272840000000  0.4586340000000  0.4829820000000 1.0
C      1  0.4500320000000  0.4631030000000  0.4363180000000 1.0
C      1  0.6245500000000  0.5058440000000  0.4064310000000 1.0
C      1  0.4470400000000  0.4556800000000  0.5822250000000 1.0
C      1  0.5194900000000  0.5075700000000  0.4881450000000 1.0
C      1  0.4823240000000  0.4598180000000  0.5211290000000 1.0
C      1  0.5057570000000  0.5932510000000  0.4630110000000 1.0
C      1  0.4023720000000  0.5269050000000  0.4546670000000 1.0
C      1  0.5364440000000  0.4939850000000  0.6095500000000 1.0
C      1  0.4624140000000  0.5470970000000  0.5337360000000 1.0
C      1  0.5010420000000  0.4691220000000  0.4437110000000 1.0
C      1  0.4782350000000  0.4465850000000  0.3955990000000 1.0
C      1  0.5021870000000  0.5079300000000  0.5101310000000 1.0
C      1  0.6062000000000  0.5114390000000  0.4256750000000 1.0
C      1  0.5719920000000  0.4862610000000  0.4479320000000 1.0
C      1  0.6389170000000  0.4610880000000  0.5297180000000 1.0
C      1  0.4806650000000  0.4163500000000  0.5650490000000 1.0
C      1  0.6241240000000  0.4381800000000  0.5306010000000 1.0
C      1  0.6003350000000  0.4366920000000  0.5148660000000 1.0
C      1  0.5584930000000  0.5138580000000  0.3981010000000 1.0
C      1  0.4212380000000  0.4414170000000  0.4683910000000 1.0
C      1  0.5420820000000  0.4216690000000  0.5622140000000 1.0
C      1  0.5506570000000  0.6064710000000  0.4569240000000 1.0
C      1  0.3951190000000  0.4875040000000  0.5686050000000 1.0
C      1  0.5483730000000  0.6095750000000  0.5085640000000 1.0
C      1  0.4280800000000  0.5536680000000  0.4256540000000 1.0
C      1  0.4699390000000  0.4995990000000  0.4621170000000 1.0
C      1  0.5502940000000  0.5539250000000  0.4857910000000 1.0
C      1  0.4878910000000  0.4251320000000  0.4089900000000 1.0
C      1  0.3956900000000  0.5389340000000  0.5122110000000 1.0
C      1  0.6180970000000  0.5070880000000  0.5154660000000 1.0
C      1  0.5279780000000  0.5716490000000  0.4261030000000 1.0
C      1  0.4788750000000  0.5801610000000  0.5869670000000 1.0
C      1  0.5564380000000  0.4452840000000  0.4244190000000 1.0
C      1  0.3798140000000  0.5147290000000  0.5004570000000 1.0
C      1  0.5138020000000  0.4795690000000  0.6121370000000 1.0
C      1  0.5365060000000  0.5116210000000  0.4669070000000 1.0
C      1  0.3880950000000  0.5086960000000  0.4726020000000 1.0
C      1  0.3928090000000  0.5600710000000  0.4908320000000 1.0
C      1  0.4786100000000  0.5258050000000  0.4578030000000 1.0
C      1  0.4068590000000  0.4662040000000  0.4112980000000 1.0
C      1  0.5508720000000  0.5601630000000  0.4141710000000 1.0
C      1  0.4644090000000  0.4402240000000  0.5635860000000 1.0
C      1  0.4741370000000  0.4785600000000  0.4431140000000 1.0
C      1  0.5039890000000  0.5667320000000  0.4738360000000 1.0
C      1  0.4946820000000  0.5483120000000  0.4539960000000 1.0
C      1  0.5271480000000  0.5721800000000  0.5661220000000 1.0
C      1  0.4643930000000  0.4996630000000  0.3986920000000 1.0
C      1  0.4431920000000  0.4391890000000  0.4508040000000 1.0
C      1  0.6318370000000  0.4813190000000  0.5113690000000 1.0
C      1  0.4529160000000  0.4789110000000  0.6255200000000 1.0
C      1  0.4920610000000  0.4703150000000  0.5965860000000 1.0
C      1  0.5123910000000  0.4952330000000  0.5610740000000 1.0
C      1  0.5255980000000  0.4780380000000  0.4340630000000 1.0
C      1  0.5235790000000  0.5605110000000  0.4941050000000 1.0
C      1  0.4378320000000  0.5002160000000  0.6177590000000 1.0
C      1  0.6041010000000  0.4468440000000  0.4870760000000 1.0
C      1  0.3938170000000  0.5373090000000  0.5440920000000 1.0
C      1  0.4386510000000  0.5045120000000  0.4152460000000 1.0
C      1  0.5953980000000  0.5046110000000  0.5325980000000 1.0
C      1  0.4168890000000  0.4685740000000  0.4746390000000 1.0
C      1  0.5678250000000  0.4628780000000  0.5720190000000 1.0
C      1  0.4302540000000  0.4772170000000  0.4214600000000 1.0
C      1  0.5759360000000  0.4448140000000  0.5276850000000 1.0
C      1  0.4645100000000  0.5485140000000  0.5056160000000 1.0
C      1  0.5446120000000  0.4914000000000  0.4503620000000 1.0
C      1  0.4800520000000  0.4596910000000  0.5494200000000 1.0
C      1  0.5091280000000  0.5223010000000  0.5562380000000 1.0
C      1  0.5228830000000  0.5785610000000  0.5384650000000 1.0
C      1  0.4153190000000  0.5702150000000  0.4437990000000 1.0
C      1  0.5885060000000  0.4385120000000  0.4646550000000 1.0
C      1  0.5131770000000  0.5006520000000  0.3872030000000 1.0
C      1  0.5084180000000  0.4130040000000  0.5037750000000 1.0
C      1  0.5964140000000  0.5490430000000  0.4529260000000 1.0
C      1  0.5236140000000  0.4616210000000  0.5306890000000 1.0
C      1  0.5645800000000  0.4672790000000  0.5137460000000 1.0
C      1  0.5677900000000  0.5375820000000  0.4117070000000 1.0
C      1  0.5052250000000  0.4537020000000  0.4665080000000 1.0
C      1  0.5108620000000  0.3997230000000  0.5287450000000 1.0
C      1  0.5045020000000  0.5544050000000  0.4275080000000 1.0
C      1  0.6126560000000  0.4948690000000  0.4710000000000 1.0
C      1  0.4003560000000  0.5557000000000  0.4635810000000 1.0
C      1  0.4651250000000  0.4638440000000  0.6047680000000 1.0
C      1  0.5379410000000  0.4633550000000  0.5079520000000 1.0
C      1  0.4612930000000  0.5720730000000  0.5459330000000 1.0
C      1  0.4223750000000  0.4806330000000  0.5769250000000 1.0
C      1  0.5152170000000  0.4167480000000  0.5523710000000 1.0
C      1  0.5917770000000  0.5360550000000  0.4277860000000 1.0
C      1  0.5927060000000  0.5030220000000  0.5605350000000 1.0
C      1  0.4963980000000  0.4083250000000  0.4284370000000 1.0
C      1  0.5627850000000  0.4410280000000  0.5538520000000 1.0
C      1  0.4622790000000  0.4899470000000  0.4875730000000 1.0
C      1  0.4819260000000  0.4867050000000  0.5084760000000 1.0
C      1  0.3935380000000  0.4817300000000  0.4675990000000 1.0
C      1  0.4892110000000  0.5145100000000  0.3956720000000 1.0
C      1  0.5031880000000  0.5653780000000  0.5804840000000 1.0
C      1  0.5555710000000  0.5068260000000  0.5929650000000 1.0
C      1  0.4503670000000  0.5230490000000  0.5460970000000 1.0
C      1  0.4884940000000  0.4355000000000  0.5049810000000 1.0
C      1  0.4899320000000  0.6249130000000  0.4992910000000 1.0
C      1  0.3867220000000  0.5084900000000  0.5490900000000 1.0
C      1  0.4839740000000  0.4392880000000  0.4772890000000 1.0
C      1  0.5498180000000  0.4051390000000  0.5831350000000 1.0
END
