TITL C-612605-9286-1111 0.0080094205305069 125000 -1019.03194372329 0 0 166 (C1) n - 1
REM
REM in /home/nfs/bkarasulu/CARBON/AIRSS/Generating-Clusters/TERSOFF/Only-C1/FIRE-HFTN
REM
REM
REM
REM
REM
REM ./C.cell (11c1c37f851c82e70ff6c80c92926a4b)
REM AIRSS Version 0.9.1 bugfix July 2018 build 013d7b7c2542+ Fri, 06 Jul 2018 19:26:36 +0100
REM compiler GCC version 9.2.1 20190827 (Red Hat 9.2.1-1)
REM options -cpp -mtune=generic -march=x86-64 -g -O0 -fpre-include=/usr/include/finclude/math-vector-fortran.h
REM seed 2089851010 -1074515734 -1820370183 -1778364688 1659407864 -1092451102 -1135444974 709436354 1929606363 781158174 -1762928820 1285989136 -88864951 1383863121 -278353930 -1573544989 -429551018 1092009638 -642705593 -1934360600 720620938 -851858592 1822940011 885956353 -290010450 -1630564654 2135546962 -1233957642 -781019033 -2015901732 -66838198 -2118334333 493082380
REM
CELL 1.54180   50.00000   50.00000   50.00000   90.00000   90.00000   90.00000
LATT -1
SFAC C  
C      1  0.4281610000000  0.4392510000000  0.4072540000000 1.0
C      1  0.5510530000000  0.4848410000000  0.5200060000000 1.0
C      1  0.4304700000000  0.4277840000000  0.5287640000000 1.0
C      1  0.6056670000000  0.4870410000000  0.4416980000000 1.0
C      1  0.5675040000000  0.4297410000000  0.4551560000000 1.0
C      1  0.3890310000000  0.4460850000000  0.5079840000000 1.0
C      1  0.5925840000000  0.4717010000000  0.5468610000000 1.0
C      1  0.3959760000000  0.5239000000000  0.4454400000000 1.0
C      1  0.6513380000000  0.5485460000000  0.5364760000000 1.0
C      1  0.3540780000000  0.5479650000000  0.5995210000000 1.0
C      1  0.4995020000000  0.5084890000000  0.4174510000000 1.0
C      1  0.3976350000000  0.4731690000000  0.5714470000000 1.0
C      1  0.4219110000000  0.4823610000000  0.4974780000000 1.0
C      1  0.5888350000000  0.5276820000000  0.4632550000000 1.0
C      1  0.3172840000000  0.5764900000000  0.6132070000000 1.0
C      1  0.5745630000000  0.5116220000000  0.5814560000000 1.0
C      1  0.6310130000000  0.5410480000000  0.5219950000000 1.0
C      1  0.5973750000000  0.4244130000000  0.5238630000000 1.0
C      1  0.5294880000000  0.5623210000000  0.3995390000000 1.0
C      1  0.5613690000000  0.5610510000000  0.5905120000000 1.0
C      1  0.4539880000000  0.4920760000000  0.5306840000000 1.0
C      1  0.6025420000000  0.5452870000000  0.4823590000000 1.0
C      1  0.5692660000000  0.4905470000000  0.4092950000000 1.0
C      1  0.4523380000000  0.4791370000000  0.4219130000000 1.0
C      1  0.5606950000000  0.4679170000000  0.4993400000000 1.0
C      1  0.5599650000000  0.5870350000000  0.5792340000000 1.0
C      1  0.5261080000000  0.4611620000000  0.4593870000000 1.0
C      1  0.3756980000000  0.4691600000000  0.5535360000000 1.0
C      1  0.4074750000000  0.4978210000000  0.5823080000000 1.0
C      1  0.4783500000000  0.4801960000000  0.5222390000000 1.0
C      1  0.5162490000000  0.4302210000000  0.4195630000000 1.0
C      1  0.5245800000000  0.4980400000000  0.4238920000000 1.0
C      1  0.4950140000000  0.5018220000000  0.5640120000000 1.0
C      1  0.4979720000000  0.4078040000000  0.4255570000000 1.0
C      1  0.4559670000000  0.4597790000000  0.4430340000000 1.0
C      1  0.4574820000000  0.4189480000000  0.5331460000000 1.0
C      1  0.4298860000000  0.5333650000000  0.5469020000000 1.0
C      1  0.5290540000000  0.3957190000000  0.5000640000000 1.0
C      1  0.5415570000000  0.5901800000000  0.4383360000000 1.0
C      1  0.6151450000000  0.4564910000000  0.4753200000000 1.0
C      1  0.5484550000000  0.4418340000000  0.4959260000000 1.0
C      1  0.5721970000000  0.4833410000000  0.4775830000000 1.0
C      1  0.4952430000000  0.4975960000000  0.5076670000000 1.0
C      1  0.5200450000000  0.5826580000000  0.4182330000000 1.0
C      1  0.4624350000000  0.4951170000000  0.5963500000000 1.0
C      1  0.5463990000000  0.5092570000000  0.4085200000000 1.0
C      1  0.5181700000000  0.5435210000000  0.4670630000000 1.0
C      1  0.5534290000000  0.6125300000000  0.5109870000000 1.0
C      1  0.4743120000000  0.4175280000000  0.4872810000000 1.0
C      1  0.5414390000000  0.5547360000000  0.6093330000000 1.0
C      1  0.5347860000000  0.6022490000000  0.4640430000000 1.0
C      1  0.5629650000000  0.5109380000000  0.5182180000000 1.0
C      1  0.3732320000000  0.4560640000000  0.5297670000000 1.0
C      1  0.4069650000000  0.4236880000000  0.5129710000000 1.0
C      1  0.5443050000000  0.5399160000000  0.4136550000000 1.0
C      1  0.5742300000000  0.5403010000000  0.5742110000000 1.0
C      1  0.4016690000000  0.5326520000000  0.5489800000000 1.0
C      1  0.5028160000000  0.5990460000000  0.5012850000000 1.0
C      1  0.5627420000000  0.5562420000000  0.5274100000000 1.0
C      1  0.4970780000000  0.4521220000000  0.4221310000000 1.0
C      1  0.4463350000000  0.5198980000000  0.5289460000000 1.0
C      1  0.5518300000000  0.4986690000000  0.4639240000000 1.0
C      1  0.4175440000000  0.4536870000000  0.5674170000000 1.0
C      1  0.5407810000000  0.5397060000000  0.4850300000000 1.0
C      1  0.4419600000000  0.5859170000000  0.4120730000000 1.0
C      1  0.4970240000000  0.5487210000000  0.5168410000000 1.0
C      1  0.4673100000000  0.4765570000000  0.3973530000000 1.0
C      1  0.5229270000000  0.5333930000000  0.6082150000000 1.0
C      1  0.4256230000000  0.4327370000000  0.5842340000000 1.0
C      1  0.4436200000000  0.4396010000000  0.4580490000000 1.0
C      1  0.5437000000000  0.4405950000000  0.4674950000000 1.0
C      1  0.4943660000000  0.4924110000000  0.4801850000000 1.0
C      1  0.3997760000000  0.4661670000000  0.4904080000000 1.0
C      1  0.5072900000000  0.5472980000000  0.5619800000000 1.0
C      1  0.5840160000000  0.4145920000000  0.4735500000000 1.0
C      1  0.4526570000000  0.5072910000000  0.4623240000000 1.0
C      1  0.5889710000000  0.5842790000000  0.4540610000000 1.0
C      1  0.5447390000000  0.4736370000000  0.5669940000000 1.0
C      1  0.5001290000000  0.5374770000000  0.5904970000000 1.0
C      1  0.4207620000000  0.5680910000000  0.4100430000000 1.0
C      1  0.5046740000000  0.5666830000000  0.5386470000000 1.0
C      1  0.5027390000000  0.5212400000000  0.5205130000000 1.0
C      1  0.5591650000000  0.5256140000000  0.4682260000000 1.0
C      1  0.4802600000000  0.5250500000000  0.4095430000000 1.0
C      1  0.5786400000000  0.5504400000000  0.5483900000000 1.0
C      1  0.5384070000000  0.4459280000000  0.4040670000000 1.0
C      1  0.5509150000000  0.5364540000000  0.5115170000000 1.0
C      1  0.4354770000000  0.5052220000000  0.4848340000000 1.0
C      1  0.5640470000000  0.4598460000000  0.4141200000000 1.0
C      1  0.4993290000000  0.4674240000000  0.4672590000000 1.0
C      1  0.3851830000000  0.5398350000000  0.5259530000000 1.0
C      1  0.5360140000000  0.5079340000000  0.6128740000000 1.0
C      1  0.4990270000000  0.3638060000000  0.5317480000000 1.0
C      1  0.4887470000000  0.4534990000000  0.5223990000000 1.0
C      1  0.3932770000000  0.5214220000000  0.5740570000000 1.0
C      1  0.6152130000000  0.4687450000000  0.5004340000000 1.0
C      1  0.5728790000000  0.4856240000000  0.5664090000000 1.0
C      1  0.4757680000000  0.4292090000000  0.5134980000000 1.0
C      1  0.5925900000000  0.5106900000000  0.5170570000000 1.0
C      1  0.4481290000000  0.5525970000000  0.4916410000000 1.0
C      1  0.5927990000000  0.5030390000000  0.4215250000000 1.0
C      1  0.5133060000000  0.5918040000000  0.5274920000000 1.0
C      1  0.4676760000000  0.5726700000000  0.4155020000000 1.0
C      1  0.3741460000000  0.5329560000000  0.5906980000000 1.0
C      1  0.4273520000000  0.4537030000000  0.5408190000000 1.0
C      1  0.4292220000000  0.5400700000000  0.4120790000000 1.0
C      1  0.5072700000000  0.6010170000000  0.4730490000000 1.0
C      1  0.5806550000000  0.4466290000000  0.4359070000000 1.0
C      1  0.5961730000000  0.4980110000000  0.4671870000000 1.0
C      1  0.3330570000000  0.5754900000000  0.5673210000000 1.0
C      1  0.4897740000000  0.4310670000000  0.5708920000000 1.0
C      1  0.4745850000000  0.4689110000000  0.5969570000000 1.0
C      1  0.4916760000000  0.5848110000000  0.4263360000000 1.0
C      1  0.5238350000000  0.4677810000000  0.5879190000000 1.0
C      1  0.4140190000000  0.4634590000000  0.4063350000000 1.0
C      1  0.5681160000000  0.5773300000000  0.4360680000000 1.0
C      1  0.5526870000000  0.6111630000000  0.4840650000000 1.0
C      1  0.4340730000000  0.4987430000000  0.5937960000000 1.0
C      1  0.4097710000000  0.5187400000000  0.4202540000000 1.0
C      1  0.3641490000000  0.5579580000000  0.5307300000000 1.0
C      1  0.5641050000000  0.5083860000000  0.6079300000000 1.0
C      1  0.5949170000000  0.4431100000000  0.5435330000000 1.0
C      1  0.4934460000000  0.4653420000000  0.3964930000000 1.0
C      1  0.5194630000000  0.4692690000000  0.6368250000000 1.0
C      1  0.4838510000000  0.4586400000000  0.4457850000000 1.0
C      1  0.6049370000000  0.4590050000000  0.4471830000000 1.0
C      1  0.4801860000000  0.5129290000000  0.4670810000000 1.0
C      1  0.5203520000000  0.4615560000000  0.3851440000000 1.0
C      1  0.5940570000000  0.4143560000000  0.4988650000000 1.0
C      1  0.4821890000000  0.5137260000000  0.5871470000000 1.0
C      1  0.4901600000000  0.5396470000000  0.4696650000000 1.0
C      1  0.4888840000000  0.5976840000000  0.4518630000000 1.0
C      1  0.4408260000000  0.5276340000000  0.5022390000000 1.0
C      1  0.5501790000000  0.6018050000000  0.5591850000000 1.0
C      1  0.4691300000000  0.4100650000000  0.4333320000000 1.0
C      1  0.5271110000000  0.5409950000000  0.4402910000000 1.0
C      1  0.3883170000000  0.5317370000000  0.4984860000000 1.0
C      1  0.5148910000000  0.4540110000000  0.5326470000000 1.0
C      1  0.5330430000000  0.3874380000000  0.4743030000000 1.0
C      1  0.3453130000000  0.5711060000000  0.5440640000000 1.0
C      1  0.5086930000000  0.5204230000000  0.5482410000000 1.0
C      1  0.5126560000000  0.3801170000000  0.5166650000000 1.0
C      1  0.4456140000000  0.4150250000000  0.5801600000000 1.0
C      1  0.4971310000000  0.4547590000000  0.5849280000000 1.0
C      1  0.5481940000000  0.4162020000000  0.5388020000000 1.0
C      1  0.5356140000000  0.4714920000000  0.5398200000000 1.0
C      1  0.4478490000000  0.4204520000000  0.4141410000000 1.0
C      1  0.5387440000000  0.6037520000000  0.5336660000000 1.0
C      1  0.4598400000000  0.5438260000000  0.4122480000000 1.0
C      1  0.3898320000000  0.5286550000000  0.4714930000000 1.0
C      1  0.5506500000000  0.4081310000000  0.5634970000000 1.0
C      1  0.5343510000000  0.4854230000000  0.4473860000000 1.0
C      1  0.5420810000000  0.4186390000000  0.5114820000000 1.0
C      1  0.4463050000000  0.5023080000000  0.4360490000000 1.0
C      1  0.4702660000000  0.5581100000000  0.4772790000000 1.0
C      1  0.4321000000000  0.4757740000000  0.5240320000000 1.0
C      1  0.4614860000000  0.4168580000000  0.4618050000000 1.0
C      1  0.6026390000000  0.5722030000000  0.4740200000000 1.0
C      1  0.3341810000000  0.5669980000000  0.5940650000000 1.0
C      1  0.6038250000000  0.4848070000000  0.5226830000000 1.0
C      1  0.4083400000000  0.4907270000000  0.4095080000000 1.0
C      1  0.5257480000000  0.4816670000000  0.6132640000000 1.0
C      1  0.5892460000000  0.5307530000000  0.4322190000000 1.0
C      1  0.4664950000000  0.4176530000000  0.5610080000000 1.0
C      1  0.6086710000000  0.5327810000000  0.5074090000000 1.0
C      1  0.5708280000000  0.5511450000000  0.4232400000000 1.0
END
