TITL C-612606-7351-691 0.211064714550648 125000 -615.771825011341 0 0 103 (C1) n - 1
REM
REM in /home/nfs/bkarasulu/CARBON/AIRSS/Generating-Clusters/TERSOFF/Only-C1/FIRE-HFTN
REM
REM
REM
REM
REM
REM ./C.cell (11c1c37f851c82e70ff6c80c92926a4b)
REM AIRSS Version 0.9.1 bugfix July 2018 build 013d7b7c2542+ Fri, 06 Jul 2018 19:26:36 +0100
REM compiler GCC version 9.2.1 20190827 (Red Hat 9.2.1-1)
REM options -cpp -mtune=generic -march=x86-64 -g -O0 -fpre-include=/usr/include/finclude/math-vector-fortran.h
REM seed 1663039919 -723110903 1206558398 462733073 -797966892 1079382507 950511314 -1760382931 -649611020 -1293375908 1036952381 -1288195222 -534481916 -448816537 -1135071223 2052032397 1913626021 -991288318 1800208141 789393910 -459314391 252662306 22731670 783975609 -850447390 -388797421 -1804741860 -2080178402 -1347445255 832268571 -2079619956 377094466 1510195493
REM
CELL 1.54180   50.00000   50.00000   50.00000   90.00000   90.00000   90.00000
LATT -1
SFAC C  
C      1  0.4975130000000  0.5718290000000  0.5917920000000 1.0
C      1  0.4887200000000  0.4619780000000  0.4360110000000 1.0
C      1  0.4760540000000  0.5684900000000  0.4921590000000 1.0
C      1  0.4401410000000  0.4000910000000  0.5713760000000 1.0
C      1  0.6189730000000  0.5525940000000  0.5115790000000 1.0
C      1  0.5788440000000  0.4394810000000  0.4917890000000 1.0
C      1  0.5230330000000  0.5761720000000  0.5848170000000 1.0
C      1  0.6225170000000  0.4879640000000  0.5183190000000 1.0
C      1  0.4258580000000  0.5863120000000  0.4977520000000 1.0
C      1  0.4965320000000  0.5694500000000  0.4682090000000 1.0
C      1  0.5251050000000  0.5200100000000  0.5647860000000 1.0
C      1  0.5473130000000  0.5655930000000  0.4736060000000 1.0
C      1  0.4193480000000  0.4620070000000  0.4592740000000 1.0
C      1  0.4951810000000  0.4700640000000  0.4869200000000 1.0
C      1  0.4824900000000  0.4733670000000  0.5439430000000 1.0
C      1  0.4585530000000  0.4231480000000  0.4574530000000 1.0
C      1  0.5575430000000  0.4700590000000  0.4261590000000 1.0
C      1  0.5234810000000  0.5127590000000  0.4738250000000 1.0
C      1  0.5058520000000  0.4112060000000  0.4755140000000 1.0
C      1  0.5799800000000  0.4898060000000  0.4672290000000 1.0
C      1  0.4727380000000  0.4572220000000  0.4953030000000 1.0
C      1  0.4392770000000  0.5422640000000  0.4279350000000 1.0
C      1  0.4775260000000  0.5541710000000  0.5884210000000 1.0
C      1  0.4010340000000  0.5515070000000  0.5212950000000 1.0
C      1  0.5526340000000  0.5266550000000  0.5682610000000 1.0
C      1  0.4245440000000  0.5044680000000  0.5274300000000 1.0
C      1  0.4856030000000  0.5991490000000  0.4034940000000 1.0
C      1  0.4726140000000  0.4987860000000  0.5280930000000 1.0
C      1  0.4507910000000  0.5845770000000  0.4882190000000 1.0
C      1  0.5235770000000  0.6013610000000  0.4936150000000 1.0
C      1  0.4985150000000  0.4866090000000  0.5889360000000 1.0
C      1  0.5415050000000  0.4715910000000  0.4897790000000 1.0
C      1  0.4880740000000  0.5806310000000  0.4216600000000 1.0
C      1  0.5334570000000  0.4030840000000  0.4714100000000 1.0
C      1  0.5402430000000  0.5743190000000  0.5625500000000 1.0
C      1  0.4589480000000  0.5225440000000  0.4352550000000 1.0
C      1  0.5954500000000  0.4869370000000  0.5137220000000 1.0
C      1  0.5105790000000  0.5268810000000  0.5166020000000 1.0
C      1  0.5519480000000  0.4200440000000  0.4579870000000 1.0
C      1  0.5319570000000  0.5895150000000  0.5403110000000 1.0
C      1  0.4488010000000  0.4994500000000  0.4518870000000 1.0
C      1  0.4592110000000  0.5070080000000  0.5706820000000 1.0
C      1  0.4508410000000  0.4208670000000  0.5563520000000 1.0
C      1  0.4742780000000  0.4716680000000  0.4149410000000 1.0
C      1  0.5493300000000  0.4001700000000  0.5181850000000 1.0
C      1  0.4183830000000  0.5344660000000  0.4688120000000 1.0
C      1  0.5017390000000  0.4193540000000  0.5023750000000 1.0
C      1  0.4986640000000  0.4354280000000  0.4345570000000 1.0
C      1  0.4827580000000  0.5219880000000  0.5128180000000 1.0
C      1  0.4783080000000  0.4268680000000  0.5562030000000 1.0
C      1  0.4301350000000  0.3805880000000  0.5854740000000 1.0
C      1  0.4273740000000  0.4820590000000  0.5057110000000 1.0
C      1  0.5841190000000  0.5031970000000  0.4923960000000 1.0
C      1  0.4220800000000  0.4881340000000  0.4467650000000 1.0
C      1  0.5595630000000  0.5531470000000  0.5595560000000 1.0
C      1  0.5442750000000  0.4279380000000  0.5248910000000 1.0
C      1  0.5073580000000  0.5158040000000  0.4303080000000 1.0
C      1  0.5289410000000  0.5289570000000  0.4952780000000 1.0
C      1  0.5526530000000  0.5434630000000  0.4904860000000 1.0
C      1  0.5680630000000  0.4449330000000  0.5177900000000 1.0
C      1  0.5445790000000  0.3889970000000  0.4937720000000 1.0
C      1  0.5196560000000  0.5117800000000  0.5380990000000 1.0
C      1  0.5700180000000  0.5039010000000  0.5661490000000 1.0
C      1  0.4482210000000  0.5066180000000  0.5437210000000 1.0
C      1  0.5050330000000  0.5145140000000  0.5840960000000 1.0
C      1  0.3824530000000  0.5955760000000  0.5162550000000 1.0
C      1  0.5101780000000  0.5004960000000  0.4536260000000 1.0
C      1  0.4899930000000  0.5608240000000  0.4414320000000 1.0
C      1  0.5499520000000  0.4949410000000  0.4148330000000 1.0
C      1  0.5232230000000  0.5808990000000  0.4738090000000 1.0
C      1  0.5804720000000  0.5548940000000  0.5407780000000 1.0
C      1  0.4228440000000  0.5524330000000  0.4471240000000 1.0
C      1  0.5290380000000  0.5120340000000  0.4127180000000 1.0
C      1  0.4470470000000  0.5007660000000  0.4819520000000 1.0
C      1  0.4050490000000  0.5100690000000  0.4580340000000 1.0
C      1  0.4856140000000  0.5334360000000  0.4333210000000 1.0
C      1  0.5386120000000  0.4712100000000  0.5507590000000 1.0
C      1  0.5696300000000  0.4412370000000  0.4650080000000 1.0
C      1  0.5219610000000  0.4325500000000  0.4191740000000 1.0
C      1  0.4065250000000  0.5258470000000  0.5261480000000 1.0
C      1  0.5929780000000  0.5461620000000  0.5170540000000 1.0
C      1  0.5182530000000  0.4751890000000  0.5037740000000 1.0
C      1  0.5793000000000  0.4691880000000  0.5296400000000 1.0
C      1  0.4968950000000  0.4766860000000  0.4589200000000 1.0
C      1  0.4780460000000  0.5270260000000  0.5816350000000 1.0
C      1  0.5229540000000  0.4843260000000  0.5311230000000 1.0
C      1  0.4425300000000  0.5290560000000  0.4860480000000 1.0
C      1  0.5143750000000  0.4331090000000  0.5245570000000 1.0
C      1  0.4351410000000  0.4375290000000  0.5401460000000 1.0
C      1  0.4029280000000  0.5779730000000  0.5118220000000 1.0
C      1  0.4894090000000  0.5801820000000  0.5170190000000 1.0
C      1  0.4365410000000  0.4392680000000  0.4554500000000 1.0
C      1  0.4872050000000  0.4190170000000  0.4549480000000 1.0
C      1  0.4758080000000  0.4813420000000  0.5719700000000 1.0
C      1  0.5710120000000  0.4672270000000  0.4516050000000 1.0
C      1  0.4941080000000  0.4459280000000  0.5419320000000 1.0
C      1  0.5141730000000  0.5938610000000  0.5192270000000 1.0
C      1  0.5442310000000  0.4472630000000  0.4156850000000 1.0
C      1  0.5772610000000  0.5310590000000  0.4983700000000 1.0
C      1  0.4661380000000  0.5402380000000  0.4977930000000 1.0
C      1  0.4341410000000  0.4583990000000  0.5237230000000 1.0
C      1  0.5658110000000  0.4791470000000  0.5525880000000 1.0
C      1  0.4097450000000  0.4676220000000  0.4859080000000 1.0
END
