TITL C-612605-9286-1219 -0.0145238553700915 125000 -747.154220109478 0 0 122 (C1) n - 1
REM
REM in /home/nfs/bkarasulu/CARBON/AIRSS/Generating-Clusters/TERSOFF/Only-C1/FIRE-HFTN
REM
REM
REM
REM
REM
REM ./C.cell (11c1c37f851c82e70ff6c80c92926a4b)
REM AIRSS Version 0.9.1 bugfix July 2018 build 013d7b7c2542+ Fri, 06 Jul 2018 19:26:36 +0100
REM compiler GCC version 9.2.1 20190827 (Red Hat 9.2.1-1)
REM options -cpp -mtune=generic -march=x86-64 -g -O0 -fpre-include=/usr/include/finclude/math-vector-fortran.h
REM seed -1755524131 -1439144521 -520996994 2050644287 1202424730 -1982383352 -587981351 1070349663 -1724471576 1798783141 1564011419 -1937202133 -34335902 -1403238783 -970171640 -172829302 1648159043 -1018222261 1249348428 2127340207 1965776663 -1480379355 3585395 1553519278 -530840974 -1617435010 -1039700422 919113114 137624382 1819413098 2043209538 -703168943 1107169591
REM
CELL 1.54180   50.00000   50.00000   50.00000   90.00000   90.00000   90.00000
LATT -1
SFAC C  
C      1  0.4439570000000  0.4563670000000  0.5360060000000 1.0
C      1  0.4681650000000  0.5021500000000  0.4816740000000 1.0
C      1  0.4902690000000  0.5371530000000  0.4107640000000 1.0
C      1  0.4373610000000  0.5494930000000  0.5941100000000 1.0
C      1  0.5136970000000  0.4967820000000  0.5824260000000 1.0
C      1  0.4335260000000  0.4577650000000  0.4342370000000 1.0
C      1  0.6065080000000  0.5073470000000  0.4873130000000 1.0
C      1  0.4942350000000  0.5558510000000  0.5127420000000 1.0
C      1  0.4668190000000  0.4852540000000  0.5874400000000 1.0
C      1  0.4962460000000  0.4504140000000  0.3827020000000 1.0
C      1  0.4903410000000  0.4123910000000  0.4394090000000 1.0
C      1  0.4434620000000  0.5156670000000  0.4816720000000 1.0
C      1  0.4584900000000  0.5410560000000  0.5778120000000 1.0
C      1  0.4924300000000  0.4292920000000  0.4839180000000 1.0
C      1  0.5953190000000  0.5084620000000  0.4618940000000 1.0
C      1  0.4844390000000  0.5057140000000  0.5051070000000 1.0
C      1  0.5502360000000  0.4955610000000  0.4086410000000 1.0
C      1  0.4823410000000  0.4708740000000  0.3728580000000 1.0
C      1  0.5228860000000  0.5491280000000  0.4459010000000 1.0
C      1  0.5099860000000  0.5245700000000  0.3953790000000 1.0
C      1  0.5325170000000  0.4461620000000  0.4199580000000 1.0
C      1  0.4690350000000  0.4938270000000  0.3754240000000 1.0
C      1  0.4453140000000  0.4519820000000  0.5073650000000 1.0
C      1  0.5635670000000  0.5127980000000  0.4268440000000 1.0
C      1  0.4462950000000  0.5552640000000  0.4124340000000 1.0
C      1  0.6004070000000  0.4876030000000  0.5457670000000 1.0
C      1  0.5502460000000  0.4931360000000  0.5466220000000 1.0
C      1  0.5341690000000  0.3874030000000  0.5285770000000 1.0
C      1  0.4329850000000  0.4789290000000  0.5502690000000 1.0
C      1  0.5751850000000  0.4431460000000  0.4810930000000 1.0
C      1  0.4799810000000  0.5814030000000  0.4730060000000 1.0
C      1  0.4252810000000  0.5659410000000  0.5300430000000 1.0
C      1  0.6095640000000  0.4804950000000  0.4969050000000 1.0
C      1  0.5016740000000  0.5282690000000  0.5084080000000 1.0
C      1  0.5263790000000  0.4829040000000  0.4565360000000 1.0
C      1  0.4387760000000  0.5308910000000  0.5045490000000 1.0
C      1  0.5258280000000  0.6150090000000  0.5048250000000 1.0
C      1  0.4385180000000  0.3902540000000  0.4694860000000 1.0
C      1  0.5522600000000  0.5803530000000  0.4834330000000 1.0
C      1  0.5987810000000  0.4590450000000  0.4811140000000 1.0
C      1  0.5043410000000  0.4338410000000  0.5761870000000 1.0
C      1  0.4571910000000  0.3811440000000  0.4862930000000 1.0
C      1  0.4501060000000  0.5250560000000  0.5301560000000 1.0
C      1  0.4176760000000  0.5564700000000  0.6104090000000 1.0
C      1  0.4527730000000  0.5097000000000  0.3920480000000 1.0
C      1  0.5426690000000  0.3633830000000  0.5726860000000 1.0
C      1  0.5743630000000  0.5300610000000  0.5597810000000 1.0
C      1  0.5572820000000  0.5792980000000  0.4553650000000 1.0
C      1  0.4513310000000  0.5807730000000  0.5319340000000 1.0
C      1  0.5883500000000  0.5512320000000  0.5147920000000 1.0
C      1  0.5199520000000  0.3940900000000  0.6047020000000 1.0
C      1  0.4243330000000  0.5153480000000  0.4614420000000 1.0
C      1  0.5436390000000  0.4531190000000  0.5202220000000 1.0
C      1  0.5375240000000  0.5535200000000  0.5867110000000 1.0
C      1  0.6039990000000  0.5310580000000  0.5024570000000 1.0
C      1  0.5265210000000  0.5895350000000  0.4930150000000 1.0
C      1  0.4544470000000  0.6013840000000  0.5116260000000 1.0
C      1  0.4034690000000  0.5201660000000  0.5442610000000 1.0
C      1  0.4744000000000  0.4853010000000  0.4598560000000 1.0
C      1  0.4684680000000  0.4433590000000  0.4926360000000 1.0
C      1  0.5776360000000  0.5023270000000  0.5515000000000 1.0
C      1  0.5014110000000  0.5751890000000  0.4918200000000 1.0
C      1  0.4224310000000  0.4744570000000  0.4145630000000 1.0
C      1  0.4552140000000  0.4687730000000  0.4481760000000 1.0
C      1  0.4091270000000  0.5471840000000  0.5450680000000 1.0
C      1  0.4551880000000  0.5910740000000  0.4847120000000 1.0
C      1  0.4925860000000  0.4874630000000  0.5985010000000 1.0
C      1  0.5567440000000  0.4356670000000  0.4608100000000 1.0
C      1  0.4019650000000  0.5193740000000  0.4486400000000 1.0
C      1  0.5052890000000  0.4273210000000  0.4575810000000 1.0
C      1  0.5316190000000  0.4356900000000  0.4471710000000 1.0
C      1  0.5495730000000  0.4677330000000  0.4130080000000 1.0
C      1  0.4108990000000  0.4931400000000  0.5368470000000 1.0
C      1  0.4860080000000  0.4860370000000  0.5246800000000 1.0
C      1  0.5491760000000  0.4921210000000  0.4700680000000 1.0
C      1  0.4840670000000  0.5510770000000  0.5829330000000 1.0
C      1  0.5097080000000  0.5566540000000  0.5865620000000 1.0
C      1  0.5441110000000  0.4820570000000  0.5211330000000 1.0
C      1  0.4802460000000  0.3858190000000  0.4991840000000 1.0
C      1  0.5426130000000  0.4994930000000  0.4976480000000 1.0
C      1  0.4499030000000  0.4942820000000  0.5671290000000 1.0
C      1  0.5242670000000  0.4355100000000  0.5313720000000 1.0
C      1  0.4922790000000  0.4678130000000  0.5427700000000 1.0
C      1  0.5484110000000  0.5318240000000  0.5725590000000 1.0
C      1  0.5534680000000  0.5709310000000  0.6004740000000 1.0
C      1  0.4976940000000  0.5529430000000  0.4340140000000 1.0
C      1  0.4254870000000  0.4316540000000  0.4403200000000 1.0
C      1  0.4760250000000  0.5655820000000  0.5326120000000 1.0
C      1  0.4054080000000  0.4814450000000  0.5111840000000 1.0
C      1  0.5131690000000  0.4400420000000  0.4005020000000 1.0
C      1  0.3978130000000  0.5631700000000  0.6259050000000 1.0
C      1  0.5194840000000  0.4096330000000  0.5201340000000 1.0
C      1  0.4785870000000  0.5708760000000  0.4462380000000 1.0
C      1  0.5695930000000  0.5031770000000  0.4529660000000 1.0
C      1  0.5065980000000  0.4454870000000  0.5509950000000 1.0
C      1  0.5852180000000  0.5494180000000  0.5428030000000 1.0
C      1  0.4276670000000  0.4083700000000  0.4531660000000 1.0
C      1  0.5477440000000  0.5599710000000  0.4371120000000 1.0
C      1  0.5426000000000  0.3699640000000  0.5468200000000 1.0
C      1  0.5017580000000  0.4733680000000  0.6497520000000 1.0
C      1  0.4539560000000  0.5211000000000  0.5580010000000 1.0
C      1  0.5192430000000  0.6613880000000  0.5286530000000 1.0
C      1  0.5645490000000  0.4404200000000  0.5068440000000 1.0
C      1  0.4544470000000  0.5729800000000  0.4312660000000 1.0
C      1  0.4971180000000  0.4806940000000  0.6251770000000 1.0
C      1  0.5259360000000  0.5350890000000  0.4697560000000 1.0
C      1  0.5305800000000  0.5078720000000  0.3928350000000 1.0
C      1  0.4985880000000  0.4070940000000  0.5012930000000 1.0
C      1  0.5718440000000  0.5690370000000  0.5004080000000 1.0
C      1  0.4625000000000  0.5338120000000  0.4036250000000 1.0
C      1  0.5005980000000  0.4840340000000  0.4510500000000 1.0
C      1  0.6133060000000  0.4776130000000  0.5245640000000 1.0
C      1  0.4321900000000  0.5742480000000  0.4812610000000 1.0
C      1  0.4295570000000  0.4966870000000  0.4013360000000 1.0
C      1  0.5090120000000  0.4168080000000  0.5960500000000 1.0
C      1  0.5340430000000  0.5070470000000  0.5665000000000 1.0
C      1  0.4259620000000  0.5562470000000  0.5020940000000 1.0
C      1  0.5335150000000  0.3727720000000  0.5959910000000 1.0
C      1  0.5636820000000  0.5410780000000  0.4234350000000 1.0
C      1  0.5263410000000  0.5235410000000  0.4953620000000 1.0
C      1  0.5227890000000  0.6384480000000  0.5167870000000 1.0
C      1  0.4211520000000  0.4639360000000  0.4970390000000 1.0
END
