TITL C-612606-7351-235 41.273339748441 125000 -589.202539102257 0 0 98 (C1) n - 1
REM
REM in /home/nfs/bkarasulu/CARBON/AIRSS/Generating-Clusters/TERSOFF/Only-C1/FIRE-HFTN
REM
REM
REM
REM
REM
REM ./C.cell (11c1c37f851c82e70ff6c80c92926a4b)
REM AIRSS Version 0.9.1 bugfix July 2018 build 013d7b7c2542+ Fri, 06 Jul 2018 19:26:36 +0100
REM compiler GCC version 9.2.1 20190827 (Red Hat 9.2.1-1)
REM options -cpp -mtune=generic -march=x86-64 -g -O0 -fpre-include=/usr/include/finclude/math-vector-fortran.h
REM seed 1285449893 529053706 948231697 1443382970 965128516 -595469665 -260837596 1259316254 1761461957 -2121848893 1836372775 569032660 1714772363 -336416133 74789165 -1031715255 220108760 -483951402 -1397394257 1751659548 -243728382 1566628687 1093157597 1243283760 1794744847 -213890708 -273245839 1092067493 -139775670 689057100 177253772 -1691056614 -1922116172
REM
CELL 1.54180   50.00000   50.00000   50.00000   90.00000   90.00000   90.00000
LATT -1
SFAC C  
C      1  0.5323550000000  0.5068300000000  0.5283850000000 1.0
C      1  0.4339620000000  0.5493270000000  0.5627230000000 1.0
C      1  0.5752510000000  0.5573840000000  0.4924050000000 1.0
C      1  0.5961300000000  0.5295900000000  0.5459420000000 1.0
C      1  0.5111560000000  0.5601930000000  0.5011190000000 1.0
C      1  0.5276250000000  0.5174590000000  0.5808090000000 1.0
C      1  0.5714420000000  0.5604190000000  0.4659410000000 1.0
C      1  0.4653800000000  0.4781740000000  0.4728740000000 1.0
C      1  0.4838880000000  0.5487890000000  0.4384640000000 1.0
C      1  0.5443790000000  0.4384390000000  0.4635370000000 1.0
C      1  0.4823570000000  0.5698230000000  0.4606780000000 1.0
C      1  0.5803720000000  0.4862060000000  0.4372900000000 1.0
C      1  0.5044110000000  0.5321460000000  0.4248750000000 1.0
C      1  0.5387070000000  0.5023660000000  0.4052120000000 1.0
C      1  0.6070610000000  0.5137710000000  0.5257540000000 1.0
C      1  0.5544720000000  0.5007660000000  0.4866790000000 1.0
C      1  0.5132350000000  0.4868710000000  0.4093610000000 1.0
C      1  0.4459330000000  0.4246270000000  0.5175920000000 1.0
C      1  0.5702370000000  0.4907700000000  0.5425310000000 1.0
C      1  0.5001790000000  0.5132400000000  0.5009910000000 1.0
C      1  0.5440640000000  0.5339750000000  0.5631060000000 1.0
C      1  0.5357210000000  0.4335370000000  0.4388610000000 1.0
C      1  0.4386490000000  0.4899560000000  0.4337640000000 1.0
C      1  0.4751320000000  0.4784590000000  0.5159210000000 1.0
C      1  0.4315950000000  0.4295820000000  0.5658560000000 1.0
C      1  0.5898270000000  0.4831510000000  0.4628670000000 1.0
C      1  0.4552780000000  0.5747280000000  0.4722070000000 1.0
C      1  0.4319780000000  0.4636120000000  0.4448740000000 1.0
C      1  0.5018120000000  0.5038620000000  0.4302060000000 1.0
C      1  0.5126760000000  0.5348180000000  0.4853380000000 1.0
C      1  0.5494070000000  0.5489620000000  0.4228710000000 1.0
C      1  0.5356180000000  0.5029280000000  0.4649080000000 1.0
C      1  0.4903270000000  0.4751530000000  0.4635180000000 1.0
C      1  0.4318490000000  0.5925250000000  0.5104640000000 1.0
C      1  0.5306960000000  0.5316270000000  0.4107520000000 1.0
C      1  0.4513740000000  0.4281630000000  0.5456860000000 1.0
C      1  0.4571130000000  0.4822050000000  0.4126590000000 1.0
C      1  0.4364740000000  0.5236150000000  0.5239500000000 1.0
C      1  0.5143650000000  0.4344740000000  0.5336900000000 1.0
C      1  0.4366690000000  0.5533490000000  0.4742540000000 1.0
C      1  0.5090830000000  0.4152770000000  0.5139330000000 1.0
C      1  0.5011290000000  0.4082790000000  0.4893620000000 1.0
C      1  0.5018280000000  0.4349050000000  0.5595820000000 1.0
C      1  0.5433220000000  0.4468930000000  0.4901010000000 1.0
C      1  0.5253080000000  0.4422930000000  0.5759830000000 1.0
C      1  0.4466680000000  0.4276740000000  0.4904890000000 1.0
C      1  0.5107560000000  0.4918270000000  0.4545720000000 1.0
C      1  0.5047400000000  0.5736010000000  0.5542210000000 1.0
C      1  0.5012690000000  0.4846810000000  0.5037040000000 1.0
C      1  0.5247570000000  0.4677400000000  0.5887160000000 1.0
C      1  0.4415700000000  0.5154570000000  0.4465340000000 1.0
C      1  0.4869600000000  0.4952230000000  0.5985280000000 1.0
C      1  0.4734560000000  0.4690930000000  0.5419680000000 1.0
C      1  0.5317470000000  0.5321650000000  0.4645130000000 1.0
C      1  0.5013720000000  0.4601040000000  0.4115890000000 1.0
C      1  0.4425470000000  0.4672100000000  0.5986890000000 1.0
C      1  0.4837510000000  0.5583370000000  0.5679620000000 1.0
C      1  0.5191470000000  0.4395380000000  0.4188000000000 1.0
C      1  0.4844230000000  0.5986480000000  0.5037110000000 1.0
C      1  0.5600220000000  0.4344440000000  0.5111750000000 1.0
C      1  0.5139370000000  0.4941240000000  0.5901280000000 1.0
C      1  0.5895130000000  0.4914820000000  0.5177940000000 1.0
C      1  0.4585310000000  0.5349820000000  0.4337970000000 1.0
C      1  0.4070600000000  0.4564600000000  0.4548000000000 1.0
C      1  0.4730510000000  0.4581070000000  0.4193640000000 1.0
C      1  0.5701970000000  0.5197190000000  0.5553380000000 1.0
C      1  0.4379180000000  0.5101830000000  0.4983140000000 1.0
C      1  0.5803300000000  0.4889210000000  0.4893760000000 1.0
C      1  0.5228720000000  0.4650000000000  0.5014470000000 1.0
C      1  0.5565930000000  0.5456890000000  0.5096710000000 1.0
C      1  0.4627000000000  0.4844930000000  0.6019390000000 1.0
C      1  0.4557400000000  0.4451310000000  0.4421010000000 1.0
C      1  0.5279930000000  0.4599530000000  0.5297200000000 1.0
C      1  0.5503730000000  0.4326990000000  0.5634640000000 1.0
C      1  0.4856790000000  0.4137890000000  0.4680480000000 1.0
C      1  0.4650910000000  0.5670910000000  0.5264690000000 1.0
C      1  0.4997800000000  0.5813750000000  0.4831130000000 1.0
C      1  0.4866380000000  0.5532710000000  0.5179420000000 1.0
C      1  0.4555930000000  0.5944190000000  0.4943570000000 1.0
C      1  0.4749350000000  0.4431770000000  0.5531760000000 1.0
C      1  0.4348070000000  0.5248250000000  0.4732760000000 1.0
C      1  0.5351650000000  0.5610680000000  0.5198940000000 1.0
C      1  0.4180780000000  0.5720230000000  0.5222270000000 1.0
C      1  0.3839990000000  0.4506700000000  0.4654640000000 1.0
C      1  0.4300600000000  0.4467980000000  0.5865950000000 1.0
C      1  0.5632390000000  0.4925880000000  0.4170490000000 1.0
C      1  0.5425660000000  0.4823280000000  0.5393390000000 1.0
C      1  0.5505910000000  0.5491460000000  0.4510070000000 1.0
C      1  0.5488240000000  0.5184460000000  0.5083610000000 1.0
C      1  0.4222670000000  0.5472290000000  0.5357890000000 1.0
C      1  0.4616790000000  0.5403270000000  0.5632140000000 1.0
C      1  0.4967940000000  0.5958620000000  0.5330060000000 1.0
C      1  0.4612620000000  0.4278830000000  0.4652950000000 1.0
C      1  0.5619700000000  0.4298060000000  0.5384270000000 1.0
C      1  0.4845920000000  0.5253390000000  0.5220220000000 1.0
C      1  0.4542410000000  0.4863460000000  0.4975200000000 1.0
C      1  0.5300580000000  0.5580990000000  0.5486520000000 1.0
C      1  0.4622700000000  0.5218890000000  0.5394600000000 1.0
END
