TITL C-612607-4507-387 3866.02370633035 125000 -697.531481266611 0 0 118 (C1) n - 1
REM
REM in /home/nfs/bkarasulu/CARBON/AIRSS/Generating-Clusters/TERSOFF/Only-C1/FIRE-HFTN
REM
REM
REM
REM
REM
REM ./C.cell (11c1c37f851c82e70ff6c80c92926a4b)
REM AIRSS Version 0.9.1 bugfix July 2018 build 013d7b7c2542+ Fri, 06 Jul 2018 19:26:36 +0100
REM compiler GCC version 9.2.1 20190827 (Red Hat 9.2.1-1)
REM options -cpp -mtune=generic -march=x86-64 -g -O0 -fpre-include=/usr/include/finclude/math-vector-fortran.h
REM seed 2072754634 748110796 1990046860 -567176391 942286427 1387696588 -1777319621 975117074 827342782 1661907245 1759122492 -1543313315 1893833587 710754122 -259244872 1052155447 -475740509 -1647472590 -1780364920 -122092417 796286137 920213719 698482204 1102712004 1900439280 277712747 -1508959878 420388091 1087300746 2114584947 612915550 141309017 -22158777
REM
CELL 1.54180   50.00000   50.00000   50.00000   90.00000   90.00000   90.00000
LATT -1
SFAC C  
C      1  0.4650520000000  0.4390010000000  0.4728700000000 1.0
C      1  0.3633570000000  0.5655370000000  0.4970750000000 1.0
C      1  0.6429080000000  0.5073540000000  0.5627960000000 1.0
C      1  0.4941400000000  0.6070870000000  0.4917200000000 1.0
C      1  0.5524020000000  0.5307450000000  0.5175260000000 1.0
C      1  0.4892160000000  0.5302010000000  0.4687030000000 1.0
C      1  0.5122520000000  0.4556190000000  0.4591340000000 1.0
C      1  0.4060530000000  0.5024950000000  0.5703110000000 1.0
C      1  0.5014860000000  0.5064980000000  0.4091910000000 1.0
C      1  0.4906000000000  0.4313840000000  0.5160090000000 1.0
C      1  0.5459020000000  0.5656960000000  0.5670510000000 1.0
C      1  0.5193520000000  0.5624140000000  0.5694410000000 1.0
C      1  0.4651890000000  0.5076780000000  0.5042290000000 1.0
C      1  0.6042520000000  0.4920920000000  0.4431670000000 1.0
C      1  0.5513490000000  0.4466060000000  0.4920700000000 1.0
C      1  0.5544920000000  0.5178620000000  0.4704370000000 1.0
C      1  0.4544360000000  0.4881790000000  0.4854430000000 1.0
C      1  0.5972080000000  0.5152570000000  0.4580230000000 1.0
C      1  0.3920080000000  0.4041650000000  0.3792390000000 1.0
C      1  0.4084350000000  0.4057540000000  0.3994190000000 1.0
C      1  0.5377530000000  0.4444350000000  0.4666690000000 1.0
C      1  0.5612390000000  0.4769940000000  0.4253580000000 1.0
C      1  0.5096040000000  0.4842200000000  0.5024220000000 1.0
C      1  0.4527270000000  0.4764860000000  0.4199250000000 1.0
C      1  0.4711610000000  0.4564210000000  0.5487300000000 1.0
C      1  0.4564480000000  0.5763560000000  0.5235200000000 1.0
C      1  0.4514460000000  0.5005650000000  0.5509290000000 1.0
C      1  0.4336560000000  0.5697740000000  0.4781830000000 1.0
C      1  0.5100200000000  0.5121370000000  0.4688460000000 1.0
C      1  0.4829480000000  0.4158710000000  0.4734380000000 1.0
C      1  0.5122740000000  0.4830050000000  0.4206820000000 1.0
C      1  0.4831390000000  0.5372150000000  0.4414270000000 1.0
C      1  0.5148270000000  0.4168010000000  0.5136490000000 1.0
C      1  0.4683780000000  0.5892550000000  0.4525810000000 1.0
C      1  0.5669010000000  0.4901340000000  0.5512770000000 1.0
C      1  0.4422600000000  0.4117940000000  0.4414280000000 1.0
C      1  0.4261850000000  0.5131610000000  0.5544290000000 1.0
C      1  0.5344190000000  0.5042980000000  0.4577220000000 1.0
C      1  0.4418770000000  0.5448270000000  0.4931040000000 1.0
C      1  0.6567280000000  0.4916490000000  0.5783510000000 1.0
C      1  0.4453030000000  0.5070210000000  0.4557160000000 1.0
C      1  0.4843560000000  0.5613480000000  0.5219950000000 1.0
C      1  0.4830170000000  0.5382130000000  0.5401780000000 1.0
C      1  0.5917020000000  0.5545190000000  0.5428300000000 1.0
C      1  0.6129600000000  0.5327970000000  0.5023610000000 1.0
C      1  0.4936220000000  0.4203810000000  0.5743950000000 1.0
C      1  0.5149550000000  0.5876910000000  0.4938500000000 1.0
C      1  0.5820440000000  0.5349820000000  0.4419600000000 1.0
C      1  0.5385020000000  0.4336680000000  0.5154300000000 1.0
C      1  0.5809650000000  0.4937370000000  0.5034430000000 1.0
C      1  0.5180270000000  0.5889860000000  0.4449780000000 1.0
C      1  0.3644230000000  0.5931730000000  0.4583230000000 1.0
C      1  0.5291050000000  0.5850150000000  0.4694460000000 1.0
C      1  0.5162480000000  0.4867060000000  0.5523450000000 1.0
C      1  0.4688990000000  0.5136220000000  0.5322200000000 1.0
C      1  0.4921210000000  0.5911150000000  0.4373800000000 1.0
C      1  0.4725430000000  0.4828880000000  0.5917920000000 1.0
C      1  0.4344840000000  0.4923310000000  0.4345160000000 1.0
C      1  0.4571440000000  0.5854970000000  0.5521420000000 1.0
C      1  0.5150610000000  0.4947950000000  0.5257990000000 1.0
C      1  0.5187060000000  0.4579250000000  0.5544870000000 1.0
C      1  0.5129060000000  0.5067770000000  0.5716830000000 1.0
C      1  0.5094570000000  0.3889790000000  0.5092750000000 1.0
C      1  0.4693930000000  0.6016720000000  0.4793170000000 1.0
C      1  0.4705680000000  0.5715920000000  0.5718470000000 1.0
C      1  0.4557250000000  0.4372000000000  0.4458720000000 1.0
C      1  0.4549130000000  0.5400580000000  0.4435150000000 1.0
C      1  0.4613450000000  0.4777710000000  0.5649680000000 1.0
C      1  0.5522160000000  0.3789920000000  0.4016110000000 1.0
C      1  0.4592390000000  0.4595320000000  0.4930070000000 1.0
C      1  0.5584390000000  0.5422990000000  0.4294990000000 1.0
C      1  0.5315480000000  0.5423760000000  0.4233650000000 1.0
C      1  0.4494000000000  0.5902390000000  0.4964840000000 1.0
C      1  0.4947340000000  0.4437450000000  0.5603310000000 1.0
C      1  0.4737100000000  0.5109980000000  0.5976890000000 1.0
C      1  0.5984160000000  0.5124080000000  0.4877250000000 1.0
C      1  0.5045880000000  0.4108940000000  0.4560560000000 1.0
C      1  0.5459700000000  0.4818230000000  0.5962170000000 1.0
C      1  0.4941530000000  0.5245320000000  0.5838140000000 1.0
C      1  0.5707870000000  0.5634210000000  0.5571480000000 1.0
C      1  0.5805130000000  0.5153000000000  0.5909850000000 1.0
C      1  0.5109600000000  0.5668510000000  0.5128800000000 1.0
C      1  0.5372710000000  0.4883820000000  0.4340520000000 1.0
C      1  0.4231260000000  0.5372640000000  0.5400910000000 1.0
C      1  0.5665480000000  0.5065150000000  0.5269030000000 1.0
C      1  0.5311930000000  0.5490610000000  0.5226050000000 1.0
C      1  0.3496340000000  0.4634680000000  0.6095380000000 1.0
C      1  0.5039930000000  0.5321630000000  0.4219390000000 1.0
C      1  0.5417810000000  0.4472720000000  0.5407980000000 1.0
C      1  0.5586170000000  0.5352000000000  0.4901310000000 1.0
C      1  0.5360850000000  0.3887680000000  0.4196060000000 1.0
C      1  0.5877500000000  0.4764660000000  0.4287950000000 1.0
C      1  0.5223020000000  0.4720080000000  0.6052830000000 1.0
C      1  0.4674150000000  0.5313210000000  0.4878430000000 1.0
C      1  0.5642860000000  0.4964830000000  0.5794190000000 1.0
C      1  0.3773320000000  0.5779770000000  0.4770830000000 1.0
C      1  0.4867630000000  0.3775480000000  0.4984080000000 1.0
C      1  0.5652760000000  0.4619300000000  0.5463150000000 1.0
C      1  0.4485860000000  0.5671060000000  0.4517370000000 1.0
C      1  0.5709880000000  0.4677490000000  0.4953560000000 1.0
C      1  0.5199770000000  0.3990740000000  0.4379520000000 1.0
C      1  0.5028910000000  0.4700590000000  0.4812580000000 1.0
C      1  0.4696530000000  0.4509760000000  0.5197210000000 1.0
C      1  0.3683530000000  0.4768060000000  0.5972360000000 1.0
C      1  0.6104120000000  0.5370130000000  0.5307010000000 1.0
C      1  0.4079320000000  0.4930380000000  0.4283490000000 1.0
C      1  0.6279550000000  0.5228850000000  0.5474030000000 1.0
C      1  0.4982110000000  0.4617140000000  0.4339460000000 1.0
C      1  0.6304840000000  0.5489300000000  0.4885760000000 1.0
C      1  0.4697420000000  0.4560960000000  0.4293370000000 1.0
C      1  0.4051160000000  0.5751160000000  0.4758350000000 1.0
C      1  0.4250240000000  0.4077130000000  0.4199820000000 1.0
C      1  0.4369760000000  0.5519980000000  0.5210740000000 1.0
C      1  0.4914320000000  0.5498330000000  0.5683280000000 1.0
C      1  0.3872820000000  0.4901030000000  0.5842960000000 1.0
C      1  0.4951880000000  0.4693840000000  0.6034860000000 1.0
C      1  0.4693890000000  0.3909340000000  0.4801510000000 1.0
C      1  0.4477930000000  0.3907570000000  0.4610680000000 1.0
END
