TITL C-612604-1799-1160 137.780931819087 125000 -917.621849839631 0 0 152 (C1) n - 1
REM
REM in /home/nfs/bkarasulu/CARBON/AIRSS/Generating-Clusters/TERSOFF/Only-C1/FIRE-HFTN
REM
REM
REM
REM
REM
REM ./C.cell (11c1c37f851c82e70ff6c80c92926a4b)
REM AIRSS Version 0.9.1 bugfix July 2018 build 013d7b7c2542+ Fri, 06 Jul 2018 19:26:36 +0100
REM compiler GCC version 9.2.1 20190827 (Red Hat 9.2.1-1)
REM options -cpp -mtune=generic -march=x86-64 -g -O0 -fpre-include=/usr/include/finclude/math-vector-fortran.h
REM seed -826752614 -1985380326 -194178444 -384992471 -1618145309 1440952273 106905749 -538752496 1079396987 191069816 595660155 2036232097 1094185442 1983210193 1466432460 -519914058 -1018624341 1871779798 -255891618 1440712701 1431006078 -734481393 -1207846854 2069175986 1720923793 1471532304 845083670 -1265085755 1418874117 -594767042 988799943 -1450684229 -1307528897
REM
CELL 1.54180   50.00000   50.00000   50.00000   90.00000   90.00000   90.00000
LATT -1
SFAC C  
C      1  0.4723550000000  0.4242640000000  0.4176050000000 1.0
C      1  0.4880710000000  0.5612610000000  0.4743180000000 1.0
C      1  0.3909940000000  0.5240260000000  0.5288040000000 1.0
C      1  0.5728170000000  0.5474480000000  0.5559080000000 1.0
C      1  0.4889760000000  0.3859560000000  0.5139400000000 1.0
C      1  0.5693740000000  0.4421000000000  0.4537160000000 1.0
C      1  0.6114810000000  0.4951100000000  0.5180150000000 1.0
C      1  0.4795960000000  0.6030530000000  0.4937510000000 1.0
C      1  0.4648340000000  0.5200660000000  0.4758120000000 1.0
C      1  0.4487810000000  0.4870500000000  0.4028870000000 1.0
C      1  0.5210660000000  0.4354220000000  0.5948570000000 1.0
C      1  0.5021610000000  0.5526400000000  0.5460380000000 1.0
C      1  0.4821940000000  0.4814680000000  0.5326920000000 1.0
C      1  0.4129830000000  0.5085720000000  0.4557530000000 1.0
C      1  0.5319560000000  0.6031020000000  0.4437060000000 1.0
C      1  0.5074970000000  0.5418260000000  0.5928830000000 1.0
C      1  0.4072470000000  0.5891300000000  0.4165550000000 1.0
C      1  0.4825830000000  0.4037790000000  0.4337230000000 1.0
C      1  0.5641340000000  0.5445160000000  0.5073510000000 1.0
C      1  0.4301160000000  0.4069510000000  0.4877200000000 1.0
C      1  0.5612670000000  0.4998380000000  0.4143080000000 1.0
C      1  0.4652940000000  0.5243270000000  0.4482470000000 1.0
C      1  0.5917160000000  0.5563290000000  0.4468420000000 1.0
C      1  0.5353100000000  0.4808810000000  0.6028690000000 1.0
C      1  0.5226350000000  0.4959890000000  0.4822260000000 1.0
C      1  0.4658840000000  0.4405370000000  0.4764650000000 1.0
C      1  0.4458370000000  0.5407960000000  0.4350110000000 1.0
C      1  0.4862410000000  0.4965760000000  0.5952320000000 1.0
C      1  0.4293620000000  0.5206300000000  0.5007140000000 1.0
C      1  0.4290990000000  0.5611430000000  0.5313000000000 1.0
C      1  0.5089840000000  0.4957180000000  0.3674650000000 1.0
C      1  0.5215190000000  0.4447600000000  0.4326810000000 1.0
C      1  0.5194010000000  0.5971580000000  0.5223670000000 1.0
C      1  0.5187800000000  0.4718140000000  0.4245500000000 1.0
C      1  0.4359730000000  0.4546620000000  0.5484770000000 1.0
C      1  0.5862700000000  0.4566830000000  0.5345910000000 1.0
C      1  0.5156660000000  0.5890390000000  0.5723340000000 1.0
C      1  0.5441700000000  0.4540530000000  0.5951260000000 1.0
C      1  0.5068220000000  0.4792130000000  0.6056980000000 1.0
C      1  0.6040840000000  0.5120040000000  0.5821920000000 1.0
C      1  0.4954350000000  0.4846320000000  0.4340430000000 1.0
C      1  0.5809630000000  0.4831320000000  0.4258270000000 1.0
C      1  0.5200250000000  0.4113210000000  0.5797750000000 1.0
C      1  0.4067780000000  0.5126970000000  0.4849680000000 1.0
C      1  0.5523730000000  0.6509190000000  0.5608800000000 1.0
C      1  0.5903450000000  0.5035460000000  0.5012180000000 1.0
C      1  0.4446770000000  0.4021690000000  0.5396120000000 1.0
C      1  0.5787690000000  0.5817470000000  0.4458030000000 1.0
C      1  0.4049150000000  0.4612310000000  0.4888800000000 1.0
C      1  0.5827280000000  0.4599790000000  0.4390680000000 1.0
C      1  0.6205300000000  0.4986910000000  0.5974150000000 1.0
C      1  0.5374540000000  0.4851790000000  0.4065490000000 1.0
C      1  0.4874170000000  0.3915740000000  0.4579300000000 1.0
C      1  0.4949220000000  0.4568530000000  0.5291620000000 1.0
C      1  0.5051580000000  0.5397400000000  0.4824050000000 1.0
C      1  0.5480170000000  0.4372700000000  0.4718000000000 1.0
C      1  0.4944740000000  0.4395970000000  0.5506560000000 1.0
C      1  0.5307710000000  0.5468900000000  0.4687730000000 1.0
C      1  0.5545330000000  0.5416950000000  0.5349150000000 1.0
C      1  0.5145890000000  0.3958390000000  0.5581400000000 1.0
C      1  0.4121490000000  0.3918160000000  0.5013090000000 1.0
C      1  0.5389070000000  0.6291390000000  0.5560390000000 1.0
C      1  0.5060710000000  0.6008750000000  0.4516090000000 1.0
C      1  0.4890690000000  0.5935160000000  0.5189140000000 1.0
C      1  0.3893740000000  0.5692090000000  0.4196670000000 1.0
C      1  0.5765060000000  0.5732840000000  0.5641820000000 1.0
C      1  0.4478310000000  0.4319160000000  0.4528340000000 1.0
C      1  0.4786670000000  0.5734660000000  0.4099960000000 1.0
C      1  0.4356210000000  0.5341060000000  0.5867410000000 1.0
C      1  0.4664590000000  0.4922980000000  0.4827620000000 1.0
C      1  0.4102550000000  0.4012760000000  0.4425410000000 1.0
C      1  0.4280210000000  0.4124810000000  0.4597440000000 1.0
C      1  0.5878800000000  0.5269600000000  0.5674910000000 1.0
C      1  0.4589120000000  0.5358600000000  0.5997070000000 1.0
C      1  0.5515710000000  0.4115120000000  0.5124100000000 1.0
C      1  0.4528950000000  0.4436420000000  0.4275550000000 1.0
C      1  0.4898030000000  0.3859550000000  0.4847070000000 1.0
C      1  0.5964460000000  0.5435010000000  0.4716210000000 1.0
C      1  0.4846140000000  0.5248630000000  0.5972950000000 1.0
C      1  0.5563700000000  0.5955920000000  0.4561770000000 1.0
C      1  0.5130280000000  0.3887170000000  0.5303560000000 1.0
C      1  0.4517740000000  0.5369110000000  0.4953770000000 1.0
C      1  0.5263020000000  0.5358880000000  0.5405070000000 1.0
C      1  0.3972030000000  0.4740950000000  0.5132430000000 1.0
C      1  0.5250580000000  0.6054120000000  0.5508600000000 1.0
C      1  0.5767040000000  0.4472510000000  0.5590700000000 1.0
C      1  0.5381720000000  0.6108820000000  0.5018830000000 1.0
C      1  0.4881700000000  0.5893750000000  0.4703900000000 1.0
C      1  0.4637480000000  0.3868430000000  0.5274870000000 1.0
C      1  0.4337730000000  0.5862500000000  0.4193930000000 1.0
C      1  0.3958670000000  0.5444800000000  0.4278630000000 1.0
C      1  0.4537320000000  0.4675820000000  0.4810820000000 1.0
C      1  0.5039730000000  0.4482900000000  0.5046130000000 1.0
C      1  0.4122150000000  0.5396660000000  0.5426110000000 1.0
C      1  0.5059360000000  0.5283900000000  0.4275140000000 1.0
C      1  0.5360090000000  0.4892070000000  0.5498930000000 1.0
C      1  0.5051170000000  0.5137010000000  0.4956650000000 1.0
C      1  0.5481570000000  0.4891610000000  0.4811980000000 1.0
C      1  0.5458980000000  0.5626890000000  0.4915330000000 1.0
C      1  0.4529940000000  0.4220520000000  0.4971980000000 1.0
C      1  0.4656600000000  0.5023800000000  0.3885440000000 1.0
C      1  0.4354260000000  0.5034640000000  0.5218370000000 1.0
C      1  0.5305560000000  0.4843720000000  0.3790730000000 1.0
C      1  0.5058080000000  0.5626120000000  0.5730770000000 1.0
C      1  0.5705580000000  0.4831000000000  0.4965130000000 1.0
C      1  0.5699450000000  0.4466450000000  0.5863150000000 1.0
C      1  0.4237140000000  0.4820480000000  0.4471810000000 1.0
C      1  0.5199640000000  0.5086050000000  0.5397910000000 1.0
C      1  0.5208500000000  0.4393130000000  0.4608770000000 1.0
C      1  0.4553530000000  0.5553440000000  0.5180620000000 1.0
C      1  0.4870530000000  0.5110300000000  0.4368740000000 1.0
C      1  0.5658930000000  0.5287670000000  0.4134840000000 1.0
C      1  0.4978220000000  0.5033140000000  0.5225690000000 1.0
C      1  0.4106830000000  0.4624620000000  0.5361670000000 1.0
C      1  0.5899010000000  0.5396450000000  0.4239430000000 1.0
C      1  0.5052110000000  0.5310920000000  0.3985860000000 1.0
C      1  0.5285980000000  0.5420200000000  0.4401410000000 1.0
C      1  0.4970090000000  0.4414570000000  0.4779390000000 1.0
C      1  0.4470330000000  0.4278820000000  0.5517990000000 1.0
C      1  0.6095910000000  0.4729170000000  0.5335110000000 1.0
C      1  0.5035700000000  0.5758530000000  0.3989560000000 1.0
C      1  0.4500480000000  0.4385740000000  0.6117620000000 1.0
C      1  0.5448790000000  0.5072510000000  0.6039050000000 1.0
C      1  0.4267720000000  0.5242090000000  0.5623110000000 1.0
C      1  0.4914690000000  0.5124150000000  0.3821520000000 1.0
C      1  0.3899540000000  0.5025400000000  0.5079180000000 1.0
C      1  0.4552310000000  0.4786190000000  0.5563020000000 1.0
C      1  0.5383050000000  0.3873320000000  0.5171260000000 1.0
C      1  0.4733110000000  0.4283730000000  0.5624060000000 1.0
C      1  0.4135540000000  0.6128450000000  0.5339110000000 1.0
C      1  0.4659210000000  0.4779510000000  0.5843520000000 1.0
C      1  0.6066500000000  0.4311150000000  0.6227610000000 1.0
C      1  0.4264890000000  0.4678060000000  0.4721640000000 1.0
C      1  0.4807800000000  0.5662320000000  0.5287930000000 1.0
C      1  0.5525040000000  0.5918380000000  0.4841180000000 1.0
C      1  0.5442050000000  0.5474840000000  0.4155850000000 1.0
C      1  0.4535940000000  0.5661010000000  0.4216690000000 1.0
C      1  0.4696300000000  0.4531790000000  0.5998370000000 1.0
C      1  0.4181800000000  0.5312810000000  0.4387390000000 1.0
C      1  0.5889930000000  0.4384460000000  0.6050520000000 1.0
C      1  0.5851780000000  0.5306680000000  0.4941320000000 1.0
C      1  0.5283920000000  0.4254390000000  0.4145180000000 1.0
C      1  0.4980880000000  0.4506850000000  0.6044390000000 1.0
C      1  0.5268020000000  0.5693360000000  0.5141100000000 1.0
C      1  0.4202970000000  0.5876980000000  0.5328250000000 1.0
C      1  0.5490700000000  0.3633590000000  0.5096830000000 1.0
C      1  0.5706190000000  0.4576410000000  0.5105010000000 1.0
C      1  0.4403320000000  0.4705550000000  0.4245590000000 1.0
C      1  0.5324730000000  0.5311610000000  0.6012490000000 1.0
C      1  0.5227220000000  0.5546420000000  0.3957360000000 1.0
C      1  0.4395750000000  0.5025770000000  0.5493710000000 1.0
C      1  0.5561320000000  0.4356210000000  0.4991890000000 1.0
END
