TITL C-612605-9286-70 4.82966366947105 125000 -1163.08905902001 0 0 186 (C1) n - 1
REM
REM in /home/nfs/bkarasulu/CARBON/AIRSS/Generating-Clusters/TERSOFF/Only-C1/FIRE-HFTN
REM
REM
REM
REM
REM
REM ./C.cell (11c1c37f851c82e70ff6c80c92926a4b)
REM AIRSS Version 0.9.1 bugfix July 2018 build 013d7b7c2542+ Fri, 06 Jul 2018 19:26:36 +0100
REM compiler GCC version 9.2.1 20190827 (Red Hat 9.2.1-1)
REM options -cpp -mtune=generic -march=x86-64 -g -O0 -fpre-include=/usr/include/finclude/math-vector-fortran.h
REM seed 1815344621 456851324 1569532683 -731759778 1426502622 1498422132 -364369622 1741810957 -695096873 -1562076290 1193094006 -1568172923 -844030030 -1288185133 -1480231947 -13650885 328832311 -1417164394 -1787717738 -848936301 1071082616 -1207903759 -1794004958 770095846 -1228000058 -292267544 636034042 903008839 884953008 501148809 39463902 -1997947612 -868585368
REM
CELL 1.54180   50.00000   50.00000   50.00000   90.00000   90.00000   90.00000
LATT -1
SFAC C  
C      1  0.5255940000000  0.4179940000000  0.4819150000000 1.0
C      1  0.4615660000000  0.5700240000000  0.4961950000000 1.0
C      1  0.4388550000000  0.5066960000000  0.6747130000000 1.0
C      1  0.4089000000000  0.5552940000000  0.4569030000000 1.0
C      1  0.5174710000000  0.5435190000000  0.4724920000000 1.0
C      1  0.4722030000000  0.5061210000000  0.5439430000000 1.0
C      1  0.3959780000000  0.5059890000000  0.4374300000000 1.0
C      1  0.5503440000000  0.6124270000000  0.5440940000000 1.0
C      1  0.5759250000000  0.5133760000000  0.5525570000000 1.0
C      1  0.4788810000000  0.4608650000000  0.4912310000000 1.0
C      1  0.4895440000000  0.4684990000000  0.6039850000000 1.0
C      1  0.5804520000000  0.4994990000000  0.5781600000000 1.0
C      1  0.6261250000000  0.5210160000000  0.5829240000000 1.0
C      1  0.4247070000000  0.4148910000000  0.5592860000000 1.0
C      1  0.5208880000000  0.4798950000000  0.4906520000000 1.0
C      1  0.5220780000000  0.5792470000000  0.4103950000000 1.0
C      1  0.4924240000000  0.4384230000000  0.3838640000000 1.0
C      1  0.5085630000000  0.5867030000000  0.5857230000000 1.0
C      1  0.4265900000000  0.5461430000000  0.5486570000000 1.0
C      1  0.4729740000000  0.5213690000000  0.4764910000000 1.0
C      1  0.5666780000000  0.5756160000000  0.4355750000000 1.0
C      1  0.4337480000000  0.4957680000000  0.5685290000000 1.0
C      1  0.4488000000000  0.4271470000000  0.4753080000000 1.0
C      1  0.3921740000000  0.4812820000000  0.5325720000000 1.0
C      1  0.5684990000000  0.5459210000000  0.5883940000000 1.0
C      1  0.4450910000000  0.4685580000000  0.3982150000000 1.0
C      1  0.5300220000000  0.4458150000000  0.5820790000000 1.0
C      1  0.4375830000000  0.4705830000000  0.5542300000000 1.0
C      1  0.5359160000000  0.5041010000000  0.6267110000000 1.0
C      1  0.4990670000000  0.5199530000000  0.4624670000000 1.0
C      1  0.3934900000000  0.5550470000000  0.5161670000000 1.0
C      1  0.4741830000000  0.3925750000000  0.3997870000000 1.0
C      1  0.4793670000000  0.5924750000000  0.5350690000000 1.0
C      1  0.4714380000000  0.5001580000000  0.4251290000000 1.0
C      1  0.5676780000000  0.4661510000000  0.5219170000000 1.0
C      1  0.4101770000000  0.4528330000000  0.4858370000000 1.0
C      1  0.3783300000000  0.5217910000000  0.4926660000000 1.0
C      1  0.5321450000000  0.5380730000000  0.5157140000000 1.0
C      1  0.4648000000000  0.4817210000000  0.6083360000000 1.0
C      1  0.5426330000000  0.5414600000000  0.4877140000000 1.0
C      1  0.5329040000000  0.5102970000000  0.5222650000000 1.0
C      1  0.4944900000000  0.5149810000000  0.4322640000000 1.0
C      1  0.4966530000000  0.5440060000000  0.3906020000000 1.0
C      1  0.6060520000000  0.5041420000000  0.5888720000000 1.0
C      1  0.4689600000000  0.5253460000000  0.5038530000000 1.0
C      1  0.5517780000000  0.3839420000000  0.5249990000000 1.0
C      1  0.4228840000000  0.4678950000000  0.4152090000000 1.0
C      1  0.5126120000000  0.5599510000000  0.5169420000000 1.0
C      1  0.4841870000000  0.4128420000000  0.3854620000000 1.0
C      1  0.4485450000000  0.5107720000000  0.4364550000000 1.0
C      1  0.5189700000000  0.5801940000000  0.5608920000000 1.0
C      1  0.4616970000000  0.5425650000000  0.6108390000000 1.0
C      1  0.4117310000000  0.5661260000000  0.5338440000000 1.0
C      1  0.4033750000000  0.4889730000000  0.4148610000000 1.0
C      1  0.5293300000000  0.4900450000000  0.4438020000000 1.0
C      1  0.4294580000000  0.5060150000000  0.4823560000000 1.0
C      1  0.4666050000000  0.6117800000000  0.5174040000000 1.0
C      1  0.4892410000000  0.5855080000000  0.6037230000000 1.0
C      1  0.5293960000000  0.4433970000000  0.4410360000000 1.0
C      1  0.4064750000000  0.4634090000000  0.4601610000000 1.0
C      1  0.3833700000000  0.5284110000000  0.5210110000000 1.0
C      1  0.5662560000000  0.5559010000000  0.4828220000000 1.0
C      1  0.4639990000000  0.5685760000000  0.4158820000000 1.0
C      1  0.5369210000000  0.5173330000000  0.4053130000000 1.0
C      1  0.5899900000000  0.5142410000000  0.4748150000000 1.0
C      1  0.5863520000000  0.5835150000000  0.5327700000000 1.0
C      1  0.5448120000000  0.5291880000000  0.6293450000000 1.0
C      1  0.4482660000000  0.5072710000000  0.6491790000000 1.0
C      1  0.4113170000000  0.4608310000000  0.5442840000000 1.0
C      1  0.4665210000000  0.6059180000000  0.4445450000000 1.0
C      1  0.4584720000000  0.5036440000000  0.5189420000000 1.0
C      1  0.5638860000000  0.5011500000000  0.4756790000000 1.0
C      1  0.6234590000000  0.4464620000000  0.4912530000000 1.0
C      1  0.5838850000000  0.5528870000000  0.4401280000000 1.0
C      1  0.5163390000000  0.6305000000000  0.5120640000000 1.0
C      1  0.6461080000000  0.4105250000000  0.4635290000000 1.0
C      1  0.4934160000000  0.5691490000000  0.4083550000000 1.0
C      1  0.4543190000000  0.3740230000000  0.4450090000000 1.0
C      1  0.4696930000000  0.5303420000000  0.5595830000000 1.0
C      1  0.6311520000000  0.3953400000000  0.4474200000000 1.0
C      1  0.6130030000000  0.4661300000000  0.4732050000000 1.0
C      1  0.5386320000000  0.4397350000000  0.4695280000000 1.0
C      1  0.4903600000000  0.4850030000000  0.5479990000000 1.0
C      1  0.5178920000000  0.5035240000000  0.4211490000000 1.0
C      1  0.5372700000000  0.4845990000000  0.6069170000000 1.0
C      1  0.5496530000000  0.4358460000000  0.4217070000000 1.0
C      1  0.4836960000000  0.5800270000000  0.4822190000000 1.0
C      1  0.5363670000000  0.5638870000000  0.3894790000000 1.0
C      1  0.5704460000000  0.5419760000000  0.5599840000000 1.0
C      1  0.4221310000000  0.5919960000000  0.5281310000000 1.0
C      1  0.5127690000000  0.4929030000000  0.4672570000000 1.0
C      1  0.6066020000000  0.4723350000000  0.4248140000000 1.0
C      1  0.3689030000000  0.4492650000000  0.5040720000000 1.0
C      1  0.4615280000000  0.5499220000000  0.5153000000000 1.0
C      1  0.5167800000000  0.4942960000000  0.5405500000000 1.0
C      1  0.5024150000000  0.5759240000000  0.5381750000000 1.0
C      1  0.5360190000000  0.6222430000000  0.4927330000000 1.0
C      1  0.5601840000000  0.6073020000000  0.4974150000000 1.0
C      1  0.6109850000000  0.4960510000000  0.4668280000000 1.0
C      1  0.4455730000000  0.3801670000000  0.4696040000000 1.0
C      1  0.5586450000000  0.4840190000000  0.5868800000000 1.0
C      1  0.4501380000000  0.5840990000000  0.4360680000000 1.0
C      1  0.5576020000000  0.4225070000000  0.5505590000000 1.0
C      1  0.5822810000000  0.5328210000000  0.4204760000000 1.0
C      1  0.5711000000000  0.6072050000000  0.5240210000000 1.0
C      1  0.4300940000000  0.5968430000000  0.4803300000000 1.0
C      1  0.4386100000000  0.6047130000000  0.5079940000000 1.0
C      1  0.4700190000000  0.5690210000000  0.6114050000000 1.0
C      1  0.4491810000000  0.4378180000000  0.4486020000000 1.0
C      1  0.4372410000000  0.4905260000000  0.5048460000000 1.0
C      1  0.3951760000000  0.5093800000000  0.5389770000000 1.0
C      1  0.6341930000000  0.5416010000000  0.5678310000000 1.0
C      1  0.5870680000000  0.4675600000000  0.4054900000000 1.0
C      1  0.5054360000000  0.5644790000000  0.4884290000000 1.0
C      1  0.5372420000000  0.4201360000000  0.5712520000000 1.0
C      1  0.4711730000000  0.5312130000000  0.3865720000000 1.0
C      1  0.4642040000000  0.5263340000000  0.5875840000000 1.0
C      1  0.6082620000000  0.4323610000000  0.5104570000000 1.0
C      1  0.5437900000000  0.4957710000000  0.4985040000000 1.0
C      1  0.4876420000000  0.6300880000000  0.5092710000000 1.0
C      1  0.4089800000000  0.5333470000000  0.4367540000000 1.0
C      1  0.3751350000000  0.4766560000000  0.5086360000000 1.0
C      1  0.4718860000000  0.4818440000000  0.4007360000000 1.0
C      1  0.4444840000000  0.4056430000000  0.5386750000000 1.0
C      1  0.5258110000000  0.3897080000000  0.5196230000000 1.0
C      1  0.4512860000000  0.5449040000000  0.4041330000000 1.0
C      1  0.5934370000000  0.4124960000000  0.5208030000000 1.0
C      1  0.4718000000000  0.4614930000000  0.5490020000000 1.0
C      1  0.5288840000000  0.6300050000000  0.5379610000000 1.0
C      1  0.3930330000000  0.5510940000000  0.4801500000000 1.0
C      1  0.4767230000000  0.4019090000000  0.5738320000000 1.0
C      1  0.4284170000000  0.5783930000000  0.4562050000000 1.0
C      1  0.5614830000000  0.5140770000000  0.4215950000000 1.0
C      1  0.3906100000000  0.4881640000000  0.4601870000000 1.0
C      1  0.4570370000000  0.4019490000000  0.5927480000000 1.0
C      1  0.5254240000000  0.5374100000000  0.3884000000000 1.0
C      1  0.5765180000000  0.4939190000000  0.5301400000000 1.0
C      1  0.6297480000000  0.5612610000000  0.5502530000000 1.0
C      1  0.6450190000000  0.4312050000000  0.4806180000000 1.0
C      1  0.4413600000000  0.4021420000000  0.4865260000000 1.0
C      1  0.6160730000000  0.4964640000000  0.4375850000000 1.0
C      1  0.4304940000000  0.4038250000000  0.5129420000000 1.0
C      1  0.5634410000000  0.4547130000000  0.4059310000000 1.0
C      1  0.4053690000000  0.4189880000000  0.5177690000000 1.0
C      1  0.5828090000000  0.3950380000000  0.4280560000000 1.0
C      1  0.5159640000000  0.4133740000000  0.5079670000000 1.0
C      1  0.5669130000000  0.5671670000000  0.5473380000000 1.0
C      1  0.4551420000000  0.4839910000000  0.6348100000000 1.0
C      1  0.4830790000000  0.4363800000000  0.5396360000000 1.0
C      1  0.4938110000000  0.4596720000000  0.4029230000000 1.0
C      1  0.5699100000000  0.4037420000000  0.5336370000000 1.0
C      1  0.4489450000000  0.5135230000000  0.4639280000000 1.0
C      1  0.4837310000000  0.6018590000000  0.4648310000000 1.0
C      1  0.5511300000000  0.4629310000000  0.5693030000000 1.0
C      1  0.5616730000000  0.4507080000000  0.5455970000000 1.0
C      1  0.5043350000000  0.4367910000000  0.5198510000000 1.0
C      1  0.5016590000000  0.4493950000000  0.4298960000000 1.0
C      1  0.4175680000000  0.5181020000000  0.5553280000000 1.0
C      1  0.5862070000000  0.5425470000000  0.4673860000000 1.0
C      1  0.5044290000000  0.4602300000000  0.5022940000000 1.0
C      1  0.4712260000000  0.4116800000000  0.5475050000000 1.0
C      1  0.5560670000000  0.4987860000000  0.4470660000000 1.0
C      1  0.5171730000000  0.4640080000000  0.6006980000000 1.0
C      1  0.5659210000000  0.5838590000000  0.4835610000000 1.0
C      1  0.6078510000000  0.3899750000000  0.4356200000000 1.0
C      1  0.4525350000000  0.5000350000000  0.5898100000000 1.0
C      1  0.5585250000000  0.5453130000000  0.6130440000000 1.0
C      1  0.4341260000000  0.5307220000000  0.4219330000000 1.0
C      1  0.3923820000000  0.4344440000000  0.4983170000000 1.0
C      1  0.4256380000000  0.4541300000000  0.4402500000000 1.0
C      1  0.4316090000000  0.4090870000000  0.5859660000000 1.0
C      1  0.4722260000000  0.5035550000000  0.3792970000000 1.0
C      1  0.4763750000000  0.4404770000000  0.4403890000000 1.0
C      1  0.4074040000000  0.4322350000000  0.5440850000000 1.0
C      1  0.3779920000000  0.4948470000000  0.4854840000000 1.0
C      1  0.5614320000000  0.4102990000000  0.4234980000000 1.0
C      1  0.4545640000000  0.5482720000000  0.5434040000000 1.0
C      1  0.4520320000000  0.5311030000000  0.6347110000000 1.0
C      1  0.5457360000000  0.5858520000000  0.5552070000000 1.0
C      1  0.4550180000000  0.4478830000000  0.4933930000000 1.0
C      1  0.4641650000000  0.3793260000000  0.4207240000000 1.0
C      1  0.4327400000000  0.4630410000000  0.5001350000000 1.0
C      1  0.6072100000000  0.4539070000000  0.4469960000000 1.0
C      1  0.6132570000000  0.5769500000000  0.5361280000000 1.0
C      1  0.5592650000000  0.4538710000000  0.4942260000000 1.0
C      1  0.5417150000000  0.5852440000000  0.4301550000000 1.0
END
