TITL C-612600-6631-894 9.00733737797676 125000 -637.281525380283 0 0 105 (C1) n - 1
REM
REM in /home/nfs/bkarasulu/CARBON/AIRSS/Generating-Clusters/TERSOFF/Only-C1/FIRE-HFTN
REM
REM
REM
REM
REM
REM ./C.cell (11c1c37f851c82e70ff6c80c92926a4b)
REM AIRSS Version 0.9.1 bugfix July 2018 build 013d7b7c2542+ Fri, 06 Jul 2018 19:26:36 +0100
REM compiler GCC version 9.2.1 20190827 (Red Hat 9.2.1-1)
REM options -cpp -mtune=generic -march=x86-64 -g -O0 -fpre-include=/usr/include/finclude/math-vector-fortran.h
REM seed 1928823479 -705563080 718818771 234846785 -468807740 85975615 -205030183 637094183 -1722394304 1076645281 263529821 1647862551 -1638400786 71335235 480492489 -886716083 -1531017408 304626266 2123154098 -2040745604 -1332725377 -1880109080 -2141437694 886938774 1253984584 -1125018828 -1192652252 1195957947 1353972975 2126816692 1019610499 1677274060 707142762
REM
CELL 1.54180   50.00000   50.00000   50.00000   90.00000   90.00000   90.00000
LATT -1
SFAC C  
C      1  0.5544870000000  0.5034230000000  0.5161560000000 1.0
C      1  0.5663370000000  0.5320120000000  0.5708090000000 1.0
C      1  0.4883490000000  0.5427970000000  0.4144730000000 1.0
C      1  0.4877700000000  0.4873100000000  0.5143840000000 1.0
C      1  0.4956720000000  0.4156830000000  0.5094770000000 1.0
C      1  0.5077420000000  0.4669400000000  0.5571410000000 1.0
C      1  0.5091120000000  0.5287040000000  0.4273660000000 1.0
C      1  0.5359270000000  0.5689390000000  0.5711590000000 1.0
C      1  0.5258030000000  0.3920830000000  0.4777880000000 1.0
C      1  0.5389820000000  0.4359110000000  0.5312570000000 1.0
C      1  0.4269850000000  0.5047680000000  0.4713120000000 1.0
C      1  0.6014190000000  0.5538540000000  0.5302410000000 1.0
C      1  0.4498580000000  0.3574800000000  0.4454810000000 1.0
C      1  0.4269990000000  0.5270860000000  0.4535950000000 1.0
C      1  0.5384690000000  0.4804440000000  0.5194460000000 1.0
C      1  0.5013320000000  0.5067930000000  0.4436790000000 1.0
C      1  0.5318430000000  0.5963960000000  0.5628510000000 1.0
C      1  0.4863870000000  0.5478370000000  0.5199620000000 1.0
C      1  0.4608860000000  0.4303050000000  0.4518370000000 1.0
C      1  0.4435730000000  0.4629160000000  0.5173940000000 1.0
C      1  0.5678410000000  0.4671740000000  0.5994160000000 1.0
C      1  0.5529520000000  0.4817490000000  0.4455590000000 1.0
C      1  0.4175010000000  0.4658070000000  0.5300880000000 1.0
C      1  0.4608720000000  0.4866460000000  0.5714040000000 1.0
C      1  0.4098170000000  0.4999340000000  0.4935380000000 1.0
C      1  0.5224990000000  0.5994430000000  0.5357580000000 1.0
C      1  0.4516290000000  0.3086010000000  0.4261940000000 1.0
C      1  0.4705150000000  0.5935860000000  0.5461220000000 1.0
C      1  0.5851840000000  0.5421380000000  0.4796070000000 1.0
C      1  0.4489990000000  0.5696560000000  0.4687080000000 1.0
C      1  0.4614380000000  0.4838270000000  0.5248470000000 1.0
C      1  0.4918760000000  0.4228470000000  0.5371990000000 1.0
C      1  0.5972210000000  0.4908190000000  0.4731310000000 1.0
C      1  0.4196170000000  0.5225310000000  0.4254380000000 1.0
C      1  0.4699220000000  0.4755750000000  0.4716760000000 1.0
C      1  0.5866510000000  0.5760220000000  0.5253120000000 1.0
C      1  0.5110580000000  0.5599850000000  0.5851640000000 1.0
C      1  0.5643460000000  0.5794110000000  0.5084650000000 1.0
C      1  0.5907230000000  0.4677960000000  0.4901080000000 1.0
C      1  0.5371070000000  0.5558590000000  0.4746720000000 1.0
C      1  0.5484230000000  0.4548280000000  0.5117770000000 1.0
C      1  0.4771020000000  0.4475800000000  0.4686970000000 1.0
C      1  0.5855490000000  0.5075240000000  0.5161460000000 1.0
C      1  0.4634960000000  0.4902110000000  0.3883940000000 1.0
C      1  0.5111310000000  0.4815390000000  0.5297620000000 1.0
C      1  0.4499860000000  0.4077830000000  0.4655330000000 1.0
C      1  0.4884120000000  0.4920740000000  0.4866250000000 1.0
C      1  0.5895700000000  0.5213460000000  0.5626990000000 1.0
C      1  0.5102690000000  0.3935650000000  0.4997780000000 1.0
C      1  0.4618040000000  0.5449050000000  0.4269560000000 1.0
C      1  0.5369330000000  0.5891070000000  0.5125800000000 1.0
C      1  0.4579380000000  0.5178710000000  0.3875550000000 1.0
C      1  0.5016940000000  0.5366550000000  0.5709870000000 1.0
C      1  0.5380810000000  0.5255260000000  0.5114430000000 1.0
C      1  0.5424920000000  0.5548950000000  0.4455200000000 1.0
C      1  0.5651680000000  0.5610890000000  0.4858920000000 1.0
C      1  0.4441460000000  0.4437790000000  0.4335540000000 1.0
C      1  0.5362630000000  0.4079030000000  0.4588330000000 1.0
C      1  0.4491710000000  0.3821030000000  0.4552140000000 1.0
C      1  0.5058310000000  0.5096650000000  0.4722770000000 1.0
C      1  0.4535470000000  0.5001610000000  0.5477830000000 1.0
C      1  0.4937770000000  0.6023520000000  0.5353090000000 1.0
C      1  0.5035210000000  0.5403720000000  0.5417310000000 1.0
C      1  0.5230740000000  0.4856610000000  0.5759910000000 1.0
C      1  0.4535690000000  0.5757490000000  0.5573600000000 1.0
C      1  0.5017890000000  0.5848000000000  0.5963460000000 1.0
C      1  0.5963730000000  0.4787920000000  0.5165800000000 1.0
C      1  0.5153860000000  0.6078340000000  0.5847960000000 1.0
C      1  0.4424660000000  0.5293160000000  0.4094460000000 1.0
C      1  0.5138090000000  0.6337860000000  0.5924300000000 1.0
C      1  0.4928180000000  0.4843420000000  0.4287570000000 1.0
C      1  0.5145150000000  0.4382580000000  0.5473930000000 1.0
C      1  0.4450030000000  0.4380190000000  0.5046330000000 1.0
C      1  0.5531680000000  0.4573450000000  0.4609240000000 1.0
C      1  0.5646770000000  0.4561260000000  0.4875370000000 1.0
C      1  0.4482260000000  0.5472850000000  0.4523790000000 1.0
C      1  0.4806860000000  0.4681040000000  0.5707150000000 1.0
C      1  0.4447450000000  0.5923790000000  0.4807670000000 1.0
C      1  0.5371490000000  0.5318170000000  0.4303190000000 1.0
C      1  0.4913730000000  0.4354230000000  0.4896290000000 1.0
C      1  0.5478610000000  0.5478850000000  0.5569050000000 1.0
C      1  0.4343140000000  0.4680770000000  0.4401790000000 1.0
C      1  0.5204710000000  0.5754880000000  0.4919580000000 1.0
C      1  0.4818290000000  0.5347320000000  0.3872340000000 1.0
C      1  0.5512510000000  0.5067650000000  0.4347080000000 1.0
C      1  0.5102530000000  0.5109930000000  0.5802150000000 1.0
C      1  0.4662870000000  0.4218620000000  0.5501540000000 1.0
C      1  0.5922060000000  0.5160330000000  0.4866730000000 1.0
C      1  0.4408510000000  0.4297200000000  0.5561810000000 1.0
C      1  0.4029720000000  0.4853250000000  0.5155580000000 1.0
C      1  0.3953460000000  0.5143120000000  0.4164720000000 1.0
C      1  0.4408870000000  0.4151540000000  0.4911710000000 1.0
C      1  0.4192510000000  0.4460880000000  0.5510690000000 1.0
C      1  0.5314360000000  0.5392410000000  0.5349320000000 1.0
C      1  0.5258110000000  0.5282720000000  0.4848520000000 1.0
C      1  0.4440120000000  0.5503400000000  0.5598440000000 1.0
C      1  0.4507490000000  0.3328380000000  0.4357570000000 1.0
C      1  0.4608360000000  0.5366620000000  0.5190410000000 1.0
C      1  0.4486490000000  0.5277700000000  0.5430970000000 1.0
C      1  0.5972200000000  0.5263550000000  0.5360650000000 1.0
C      1  0.4795320000000  0.4778130000000  0.4062850000000 1.0
C      1  0.4952980000000  0.5657590000000  0.5002320000000 1.0
C      1  0.4439230000000  0.4835700000000  0.4620500000000 1.0
C      1  0.5435050000000  0.4326240000000  0.4514890000000 1.0
C      1  0.5464230000000  0.4773650000000  0.5886220000000 1.0
END
