TITL C-612607-4507-413 8.83758426335439 125000 -1205.04684988357 0 0 195 (C1) n - 1
REM
REM in /home/nfs/bkarasulu/CARBON/AIRSS/Generating-Clusters/TERSOFF/Only-C1/FIRE-HFTN
REM
REM
REM
REM
REM
REM ./C.cell (11c1c37f851c82e70ff6c80c92926a4b)
REM AIRSS Version 0.9.1 bugfix July 2018 build 013d7b7c2542+ Fri, 06 Jul 2018 19:26:36 +0100
REM compiler GCC version 9.2.1 20190827 (Red Hat 9.2.1-1)
REM options -cpp -mtune=generic -march=x86-64 -g -O0 -fpre-include=/usr/include/finclude/math-vector-fortran.h
REM seed 1445505925 -1053963513 -33480434 747933556 -510167001 325457072 624315721 450790596 77625683 1747450829 1118223176 1161524228 -501612774 -2057205812 468296870 -278159470 1102455067 -5335054 -1895535235 -593561970 2061933185 1754990436 688744481 -1839274336 -1996802469 -1220225168 149535845 1929509591 1207945196 484632873 -2073932297 165175425 -120822241
REM
CELL 1.54180   50.00000   50.00000   50.00000   90.00000   90.00000   90.00000
LATT -1
SFAC C  
C      1  0.5211280000000  0.5483020000000  0.4492930000000 1.0
C      1  0.4122320000000  0.5522960000000  0.3724140000000 1.0
C      1  0.6077670000000  0.5349200000000  0.5030210000000 1.0
C      1  0.4944060000000  0.5972030000000  0.6128970000000 1.0
C      1  0.5134500000000  0.5980860000000  0.5941030000000 1.0
C      1  0.5790540000000  0.5057890000000  0.4644090000000 1.0
C      1  0.5248250000000  0.6140540000000  0.4263500000000 1.0
C      1  0.4358120000000  0.5593090000000  0.5962760000000 1.0
C      1  0.5455360000000  0.5786430000000  0.5597320000000 1.0
C      1  0.5093590000000  0.4582800000000  0.5875440000000 1.0
C      1  0.4845430000000  0.5408680000000  0.5736550000000 1.0
C      1  0.5778400000000  0.5952550000000  0.4714580000000 1.0
C      1  0.3962420000000  0.5318080000000  0.3796480000000 1.0
C      1  0.5152440000000  0.4504400000000  0.5061660000000 1.0
C      1  0.4697130000000  0.4698220000000  0.4504930000000 1.0
C      1  0.5680850000000  0.5300520000000  0.5353890000000 1.0
C      1  0.4771680000000  0.4908830000000  0.5259050000000 1.0
C      1  0.4431440000000  0.4557880000000  0.5657850000000 1.0
C      1  0.4916900000000  0.4783300000000  0.5456810000000 1.0
C      1  0.5079780000000  0.5369810000000  0.5903620000000 1.0
C      1  0.4347680000000  0.4827940000000  0.5654620000000 1.0
C      1  0.3876010000000  0.5079720000000  0.5245320000000 1.0
C      1  0.4002120000000  0.5611720000000  0.4332200000000 1.0
C      1  0.5609220000000  0.3764220000000  0.5305850000000 1.0
C      1  0.3840150000000  0.5163140000000  0.4516730000000 1.0
C      1  0.5705370000000  0.4052330000000  0.4615410000000 1.0
C      1  0.4948000000000  0.6000140000000  0.5305790000000 1.0
C      1  0.5149500000000  0.4157960000000  0.4571000000000 1.0
C      1  0.5988220000000  0.5232810000000  0.4607950000000 1.0
C      1  0.5379820000000  0.3670950000000  0.5196290000000 1.0
C      1  0.3898020000000  0.5345790000000  0.4306280000000 1.0
C      1  0.4474580000000  0.5440790000000  0.6181150000000 1.0
C      1  0.5358290000000  0.4933820000000  0.5105080000000 1.0
C      1  0.3850300000000  0.5585900000000  0.4975170000000 1.0
C      1  0.5467940000000  0.6269520000000  0.4665710000000 1.0
C      1  0.4731830000000  0.4010270000000  0.4389280000000 1.0
C      1  0.3689560000000  0.4375540000000  0.5471440000000 1.0
C      1  0.4827260000000  0.4972330000000  0.5877370000000 1.0
C      1  0.4242300000000  0.5320430000000  0.5543010000000 1.0
C      1  0.4908020000000  0.4746920000000  0.5732040000000 1.0
C      1  0.5523550000000  0.3814750000000  0.4641540000000 1.0
C      1  0.3647910000000  0.5389460000000  0.4965460000000 1.0
C      1  0.4885600000000  0.4080870000000  0.4627100000000 1.0
C      1  0.5540750000000  0.5538230000000  0.5737310000000 1.0
C      1  0.6104510000000  0.4483220000000  0.5508130000000 1.0
C      1  0.4451850000000  0.5923020000000  0.5302870000000 1.0
C      1  0.3911540000000  0.4460260000000  0.4766090000000 1.0
C      1  0.5529890000000  0.4557650000000  0.3812300000000 1.0
C      1  0.5164800000000  0.4976850000000  0.3723440000000 1.0
C      1  0.3823830000000  0.4991220000000  0.4747070000000 1.0
C      1  0.4744770000000  0.4246470000000  0.5851700000000 1.0
C      1  0.5850180000000  0.4240990000000  0.4775870000000 1.0
C      1  0.4676630000000  0.6202150000000  0.4997000000000 1.0
C      1  0.6375090000000  0.5039360000000  0.3987630000000 1.0
C      1  0.4097760000000  0.5487290000000  0.5089710000000 1.0
C      1  0.4240800000000  0.4193060000000  0.4564890000000 1.0
C      1  0.3870250000000  0.5251420000000  0.4040300000000 1.0
C      1  0.6171310000000  0.4753340000000  0.5597550000000 1.0
C      1  0.5098390000000  0.4110880000000  0.4106930000000 1.0
C      1  0.4983350000000  0.4342370000000  0.5970730000000 1.0
C      1  0.4134590000000  0.4010510000000  0.4975760000000 1.0
C      1  0.6077640000000  0.5441570000000  0.4466820000000 1.0
C      1  0.4527210000000  0.6047820000000  0.4572340000000 1.0
C      1  0.3853430000000  0.4182320000000  0.5372790000000 1.0
C      1  0.4376860000000  0.3824810000000  0.4954970000000 1.0
C      1  0.4773180000000  0.5185290000000  0.5175750000000 1.0
C      1  0.4946450000000  0.5123100000000  0.4283990000000 1.0
C      1  0.5666570000000  0.4406540000000  0.4938000000000 1.0
C      1  0.6027360000000  0.4452440000000  0.5237410000000 1.0
C      1  0.5964530000000  0.5790350000000  0.4840360000000 1.0
C      1  0.4703320000000  0.5841680000000  0.6187320000000 1.0
C      1  0.4419480000000  0.6012860000000  0.5775530000000 1.0
C      1  0.4075560000000  0.5290610000000  0.5305600000000 1.0
C      1  0.5977470000000  0.4857090000000  0.5790950000000 1.0
C      1  0.4316200000000  0.5969450000000  0.4407290000000 1.0
C      1  0.4460760000000  0.6070470000000  0.4851800000000 1.0
C      1  0.4506040000000  0.4474320000000  0.5151730000000 1.0
C      1  0.4951180000000  0.4877920000000  0.4143500000000 1.0
C      1  0.4972700000000  0.4115900000000  0.5411000000000 1.0
C      1  0.4407680000000  0.5106510000000  0.5647740000000 1.0
C      1  0.5214670000000  0.5412950000000  0.5198470000000 1.0
C      1  0.5269160000000  0.3878310000000  0.4206100000000 1.0
C      1  0.4501280000000  0.4402170000000  0.5893770000000 1.0
C      1  0.5572880000000  0.6097090000000  0.4871010000000 1.0
C      1  0.5492450000000  0.5420800000000  0.5173930000000 1.0
C      1  0.5773890000000  0.3920550000000  0.5456890000000 1.0
C      1  0.4931980000000  0.3631930000000  0.4881260000000 1.0
C      1  0.5392670000000  0.5290110000000  0.6399390000000 1.0
C      1  0.4422870000000  0.4647240000000  0.4561250000000 1.0
C      1  0.5141580000000  0.4814310000000  0.3943020000000 1.0
C      1  0.4883780000000  0.5552170000000  0.5498890000000 1.0
C      1  0.4526010000000  0.5430070000000  0.4819450000000 1.0
C      1  0.5501390000000  0.4660910000000  0.5650000000000 1.0
C      1  0.4825450000000  0.6095170000000  0.4571950000000 1.0
C      1  0.5208680000000  0.5019340000000  0.4909100000000 1.0
C      1  0.4825730000000  0.3542560000000  0.4419250000000 1.0
C      1  0.4076220000000  0.4661170000000  0.5246190000000 1.0
C      1  0.4569850000000  0.5193980000000  0.4964440000000 1.0
C      1  0.4757850000000  0.4220340000000  0.5558980000000 1.0
C      1  0.4855350000000  0.4617770000000  0.4717930000000 1.0
C      1  0.5011910000000  0.5631780000000  0.4068470000000 1.0
C      1  0.5600980000000  0.5488830000000  0.4919020000000 1.0
C      1  0.4632400000000  0.3700220000000  0.4931790000000 1.0
C      1  0.4684230000000  0.6096350000000  0.5265100000000 1.0
C      1  0.5875140000000  0.4595260000000  0.5896980000000 1.0
C      1  0.5029180000000  0.5126190000000  0.4752950000000 1.0
C      1  0.4476390000000  0.5867200000000  0.6012350000000 1.0
C      1  0.5580640000000  0.4616600000000  0.4757240000000 1.0
C      1  0.5600910000000  0.4176820000000  0.4375110000000 1.0
C      1  0.5589210000000  0.4868830000000  0.5237100000000 1.0
C      1  0.5346580000000  0.4347220000000  0.4429140000000 1.0
C      1  0.5450900000000  0.4162240000000  0.5671770000000 1.0
C      1  0.6152930000000  0.4568190000000  0.5000160000000 1.0
C      1  0.4226270000000  0.5713060000000  0.3884620000000 1.0
C      1  0.4931320000000  0.6141830000000  0.4850640000000 1.0
C      1  0.5790910000000  0.5058720000000  0.5251910000000 1.0
C      1  0.4991580000000  0.5815550000000  0.5508760000000 1.0
C      1  0.4993720000000  0.6125060000000  0.4349260000000 1.0
C      1  0.3875850000000  0.5789610000000  0.4784690000000 1.0
C      1  0.5864130000000  0.5122860000000  0.5767330000000 1.0
C      1  0.5553990000000  0.5933470000000  0.5358280000000 1.0
C      1  0.4581200000000  0.4413080000000  0.5441030000000 1.0
C      1  0.5944520000000  0.5498510000000  0.4225520000000 1.0
C      1  0.5345380000000  0.4721440000000  0.5883280000000 1.0
C      1  0.6006620000000  0.4653350000000  0.4527060000000 1.0
C      1  0.3675350000000  0.4648320000000  0.5469920000000 1.0
C      1  0.5770210000000  0.4782530000000  0.4636460000000 1.0
C      1  0.4287730000000  0.5575230000000  0.5673970000000 1.0
C      1  0.5276170000000  0.3735150000000  0.4484030000000 1.0
C      1  0.5734510000000  0.4143140000000  0.5636910000000 1.0
C      1  0.5817640000000  0.6020740000000  0.5380880000000 1.0
C      1  0.5543580000000  0.3983180000000  0.4168070000000 1.0
C      1  0.3737710000000  0.5120650000000  0.4992050000000 1.0
C      1  0.4428580000000  0.4942570000000  0.4932380000000 1.0
C      1  0.4818850000000  0.4154870000000  0.4158910000000 1.0
C      1  0.6074000000000  0.4446260000000  0.4734600000000 1.0
C      1  0.5738360000000  0.4443680000000  0.5209340000000 1.0
C      1  0.4799610000000  0.4145330000000  0.4890170000000 1.0
C      1  0.5240460000000  0.4368810000000  0.4143780000000 1.0
C      1  0.5710570000000  0.5939670000000  0.4425370000000 1.0
C      1  0.4562440000000  0.4769940000000  0.5124490000000 1.0
C      1  0.5915990000000  0.4361110000000  0.5709150000000 1.0
C      1  0.4945100000000  0.5389950000000  0.5272400000000 1.0
C      1  0.5365510000000  0.5428210000000  0.5935090000000 1.0
C      1  0.4729680000000  0.4421330000000  0.4114000000000 1.0
C      1  0.4373950000000  0.5862630000000  0.5029430000000 1.0
C      1  0.4910330000000  0.5473080000000  0.6463670000000 1.0
C      1  0.4692270000000  0.5449160000000  0.4578840000000 1.0
C      1  0.6099440000000  0.4798190000000  0.4296510000000 1.0
C      1  0.4332720000000  0.5593920000000  0.4961020000000 1.0
C      1  0.5138650000000  0.3625370000000  0.5081840000000 1.0
C      1  0.3867660000000  0.4815630000000  0.5345050000000 1.0
C      1  0.5495990000000  0.5638440000000  0.4124880000000 1.0
C      1  0.5122010000000  0.6049100000000  0.5072640000000 1.0
C      1  0.4213630000000  0.4430110000000  0.5180940000000 1.0
C      1  0.5456850000000  0.5216960000000  0.6131140000000 1.0
C      1  0.5420040000000  0.5502430000000  0.4693330000000 1.0
C      1  0.5199900000000  0.5877630000000  0.5689480000000 1.0
C      1  0.5888550000000  0.5539000000000  0.4933790000000 1.0
C      1  0.5161860000000  0.5386780000000  0.6503040000000 1.0
C      1  0.5303040000000  0.4578880000000  0.3965630000000 1.0
C      1  0.4024480000000  0.4180590000000  0.4750190000000 1.0
C      1  0.4616640000000  0.4368910000000  0.4887050000000 1.0
C      1  0.6131740000000  0.5028630000000  0.4120700000000 1.0
C      1  0.4748070000000  0.5632640000000  0.4115490000000 1.0
C      1  0.4961660000000  0.5304080000000  0.4531920000000 1.0
C      1  0.5241500000000  0.5582700000000  0.4222930000000 1.0
C      1  0.5050970000000  0.5090790000000  0.5999820000000 1.0
C      1  0.6183420000000  0.4852870000000  0.5026460000000 1.0
C      1  0.4431320000000  0.4373940000000  0.4652550000000 1.0
C      1  0.5110690000000  0.4576810000000  0.4799670000000 1.0
C      1  0.4354500000000  0.5839410000000  0.5551580000000 1.0
C      1  0.6039200000000  0.5081200000000  0.5115380000000 1.0
C      1  0.5596770000000  0.4629140000000  0.5382430000000 1.0
C      1  0.5784680000000  0.5232970000000  0.3840260000000 1.0
C      1  0.4923940000000  0.4079060000000  0.5135280000000 1.0
C      1  0.4018160000000  0.5794390000000  0.4550430000000 1.0
C      1  0.4697730000000  0.5576400000000  0.6313340000000 1.0
C      1  0.5222720000000  0.4108670000000  0.5539870000000 1.0
C      1  0.5413450000000  0.6021060000000  0.5104670000000 1.0
C      1  0.4270470000000  0.4813690000000  0.4731320000000 1.0
C      1  0.5948750000000  0.5253990000000  0.4060300000000 1.0
C      1  0.4663840000000  0.5176980000000  0.5754080000000 1.0
C      1  0.5318620000000  0.4973780000000  0.6030410000000 1.0
C      1  0.5742240000000  0.5710550000000  0.4243190000000 1.0
C      1  0.5338380000000  0.4567940000000  0.4627310000000 1.0
C      1  0.4608310000000  0.5566940000000  0.4336000000000 1.0
C      1  0.4084750000000  0.4176560000000  0.5207610000000 1.0
C      1  0.5035240000000  0.3604870000000  0.4603000000000 1.0
C      1  0.5720480000000  0.5340620000000  0.5630450000000 1.0
C      1  0.4654720000000  0.3741380000000  0.4349640000000 1.0
C      1  0.4199360000000  0.5751540000000  0.4157560000000 1.0
C      1  0.3985480000000  0.4750700000000  0.4748310000000 1.0
C      1  0.5491930000000  0.6145950000000  0.4402600000000 1.0
C      1  0.4778950000000  0.4673360000000  0.4236340000000 1.0
END
