TITL C-612600-6631-1101 0.125065190207608 125000 -1131.60661108808 0 0 183 (C1) n - 1
REM
REM in /home/nfs/bkarasulu/CARBON/AIRSS/Generating-Clusters/TERSOFF/Only-C1/FIRE-HFTN
REM
REM
REM
REM
REM
REM ./C.cell (11c1c37f851c82e70ff6c80c92926a4b)
REM AIRSS Version 0.9.1 bugfix July 2018 build 013d7b7c2542+ Fri, 06 Jul 2018 19:26:36 +0100
REM compiler GCC version 9.2.1 20190827 (Red Hat 9.2.1-1)
REM options -cpp -mtune=generic -march=x86-64 -g -O0 -fpre-include=/usr/include/finclude/math-vector-fortran.h
REM seed 666536860 2047002987 -1593841790 -2082275500 -1085715420 1618226513 -1754225708 -1793382727 -1886076024 322714600 -905915870 2022065768 1127036382 -59979786 -66001227 1772676337 78716800 -1066482537 786751563 927045909 1562723436 -1578956709 -484612454 861804064 -1980841596 -582336325 1037482576 1642962195 1979212303 -641349221 -1645044154 -1577495441 458332
REM
CELL 1.54180   50.00000   50.00000   50.00000   90.00000   90.00000   90.00000
LATT -1
SFAC C  
C      1  0.4269030000000  0.4228740000000  0.4544470000000 1.0
C      1  0.5253260000000  0.4724670000000  0.6004510000000 1.0
C      1  0.5772920000000  0.5384730000000  0.5657340000000 1.0
C      1  0.5550280000000  0.6030790000000  0.5294940000000 1.0
C      1  0.5949270000000  0.4103340000000  0.5080850000000 1.0
C      1  0.4967700000000  0.5356700000000  0.4500110000000 1.0
C      1  0.4060600000000  0.4616150000000  0.3926490000000 1.0
C      1  0.5257000000000  0.6275220000000  0.4047060000000 1.0
C      1  0.6169160000000  0.4660880000000  0.5272750000000 1.0
C      1  0.4550710000000  0.3924390000000  0.5588710000000 1.0
C      1  0.5433050000000  0.4812500000000  0.4182180000000 1.0
C      1  0.5638280000000  0.5366570000000  0.5911760000000 1.0
C      1  0.5403280000000  0.5111730000000  0.4830120000000 1.0
C      1  0.5148440000000  0.4563260000000  0.6214710000000 1.0
C      1  0.3860110000000  0.4984500000000  0.4884230000000 1.0
C      1  0.3956850000000  0.4345080000000  0.5309090000000 1.0
C      1  0.5760730000000  0.5914640000000  0.5148810000000 1.0
C      1  0.4401750000000  0.4609940000000  0.4282940000000 1.0
C      1  0.5080730000000  0.5799920000000  0.5370380000000 1.0
C      1  0.5904720000000  0.4460040000000  0.4503340000000 1.0
C      1  0.5744160000000  0.4927030000000  0.5811290000000 1.0
C      1  0.3989060000000  0.5125310000000  0.4666180000000 1.0
C      1  0.6343910000000  0.4940800000000  0.4368310000000 1.0
C      1  0.5436060000000  0.4305550000000  0.4638050000000 1.0
C      1  0.4551100000000  0.4058900000000  0.5025380000000 1.0
C      1  0.4653600000000  0.5709200000000  0.5766590000000 1.0
C      1  0.3901740000000  0.5006930000000  0.4420180000000 1.0
C      1  0.4812350000000  0.5412130000000  0.5220690000000 1.0
C      1  0.4078650000000  0.4133920000000  0.5428120000000 1.0
C      1  0.5732980000000  0.5229040000000  0.4506110000000 1.0
C      1  0.6292830000000  0.5108760000000  0.5125720000000 1.0
C      1  0.4817390000000  0.3919530000000  0.4415860000000 1.0
C      1  0.4888730000000  0.6123280000000  0.5111140000000 1.0
C      1  0.4621750000000  0.5829860000000  0.5498810000000 1.0
C      1  0.4706400000000  0.4176770000000  0.4327830000000 1.0
C      1  0.6222630000000  0.4842270000000  0.5062910000000 1.0
C      1  0.4285380000000  0.5244920000000  0.4658270000000 1.0
C      1  0.5345260000000  0.4440500000000  0.5638920000000 1.0
C      1  0.5900560000000  0.4575670000000  0.6105700000000 1.0
C      1  0.4820530000000  0.4414640000000  0.4703100000000 1.0
C      1  0.5483050000000  0.5055540000000  0.4030620000000 1.0
C      1  0.5572680000000  0.4048000000000  0.5464090000000 1.0
C      1  0.4794870000000  0.4677970000000  0.4784710000000 1.0
C      1  0.5040270000000  0.3917710000000  0.5413760000000 1.0
C      1  0.5597320000000  0.4640800000000  0.5109090000000 1.0
C      1  0.4423680000000  0.5274530000000  0.4164460000000 1.0
C      1  0.4832620000000  0.5957950000000  0.5350250000000 1.0
C      1  0.5632200000000  0.5336100000000  0.5203530000000 1.0
C      1  0.5166840000000  0.6068730000000  0.5004550000000 1.0
C      1  0.3986300000000  0.4546380000000  0.5112220000000 1.0
C      1  0.5808780000000  0.5094300000000  0.5585250000000 1.0
C      1  0.5318530000000  0.4109900000000  0.4463270000000 1.0
C      1  0.5018460000000  0.5525630000000  0.5382510000000 1.0
C      1  0.4846580000000  0.5744770000000  0.5965760000000 1.0
C      1  0.4898780000000  0.4656750000000  0.6314270000000 1.0
C      1  0.6028650000000  0.4515680000000  0.5448140000000 1.0
C      1  0.3534320000000  0.5561390000000  0.5314770000000 1.0
C      1  0.5311870000000  0.6064730000000  0.4751620000000 1.0
C      1  0.4930730000000  0.4058550000000  0.5856860000000 1.0
C      1  0.5137920000000  0.4097000000000  0.4985870000000 1.0
C      1  0.5637910000000  0.5481620000000  0.4422450000000 1.0
C      1  0.4361730000000  0.5740410000000  0.5088940000000 1.0
C      1  0.5705170000000  0.5070870000000  0.5318550000000 1.0
C      1  0.4928860000000  0.5422060000000  0.4227950000000 1.0
C      1  0.6100750000000  0.5479360000000  0.4649120000000 1.0
C      1  0.4297460000000  0.5552140000000  0.4653900000000 1.0
C      1  0.4223060000000  0.3953060000000  0.4569140000000 1.0
C      1  0.4756920000000  0.3814180000000  0.5395260000000 1.0
C      1  0.5459540000000  0.4404550000000  0.5125220000000 1.0
C      1  0.5968730000000  0.4368120000000  0.4249460000000 1.0
C      1  0.4438200000000  0.5644950000000  0.5349400000000 1.0
C      1  0.4341530000000  0.5112920000000  0.5393550000000 1.0
C      1  0.6078000000000  0.4273950000000  0.4914200000000 1.0
C      1  0.5162670000000  0.4729330000000  0.4110630000000 1.0
C      1  0.4523440000000  0.4851520000000  0.4405870000000 1.0
C      1  0.5543570000000  0.5037160000000  0.4595960000000 1.0
C      1  0.5053410000000  0.4946280000000  0.3952810000000 1.0
C      1  0.3971800000000  0.5874140000000  0.4817510000000 1.0
C      1  0.6020630000000  0.4296580000000  0.4004340000000 1.0
C      1  0.3687910000000  0.5783190000000  0.3897680000000 1.0
C      1  0.4903900000000  0.4961730000000  0.6327490000000 1.0
C      1  0.5367250000000  0.5838500000000  0.4233360000000 1.0
C      1  0.5007820000000  0.5619220000000  0.6138670000000 1.0
C      1  0.4131350000000  0.4650450000000  0.4187540000000 1.0
C      1  0.3940730000000  0.4580620000000  0.4640350000000 1.0
C      1  0.4229530000000  0.5195880000000  0.5143030000000 1.0
C      1  0.5189230000000  0.6189220000000  0.4520810000000 1.0
C      1  0.5263070000000  0.4949810000000  0.5249380000000 1.0
C      1  0.6021270000000  0.5674250000000  0.4838100000000 1.0
C      1  0.5553860000000  0.5899590000000  0.4689410000000 1.0
C      1  0.4256530000000  0.4535560000000  0.4987580000000 1.0
C      1  0.4580380000000  0.4323150000000  0.6022650000000 1.0
C      1  0.6113740000000  0.5606980000000  0.5109590000000 1.0
C      1  0.4451610000000  0.4322390000000  0.4342500000000 1.0
C      1  0.4701930000000  0.4791220000000  0.5732430000000 1.0
C      1  0.4228830000000  0.5281720000000  0.3973540000000 1.0
C      1  0.5142090000000  0.5344460000000  0.5551700000000 1.0
C      1  0.4509350000000  0.5457540000000  0.5768720000000 1.0
C      1  0.5009210000000  0.5559700000000  0.4705050000000 1.0
C      1  0.4640270000000  0.4376170000000  0.5544890000000 1.0
C      1  0.4899890000000  0.5103170000000  0.4607850000000 1.0
C      1  0.5821780000000  0.4658610000000  0.5856880000000 1.0
C      1  0.4062320000000  0.6090850000000  0.5245640000000 1.0
C      1  0.5232860000000  0.5179280000000  0.3949590000000 1.0
C      1  0.5523470000000  0.4790120000000  0.4446210000000 1.0
C      1  0.5187170000000  0.4649830000000  0.5736870000000 1.0
C      1  0.5179650000000  0.5013920000000  0.4985520000000 1.0
C      1  0.3984690000000  0.5330650000000  0.5157320000000 1.0
C      1  0.5462250000000  0.5368040000000  0.4968180000000 1.0
C      1  0.5784070000000  0.5861360000000  0.4859790000000 1.0
C      1  0.5250230000000  0.5543670000000  0.4867890000000 1.0
C      1  0.5698110000000  0.4674640000000  0.4855930000000 1.0
C      1  0.5112420000000  0.5399150000000  0.6248870000000 1.0
C      1  0.3947050000000  0.4727230000000  0.4391620000000 1.0
C      1  0.4857240000000  0.4360780000000  0.5345340000000 1.0
C      1  0.4408680000000  0.5378960000000  0.5510030000000 1.0
C      1  0.5321200000000  0.3895610000000  0.5487350000000 1.0
C      1  0.4398620000000  0.5114800000000  0.4400900000000 1.0
C      1  0.4757000000000  0.4860970000000  0.4567360000000 1.0
C      1  0.5532850000000  0.5741160000000  0.4445290000000 1.0
C      1  0.4669610000000  0.5031400000000  0.6170320000000 1.0
C      1  0.4774890000000  0.6413070000000  0.4728490000000 1.0
C      1  0.4815020000000  0.3730940000000  0.4865150000000 1.0
C      1  0.3725390000000  0.5993100000000  0.4799040000000 1.0
C      1  0.5748000000000  0.5517720000000  0.5405110000000 1.0
C      1  0.3845550000000  0.4699170000000  0.4900270000000 1.0
C      1  0.4732330000000  0.4710190000000  0.5062160000000 1.0
C      1  0.5375990000000  0.5742490000000  0.3758360000000 1.0
C      1  0.4712110000000  0.5231560000000  0.5025290000000 1.0
C      1  0.5016610000000  0.4151230000000  0.5239940000000 1.0
C      1  0.5589560000000  0.4307270000000  0.5596000000000 1.0
C      1  0.6497420000000  0.4895960000000  0.4162570000000 1.0
C      1  0.5333560000000  0.4986820000000  0.6089680000000 1.0
C      1  0.4670450000000  0.3743430000000  0.4603810000000 1.0
C      1  0.5137850000000  0.5118620000000  0.6256080000000 1.0
C      1  0.4929220000000  0.5103620000000  0.4893990000000 1.0
C      1  0.3955650000000  0.5727950000000  0.4346610000000 1.0
C      1  0.4448640000000  0.4702000000000  0.5118840000000 1.0
C      1  0.4656330000000  0.4162910000000  0.5764870000000 1.0
C      1  0.4662770000000  0.4235120000000  0.4854180000000 1.0
C      1  0.5297040000000  0.5672050000000  0.4011330000000 1.0
C      1  0.5531890000000  0.4861780000000  0.5257240000000 1.0
C      1  0.5574010000000  0.5092730000000  0.5987800000000 1.0
C      1  0.4665920000000  0.4566040000000  0.6149250000000 1.0
C      1  0.6262780000000  0.5373330000000  0.5153620000000 1.0
C      1  0.5189010000000  0.5094390000000  0.5476090000000 1.0
C      1  0.4427270000000  0.5196940000000  0.4932120000000 1.0
C      1  0.4615140000000  0.4813670000000  0.5997180000000 1.0
C      1  0.4511670000000  0.4645200000000  0.5573900000000 1.0
C      1  0.5912520000000  0.5712610000000  0.5287270000000 1.0
C      1  0.4889390000000  0.4376740000000  0.4428710000000 1.0
C      1  0.5035630000000  0.4525530000000  0.4246390000000 1.0
C      1  0.5595110000000  0.6223380000000  0.5483110000000 1.0
C      1  0.4972620000000  0.6364890000000  0.4553950000000 1.0
C      1  0.4128910000000  0.5904720000000  0.5056120000000 1.0
C      1  0.5350530000000  0.4264180000000  0.4912370000000 1.0
C      1  0.4954490000000  0.4743880000000  0.5587060000000 1.0
C      1  0.5097150000000  0.3938630000000  0.4525050000000 1.0
C      1  0.4904260000000  0.4645580000000  0.5297360000000 1.0
C      1  0.6090270000000  0.4489770000000  0.4724780000000 1.0
C      1  0.4181650000000  0.4431430000000  0.4720260000000 1.0
C      1  0.3820850000000  0.5757170000000  0.4120410000000 1.0
C      1  0.4389530000000  0.3741720000000  0.4584800000000 1.0
C      1  0.4672970000000  0.3811710000000  0.5109980000000 1.0
C      1  0.4766230000000  0.5690790000000  0.4779100000000 1.0
C      1  0.6168330000000  0.4977030000000  0.4585080000000 1.0
C      1  0.4489780000000  0.5670320000000  0.4838810000000 1.0
C      1  0.4665390000000  0.5413700000000  0.4133130000000 1.0
C      1  0.5267880000000  0.6104340000000  0.4260240000000 1.0
C      1  0.4071280000000  0.5716000000000  0.4599540000000 1.0
C      1  0.4391900000000  0.4818890000000  0.5381340000000 1.0
C      1  0.3755930000000  0.5439110000000  0.5236270000000 1.0
C      1  0.5291470000000  0.5939800000000  0.5235420000000 1.0
C      1  0.4274690000000  0.3966410000000  0.5511660000000 1.0
C      1  0.5627030000000  0.4544950000000  0.4587410000000 1.0
C      1  0.3320920000000  0.5692780000000  0.5386550000000 1.0
C      1  0.4730100000000  0.6306900000000  0.4971470000000 1.0
C      1  0.5061990000000  0.3882230000000  0.4813630000000 1.0
C      1  0.5150470000000  0.5430770000000  0.4050300000000 1.0
C      1  0.5773540000000  0.4006820000000  0.5263440000000 1.0
C      1  0.6171220000000  0.4766950000000  0.4788970000000 1.0
C      1  0.5823850000000  0.4472530000000  0.5637280000000 1.0
C      1  0.6008290000000  0.5218490000000  0.4580720000000 1.0
END
