TITL C-612603-7354-739 6.84870409199948 125000 -275.922145846556 0 0 48 (C1) n - 1
REM
REM in /home/nfs/bkarasulu/CARBON/AIRSS/Generating-Clusters/TERSOFF/Only-C1/FIRE-HFTN
REM
REM
REM
REM
REM
REM ./C.cell (11c1c37f851c82e70ff6c80c92926a4b)
REM AIRSS Version 0.9.1 bugfix July 2018 build 013d7b7c2542+ Fri, 06 Jul 2018 19:26:36 +0100
REM compiler GCC version 9.2.1 20190827 (Red Hat 9.2.1-1)
REM options -cpp -mtune=generic -march=x86-64 -g -O0 -fpre-include=/usr/include/finclude/math-vector-fortran.h
REM seed -1755784745 -1714936638 1153995598 987968090 -1150752001 1049578495 783326840 -210655693 937595400 114715566 -1106153805 1021077441 1438987552 172725113 -722279006 -1453712276 -540441349 -317901968 1426950942 1738629152 596332447 -1386391664 110293767 -1199330104 -1703834814 1393388145 1959602112 -1211211159 272613707 -88696143 1265713229 -527094349 2011194998
REM
CELL 1.54180   50.00000   50.00000   50.00000   90.00000   90.00000   90.00000
LATT -1
SFAC C  
C      1  0.4870660000000  0.5854960000000  0.4938650000000 1.0
C      1  0.4352580000000  0.5904450000000  0.6024740000000 1.0
C      1  0.5128070000000  0.5896990000000  0.4877380000000 1.0
C      1  0.5861320000000  0.5034860000000  0.4952000000000 1.0
C      1  0.5840820000000  0.4940740000000  0.4709850000000 1.0
C      1  0.4578040000000  0.5006070000000  0.4974700000000 1.0
C      1  0.4718670000000  0.5662610000000  0.5075980000000 1.0
C      1  0.4931720000000  0.5226790000000  0.5562140000000 1.0
C      1  0.5022790000000  0.5123520000000  0.4444980000000 1.0
C      1  0.5108290000000  0.5107640000000  0.3972070000000 1.0
C      1  0.4994110000000  0.4025410000000  0.4253210000000 1.0
C      1  0.6046090000000  0.4773870000000  0.4304550000000 1.0
C      1  0.4937020000000  0.5404890000000  0.5801260000000 1.0
C      1  0.5342500000000  0.5161150000000  0.5735290000000 1.0
C      1  0.4903040000000  0.5193250000000  0.4670670000000 1.0
C      1  0.5413630000000  0.5562870000000  0.5102750000000 1.0
C      1  0.5186210000000  0.4516220000000  0.4218310000000 1.0
C      1  0.4816840000000  0.4332640000000  0.5409940000000 1.0
C      1  0.5298420000000  0.4768580000000  0.4260170000000 1.0
C      1  0.4101760000000  0.5986550000000  0.5338830000000 1.0
C      1  0.5354280000000  0.5768920000000  0.4943040000000 1.0
C      1  0.5204770000000  0.5355880000000  0.5906950000000 1.0
C      1  0.4694060000000  0.3881280000000  0.4849400000000 1.0
C      1  0.4484340000000  0.4763500000000  0.5026850000000 1.0
C      1  0.4469150000000  0.5721930000000  0.5183880000000 1.0
C      1  0.4545030000000  0.5740510000000  0.5961120000000 1.0
C      1  0.4768060000000  0.5202000000000  0.4915200000000 1.0
C      1  0.5108930000000  0.5001690000000  0.5642630000000 1.0
C      1  0.4738870000000  0.5573670000000  0.5891980000000 1.0
C      1  0.6259620000000  0.4716110000000  0.4166750000000 1.0
C      1  0.4502730000000  0.4507590000000  0.5094900000000 1.0
C      1  0.5091340000000  0.4268810000000  0.4213740000000 1.0
C      1  0.5465820000000  0.5277420000000  0.5505040000000 1.0
C      1  0.4874170000000  0.3562430000000  0.4202570000000 1.0
C      1  0.4771880000000  0.3793860000000  0.4611510000000 1.0
C      1  0.5817090000000  0.4835700000000  0.4452060000000 1.0
C      1  0.4649640000000  0.4047300000000  0.5051350000000 1.0
C      1  0.4832490000000  0.5402440000000  0.5105920000000 1.0
C      1  0.4223480000000  0.5742390000000  0.5316100000000 1.0
C      1  0.4107900000000  0.5517760000000  0.5421760000000 1.0
C      1  0.5564200000000  0.4792620000000  0.4342020000000 1.0
C      1  0.5306140000000  0.5389820000000  0.5294180000000 1.0
C      1  0.5141430000000  0.5002620000000  0.4222490000000 1.0
C      1  0.4879940000000  0.3790270000000  0.4353400000000 1.0
C      1  0.5016790000000  0.5344910000000  0.5313270000000 1.0
C      1  0.4647700000000  0.4288250000000  0.5191460000000 1.0
C      1  0.5064160000000  0.4730040000000  0.5633710000000 1.0
C      1  0.4963400000000  0.4496220000000  0.5559250000000 1.0
END
