TITL C-612604-1799-54 -59961.2095875168 125000 -1179.25668817496 0 0 194 (C1) n - 1
REM
REM in /home/nfs/bkarasulu/CARBON/AIRSS/Generating-Clusters/TERSOFF/Only-C1/FIRE-HFTN
REM
REM
REM
REM
REM
REM ./C.cell (11c1c37f851c82e70ff6c80c92926a4b)
REM AIRSS Version 0.9.1 bugfix July 2018 build 013d7b7c2542+ Fri, 06 Jul 2018 19:26:36 +0100
REM compiler GCC version 9.2.1 20190827 (Red Hat 9.2.1-1)
REM options -cpp -mtune=generic -march=x86-64 -g -O0 -fpre-include=/usr/include/finclude/math-vector-fortran.h
REM seed -1147065790 -1241235250 1593519435 -34323743 -753957482 1343865481 865151866 -1160829604 773096637 1215287352 -1724184080 1717426440 -180742398 2107516933 1789553128 145831484 507037440 -1908475378 -100142823 -1948497605 1221055941 1618662920 2127255612 1793652239 194692141 -562566677 -1810796909 -67972106 1884440793 1304402993 989619077 -1624529268 22970697
REM
CELL 1.54180   50.00000   50.00000   50.00000   90.00000   90.00000   90.00000
LATT -1
SFAC C  
C      1  0.5384050000000  0.3937200000000  0.5687020000000 1.0
C      1  0.3996590000000  0.4291030000000  0.4607950000000 1.0
C      1  0.5148400000000  0.5231430000000  0.6288440000000 1.0
C      1  0.5080890000000  0.4702370000000  0.6292230000000 1.0
C      1  0.4302220000000  0.4847670000000  0.4160400000000 1.0
C      1  0.5434260000000  0.6078790000000  0.5214750000000 1.0
C      1  0.4764370000000  0.4517460000000  0.3590720000000 1.0
C      1  0.4050640000000  0.4796340000000  0.5421110000000 1.0
C      1  0.5271710000000  0.3872840000000  0.4340250000000 1.0
C      1  0.4966180000000  0.5667060000000  0.5189390000000 1.0
C      1  0.6057860000000  0.5608270000000  0.5350960000000 1.0
C      1  0.5195420000000  0.4806070000000  0.5671450000000 1.0
C      1  0.5615870000000  0.5746750000000  0.5565820000000 1.0
C      1  0.5861330000000  0.5009560000000  0.4231980000000 1.0
C      1  0.5976320000000  0.4542690000000  0.4444360000000 1.0
C      1  0.4597520000000  0.4527160000000  0.5301610000000 1.0
C      1  0.4882770000000  0.4170910000000  0.4124020000000 1.0
C      1  0.5159460000000  0.3790650000000  0.5041210000000 1.0
C      1  0.5953960000000  0.4432390000000  0.4708260000000 1.0
C      1  0.4236730000000  0.5697880000000  0.5094310000000 1.0
C      1  0.5377250000000  0.5851390000000  0.6241320000000 1.0
C      1  0.5704880000000  0.4957410000000  0.5740770000000 1.0
C      1  0.5857380000000  0.5461740000000  0.5888890000000 1.0
C      1  0.5621510000000  0.4724040000000  0.5894930000000 1.0
C      1  0.5786440000000  0.4489760000000  0.5895310000000 1.0
C      1  0.5341670000000  0.4683460000000  0.5909760000000 1.0
C      1  0.4248440000000  0.4639780000000  0.4847580000000 1.0
C      1  0.4967740000000  0.6050510000000  0.5447780000000 1.0
C      1  0.5800670000000  0.4751700000000  0.4371250000000 1.0
C      1  0.5225870000000  0.6164130000000  0.5030920000000 1.0
C      1  0.5682610000000  0.4355910000000  0.4778230000000 1.0
C      1  0.6041470000000  0.5333140000000  0.5731880000000 1.0
C      1  0.5788340000000  0.5394190000000  0.4850210000000 1.0
C      1  0.5247050000000  0.5175810000000  0.4326490000000 1.0
C      1  0.4917710000000  0.5655580000000  0.4716190000000 1.0
C      1  0.4522630000000  0.4685060000000  0.4843740000000 1.0
C      1  0.4336280000000  0.4130440000000  0.5260700000000 1.0
C      1  0.5362520000000  0.4718200000000  0.4061580000000 1.0
C      1  0.4962820000000  0.5312670000000  0.5670430000000 1.0
C      1  0.4519930000000  0.4270140000000  0.5460670000000 1.0
C      1  0.4542160000000  0.5771960000000  0.5476640000000 1.0
C      1  0.4375140000000  0.5197000000000  0.3794290000000 1.0
C      1  0.4837450000000  0.6119770000000  0.4677180000000 1.0
C      1  0.3687720000000  0.5326730000000  0.4661390000000 1.0
C      1  0.3706590000000  0.5256940000000  0.5169480000000 1.0
C      1  0.4125530000000  0.4801280000000  0.4382560000000 1.0
C      1  0.5331960000000  0.4649140000000  0.5440390000000 1.0
C      1  0.4093760000000  0.4504990000000  0.5420380000000 1.0
C      1  0.5332480000000  0.4345680000000  0.4366670000000 1.0
C      1  0.5432650000000  0.4220750000000  0.5676970000000 1.0
C      1  0.6097020000000  0.4539890000000  0.5199910000000 1.0
C      1  0.4048430000000  0.4917020000000  0.5692010000000 1.0
C      1  0.4893910000000  0.3842730000000  0.4958050000000 1.0
C      1  0.5252550000000  0.5157880000000  0.5326430000000 1.0
C      1  0.4303050000000  0.5453730000000  0.5234540000000 1.0
C      1  0.4820130000000  0.4958930000000  0.5142940000000 1.0
C      1  0.4099950000000  0.4280120000000  0.5234250000000 1.0
C      1  0.5002010000000  0.3940640000000  0.4274290000000 1.0
C      1  0.3708540000000  0.5449480000000  0.5357290000000 1.0
C      1  0.4220180000000  0.4499560000000  0.5892350000000 1.0
C      1  0.4878920000000  0.4549170000000  0.4558790000000 1.0
C      1  0.4827590000000  0.3828990000000  0.4475070000000 1.0
C      1  0.5498450000000  0.5479960000000  0.4882130000000 1.0
C      1  0.3919820000000  0.5077650000000  0.3990310000000 1.0
C      1  0.4749400000000  0.6172220000000  0.4976780000000 1.0
C      1  0.4568710000000  0.4904560000000  0.4238110000000 1.0
C      1  0.4516280000000  0.5145560000000  0.6073050000000 1.0
C      1  0.3865670000000  0.5556340000000  0.5549490000000 1.0
C      1  0.4990460000000  0.5197480000000  0.5189020000000 1.0
C      1  0.4965990000000  0.4939510000000  0.3771510000000 1.0
C      1  0.5095930000000  0.5403900000000  0.4252510000000 1.0
C      1  0.5570010000000  0.4764630000000  0.4546560000000 1.0
C      1  0.4969400000000  0.6174900000000  0.5171590000000 1.0
C      1  0.5501070000000  0.5290520000000  0.3917230000000 1.0
C      1  0.5993480000000  0.5208090000000  0.4395350000000 1.0
C      1  0.5289420000000  0.4351490000000  0.5420780000000 1.0
C      1  0.5584620000000  0.4461120000000  0.5039590000000 1.0
C      1  0.4489000000000  0.6111470000000  0.5073500000000 1.0
C      1  0.5130280000000  0.5781590000000  0.5830170000000 1.0
C      1  0.5282560000000  0.5280850000000  0.4872030000000 1.0
C      1  0.4432850000000  0.5955630000000  0.5302460000000 1.0
C      1  0.4772340000000  0.5519590000000  0.6276430000000 1.0
C      1  0.4993530000000  0.5584990000000  0.4448640000000 1.0
C      1  0.5604320000000  0.5498980000000  0.5747140000000 1.0
C      1  0.5922560000000  0.4886290000000  0.5549770000000 1.0
C      1  0.4331470000000  0.5161530000000  0.5221680000000 1.0
C      1  0.5518060000000  0.4211090000000  0.4566630000000 1.0
C      1  0.4613890000000  0.6003190000000  0.4484310000000 1.0
C      1  0.5189690000000  0.5709900000000  0.6100010000000 1.0
C      1  0.3901810000000  0.4953020000000  0.4477610000000 1.0
C      1  0.5653140000000  0.4038620000000  0.5310700000000 1.0
C      1  0.5904620000000  0.5207210000000  0.5027970000000 1.0
C      1  0.3785380000000  0.5055470000000  0.4228490000000 1.0
C      1  0.6090610000000  0.4993020000000  0.5058060000000 1.0
C      1  0.4297660000000  0.5644100000000  0.4581200000000 1.0
C      1  0.4550430000000  0.4758520000000  0.5457340000000 1.0
C      1  0.5110700000000  0.4968550000000  0.6337710000000 1.0
C      1  0.5283770000000  0.4450620000000  0.4103060000000 1.0
C      1  0.5018540000000  0.4729580000000  0.5089220000000 1.0
C      1  0.5240560000000  0.4786670000000  0.4911920000000 1.0
C      1  0.4040340000000  0.5609960000000  0.4482830000000 1.0
C      1  0.4113550000000  0.5460610000000  0.5654870000000 1.0
C      1  0.4719900000000  0.4447040000000  0.4816000000000 1.0
C      1  0.5489780000000  0.4256950000000  0.5206110000000 1.0
C      1  0.5376340000000  0.5728080000000  0.4833840000000 1.0
C      1  0.4772800000000  0.5104500000000  0.4704990000000 1.0
C      1  0.5623090000000  0.5475100000000  0.4440670000000 1.0
C      1  0.4625120000000  0.5412580000000  0.4136870000000 1.0
C      1  0.6197760000000  0.4823000000000  0.4855760000000 1.0
C      1  0.5985980000000  0.5349390000000  0.5451800000000 1.0
C      1  0.5195250000000  0.5996830000000  0.5632920000000 1.0
C      1  0.5873870000000  0.5795280000000  0.5447620000000 1.0
C      1  0.4842300000000  0.5764290000000  0.5448610000000 1.0
C      1  0.4587860000000  0.5027980000000  0.5336310000000 1.0
C      1  0.5222830000000  0.4918570000000  0.4212370000000 1.0
C      1  0.5027520000000  0.5226500000000  0.4743120000000 1.0
C      1  0.5995880000000  0.4460230000000  0.6067490000000 1.0
C      1  0.4695710000000  0.5525610000000  0.4863090000000 1.0
C      1  0.4310380000000  0.5983540000000  0.4887480000000 1.0
C      1  0.4564050000000  0.5357480000000  0.6229050000000 1.0
C      1  0.6053430000000  0.4814970000000  0.5301820000000 1.0
C      1  0.4092990000000  0.5191500000000  0.5740580000000 1.0
C      1  0.4476240000000  0.5457490000000  0.4692060000000 1.0
C      1  0.5216890000000  0.5194290000000  0.3833700000000 1.0
C      1  0.5331480000000  0.4644380000000  0.4682370000000 1.0
C      1  0.4558380000000  0.5883270000000  0.4208170000000 1.0
C      1  0.4835580000000  0.5427510000000  0.5108790000000 1.0
C      1  0.4585570000000  0.5185350000000  0.4294660000000 1.0
C      1  0.4758870000000  0.3936920000000  0.4730350000000 1.0
C      1  0.5023510000000  0.4396820000000  0.3987330000000 1.0
C      1  0.4286210000000  0.4399960000000  0.5638180000000 1.0
C      1  0.5433300000000  0.5952550000000  0.5480790000000 1.0
C      1  0.4856130000000  0.4466950000000  0.5118850000000 1.0
C      1  0.5577150000000  0.4815410000000  0.3907810000000 1.0
C      1  0.5853540000000  0.4174360000000  0.5481500000000 1.0
C      1  0.5027560000000  0.4285400000000  0.5973180000000 1.0
C      1  0.3828340000000  0.5084780000000  0.4729680000000 1.0
C      1  0.5049950000000  0.5492460000000  0.6229220000000 1.0
C      1  0.4460190000000  0.5636700000000  0.4071060000000 1.0
C      1  0.6063790000000  0.4311890000000  0.5357820000000 1.0
C      1  0.4666260000000  0.4927610000000  0.4890410000000 1.0
C      1  0.6075330000000  0.5677020000000  0.4553100000000 1.0
C      1  0.4309900000000  0.5503190000000  0.3847150000000 1.0
C      1  0.4939430000000  0.4089120000000  0.5764300000000 1.0
C      1  0.5531680000000  0.5047550000000  0.5284260000000 1.0
C      1  0.5500610000000  0.5693840000000  0.4309830000000 1.0
C      1  0.4739500000000  0.4713140000000  0.4364810000000 1.0
C      1  0.5352510000000  0.3818630000000  0.4829840000000 1.0
C      1  0.4924550000000  0.4615060000000  0.3794310000000 1.0
C      1  0.4195850000000  0.5014600000000  0.3943750000000 1.0
C      1  0.4034260000000  0.4494760000000  0.4778670000000 1.0
C      1  0.5161340000000  0.4528800000000  0.6079300000000 1.0
C      1  0.5891340000000  0.5443690000000  0.4566350000000 1.0
C      1  0.5392790000000  0.5026140000000  0.4880280000000 1.0
C      1  0.4679210000000  0.5138660000000  0.3764340000000 1.0
C      1  0.4710720000000  0.5196730000000  0.5623760000000 1.0
C      1  0.4612130000000  0.4215490000000  0.4210260000000 1.0
C      1  0.5501420000000  0.5583670000000  0.4029150000000 1.0
C      1  0.4802940000000  0.4185990000000  0.5532500000000 1.0
C      1  0.5050270000000  0.5388110000000  0.3970540000000 1.0
C      1  0.5689540000000  0.5067870000000  0.3993250000000 1.0
C      1  0.6276950000000  0.5663390000000  0.5200590000000 1.0
C      1  0.4785000000000  0.5362580000000  0.3911830000000 1.0
C      1  0.4613980000000  0.4182260000000  0.4704650000000 1.0
C      1  0.5775060000000  0.5213340000000  0.5287890000000 1.0
C      1  0.4353370000000  0.5552010000000  0.5516350000000 1.0
C      1  0.4094510000000  0.4985160000000  0.5195670000000 1.0
C      1  0.5503740000000  0.5208960000000  0.5733170000000 1.0
C      1  0.4920160000000  0.4711860000000  0.5728170000000 1.0
C      1  0.4378130000000  0.5910860000000  0.4633360000000 1.0
C      1  0.4184740000000  0.4170420000000  0.4459350000000 1.0
C      1  0.4083400000000  0.4733970000000  0.5908220000000 1.0
C      1  0.5519380000000  0.4750610000000  0.5254330000000 1.0
C      1  0.5236820000000  0.3759870000000  0.5314160000000 1.0
C      1  0.4601230000000  0.5035650000000  0.5833820000000 1.0
C      1  0.6124440000000  0.4545870000000  0.4906220000000 1.0
C      1  0.5554230000000  0.5026600000000  0.4646840000000 1.0
C      1  0.5482980000000  0.3837650000000  0.5427480000000 1.0
C      1  0.3788610000000  0.5541570000000  0.4536630000000 1.0
C      1  0.5483500000000  0.5228830000000  0.4462890000000 1.0
C      1  0.5713190000000  0.4290370000000  0.5708150000000 1.0
C      1  0.3877420000000  0.5076490000000  0.5022430000000 1.0
C      1  0.4650110000000  0.4775340000000  0.5726260000000 1.0
C      1  0.5364580000000  0.5889750000000  0.4583190000000 1.0
C      1  0.4573850000000  0.5233820000000  0.4561490000000 1.0
C      1  0.4463820000000  0.4195210000000  0.4452520000000 1.0
C      1  0.4969760000000  0.5598910000000  0.5672940000000 1.0
C      1  0.5114720000000  0.3871950000000  0.5687140000000 1.0
C      1  0.5150890000000  0.4487810000000  0.4541920000000 1.0
C      1  0.5418400000000  0.3938560000000  0.4580590000000 1.0
C      1  0.5104400000000  0.5733590000000  0.4938090000000 1.0
C      1  0.5215750000000  0.5129470000000  0.5635030000000 1.0
C      1  0.4999980000000  0.4289240000000  0.5330890000000 1.0
C      1  0.5167910000000  0.6111550000000  0.4691050000000 1.0
END
