TITL C-612603-7354-1469 20097.1241118101 125000 -771.60915080373 0 0 127 (C1) n - 1
REM
REM in /home/nfs/bkarasulu/CARBON/AIRSS/Generating-Clusters/TERSOFF/Only-C1/FIRE-HFTN
REM
REM
REM
REM
REM
REM ./C.cell (11c1c37f851c82e70ff6c80c92926a4b)
REM AIRSS Version 0.9.1 bugfix July 2018 build 013d7b7c2542+ Fri, 06 Jul 2018 19:26:36 +0100
REM compiler GCC version 9.2.1 20190827 (Red Hat 9.2.1-1)
REM options -cpp -mtune=generic -march=x86-64 -g -O0 -fpre-include=/usr/include/finclude/math-vector-fortran.h
REM seed -1086357487 1962858340 603193693 1257940811 -762408396 1281338277 1875362656 132398859 -216594589 -622422204 128478368 -2054554936 -1507521627 312944054 -1701695770 -1290512051 1220988335 1383556748 -554121141 -2139425437 729190369 -2011309639 -292541478 959207335 -844686827 1659272748 356093483 942025535 -256170781 843966962 -1191062729 1981675326 -676662073
REM
CELL 1.54180   50.00000   50.00000   50.00000   90.00000   90.00000   90.00000
LATT -1
SFAC C  
C      1  0.5554830000000  0.5694540000000  0.4896600000000 1.0
C      1  0.5148700000000  0.5896810000000  0.4364440000000 1.0
C      1  0.5020000000000  0.5442880000000  0.6355020000000 1.0
C      1  0.5208220000000  0.5268300000000  0.5681880000000 1.0
C      1  0.4467520000000  0.4045700000000  0.5238370000000 1.0
C      1  0.5080380000000  0.5420630000000  0.6090390000000 1.0
C      1  0.4139350000000  0.5203750000000  0.5401280000000 1.0
C      1  0.4033880000000  0.4211450000000  0.5019400000000 1.0
C      1  0.5371650000000  0.6391400000000  0.5033520000000 1.0
C      1  0.4901250000000  0.5829620000000  0.4439340000000 1.0
C      1  0.5627730000000  0.5788200000000  0.4294820000000 1.0
C      1  0.5792970000000  0.4558800000000  0.5748670000000 1.0
C      1  0.5231130000000  0.5196140000000  0.5969210000000 1.0
C      1  0.5560200000000  0.4536540000000  0.4792110000000 1.0
C      1  0.5243050000000  0.4188710000000  0.4558320000000 1.0
C      1  0.5420670000000  0.5942830000000  0.4422940000000 1.0
C      1  0.5640550000000  0.4884720000000  0.5157160000000 1.0
C      1  0.5436850000000  0.5782120000000  0.5314750000000 1.0
C      1  0.6137300000000  0.5150430000000  0.5008560000000 1.0
C      1  0.5406850000000  0.4418320000000  0.4584770000000 1.0
C      1  0.4776250000000  0.4031190000000  0.4498440000000 1.0
C      1  0.4368950000000  0.5632490000000  0.5601260000000 1.0
C      1  0.4151520000000  0.4676650000000  0.4428590000000 1.0
C      1  0.5910260000000  0.5559280000000  0.5176360000000 1.0
C      1  0.4384640000000  0.4283760000000  0.4689690000000 1.0
C      1  0.4842870000000  0.4873260000000  0.4487670000000 1.0
C      1  0.3828880000000  0.4675130000000  0.5735690000000 1.0
C      1  0.5142610000000  0.4214220000000  0.5839860000000 1.0
C      1  0.3837650000000  0.4403870000000  0.5123270000000 1.0
C      1  0.5049460000000  0.4953880000000  0.5364250000000 1.0
C      1  0.5107070000000  0.4239910000000  0.3921920000000 1.0
C      1  0.4971300000000  0.4325540000000  0.4150690000000 1.0
C      1  0.4971160000000  0.4037110000000  0.5152480000000 1.0
C      1  0.5978420000000  0.5109370000000  0.5530240000000 1.0
C      1  0.4806340000000  0.4554860000000  0.4136530000000 1.0
C      1  0.5436550000000  0.3940170000000  0.5211400000000 1.0
C      1  0.4883680000000  0.4549650000000  0.4921880000000 1.0
C      1  0.5774850000000  0.4382020000000  0.4912310000000 1.0
C      1  0.5455990000000  0.5911810000000  0.5058710000000 1.0
C      1  0.5213370000000  0.4095740000000  0.5299030000000 1.0
C      1  0.3965720000000  0.5311230000000  0.5209050000000 1.0
C      1  0.5671320000000  0.5610490000000  0.5352200000000 1.0
C      1  0.4332160000000  0.4747620000000  0.5283010000000 1.0
C      1  0.5947200000000  0.5656720000000  0.4649870000000 1.0
C      1  0.4539600000000  0.5740150000000  0.4768790000000 1.0
C      1  0.5508670000000  0.3962570000000  0.4936200000000 1.0
C      1  0.5341230000000  0.4999230000000  0.4820150000000 1.0
C      1  0.5796620000000  0.5278780000000  0.5655440000000 1.0
C      1  0.5276210000000  0.3992920000000  0.4770280000000 1.0
C      1  0.4497990000000  0.5159570000000  0.4900550000000 1.0
C      1  0.5488010000000  0.4925960000000  0.5658070000000 1.0
C      1  0.3950630000000  0.5096340000000  0.4444080000000 1.0
C      1  0.5924860000000  0.5136280000000  0.4535750000000 1.0
C      1  0.4000890000000  0.5068300000000  0.4732800000000 1.0
C      1  0.5723420000000  0.5873800000000  0.3765710000000 1.0
C      1  0.5778970000000  0.5583880000000  0.4428340000000 1.0
C      1  0.4840840000000  0.5027470000000  0.5216820000000 1.0
C      1  0.4449880000000  0.4569590000000  0.5097400000000 1.0
C      1  0.5462610000000  0.5194920000000  0.4395290000000 1.0
C      1  0.5724750000000  0.5300330000000  0.4417120000000 1.0
C      1  0.5816400000000  0.4713580000000  0.5291230000000 1.0
C      1  0.5573830000000  0.5160240000000  0.5211090000000 1.0
C      1  0.4187360000000  0.4073440000000  0.5228970000000 1.0
C      1  0.6051430000000  0.5293750000000  0.5236530000000 1.0
C      1  0.4305250000000  0.4743080000000  0.4662580000000 1.0
C      1  0.4720480000000  0.4169370000000  0.5194260000000 1.0
C      1  0.4287350000000  0.5011340000000  0.4776220000000 1.0
C      1  0.5684050000000  0.5839930000000  0.4025530000000 1.0
C      1  0.3785280000000  0.4657510000000  0.5009290000000 1.0
C      1  0.5026160000000  0.3915190000000  0.4895260000000 1.0
C      1  0.3828990000000  0.4896990000000  0.4889570000000 1.0
C      1  0.4041090000000  0.4822080000000  0.5667400000000 1.0
C      1  0.5259810000000  0.5040200000000  0.5521800000000 1.0
C      1  0.5401640000000  0.4953370000000  0.5949490000000 1.0
C      1  0.4265280000000  0.5710020000000  0.4708570000000 1.0
C      1  0.5429580000000  0.6152750000000  0.4916140000000 1.0
C      1  0.3807880000000  0.4313670000000  0.5403410000000 1.0
C      1  0.5298220000000  0.4563580000000  0.5200780000000 1.0
C      1  0.4606200000000  0.5777980000000  0.5567710000000 1.0
C      1  0.4539280000000  0.4987750000000  0.4130970000000 1.0
C      1  0.4941960000000  0.5650110000000  0.5252740000000 1.0
C      1  0.4181760000000  0.4925370000000  0.5446630000000 1.0
C      1  0.4359120000000  0.4526680000000  0.4828670000000 1.0
C      1  0.5256100000000  0.5088710000000  0.4558440000000 1.0
C      1  0.5161240000000  0.5542210000000  0.5650770000000 1.0
C      1  0.4585020000000  0.5846630000000  0.5036530000000 1.0
C      1  0.5103060000000  0.5515050000000  0.4841040000000 1.0
C      1  0.5326600000000  0.4359680000000  0.5691650000000 1.0
C      1  0.5376590000000  0.5480840000000  0.4869960000000 1.0
C      1  0.3709140000000  0.4469600000000  0.5612190000000 1.0
C      1  0.4350610000000  0.5177820000000  0.4158900000000 1.0
C      1  0.5437290000000  0.5230260000000  0.4972950000000 1.0
C      1  0.4738510000000  0.5227750000000  0.5046810000000 1.0
C      1  0.5238550000000  0.4158640000000  0.3712110000000 1.0
C      1  0.5809110000000  0.4796620000000  0.5570910000000 1.0
C      1  0.5839860000000  0.5649910000000  0.4909410000000 1.0
C      1  0.5808980000000  0.5386680000000  0.5903110000000 1.0
C      1  0.5467640000000  0.6124140000000  0.4635750000000 1.0
C      1  0.3925270000000  0.5493960000000  0.5018800000000 1.0
C      1  0.5746900000000  0.4102710000000  0.4881450000000 1.0
C      1  0.4520020000000  0.4141180000000  0.4510010000000 1.0
C      1  0.5434330000000  0.4685380000000  0.6045000000000 1.0
C      1  0.5905120000000  0.4496440000000  0.5137220000000 1.0
C      1  0.5619500000000  0.5344280000000  0.5438040000000 1.0
C      1  0.6075370000000  0.5092810000000  0.4753690000000 1.0
C      1  0.4816180000000  0.5366090000000  0.4519140000000 1.0
C      1  0.4779430000000  0.5776440000000  0.5798610000000 1.0
C      1  0.4832780000000  0.3845690000000  0.4705050000000 1.0
C      1  0.4912290000000  0.5461990000000  0.5039360000000 1.0
C      1  0.3942470000000  0.4828000000000  0.4340680000000 1.0
C      1  0.5002920000000  0.5622250000000  0.5880660000000 1.0
C      1  0.4123970000000  0.5256770000000  0.4285410000000 1.0
C      1  0.4885360000000  0.4686560000000  0.4692850000000 1.0
C      1  0.5530650000000  0.4492400000000  0.5849660000000 1.0
C      1  0.4704560000000  0.5799220000000  0.5295210000000 1.0
C      1  0.4737050000000  0.5641430000000  0.4573100000000 1.0
C      1  0.4034790000000  0.5637180000000  0.4822130000000 1.0
C      1  0.4007850000000  0.4108470000000  0.5454060000000 1.0
C      1  0.5180210000000  0.5680830000000  0.5407760000000 1.0
C      1  0.4707950000000  0.4445890000000  0.5116740000000 1.0
C      1  0.4722410000000  0.4802450000000  0.4240300000000 1.0
C      1  0.4257070000000  0.5394000000000  0.5569100000000 1.0
C      1  0.5002580000000  0.4178180000000  0.4394070000000 1.0
C      1  0.5757870000000  0.5902420000000  0.3508920000000 1.0
C      1  0.5437090000000  0.4745220000000  0.4975420000000 1.0
C      1  0.4974170000000  0.5124090000000  0.4510120000000 1.0
C      1  0.5280640000000  0.4357220000000  0.5403340000000 1.0
END
