TITL C-612602-9376-1041 1.4664808128881 125000 -1212.20978214249 0 0 199 (C1) n - 1
REM
REM in /home/nfs/bkarasulu/CARBON/AIRSS/Generating-Clusters/TERSOFF/Only-C1/FIRE-HFTN
REM
REM
REM
REM
REM
REM ./C.cell (11c1c37f851c82e70ff6c80c92926a4b)
REM AIRSS Version 0.9.1 bugfix July 2018 build 013d7b7c2542+ Fri, 06 Jul 2018 19:26:36 +0100
REM compiler GCC version 9.2.1 20190827 (Red Hat 9.2.1-1)
REM options -cpp -mtune=generic -march=x86-64 -g -O0 -fpre-include=/usr/include/finclude/math-vector-fortran.h
REM seed 1973249376 -1473557965 -725730989 579001672 -46352124 301456754 1969156296 -1676365457 610500640 1235009337 1665878273 -734898991 1947454526 1491162073 1592501056 1888509117 -517424406 -1504460486 1245589195 880105440 756467382 2075210988 -718639759 602921571 -96327360 -1423194221 871664311 2099406910 -451461137 922154267 -1512475804 710773939 1456651691
REM
CELL 1.54180   50.00000   50.00000   50.00000   90.00000   90.00000   90.00000
LATT -1
SFAC C  
C      1  0.4024070000000  0.5418870000000  0.4578230000000 1.0
C      1  0.5857620000000  0.5133880000000  0.5250470000000 1.0
C      1  0.5004430000000  0.6172790000000  0.4486210000000 1.0
C      1  0.3883600000000  0.5704520000000  0.5012830000000 1.0
C      1  0.5409090000000  0.5058320000000  0.4745070000000 1.0
C      1  0.5499630000000  0.4412290000000  0.4306120000000 1.0
C      1  0.4243820000000  0.4852410000000  0.5451520000000 1.0
C      1  0.6757060000000  0.5331660000000  0.4086960000000 1.0
C      1  0.4298210000000  0.4590650000000  0.5360020000000 1.0
C      1  0.4574720000000  0.6094280000000  0.5726620000000 1.0
C      1  0.5363710000000  0.5722290000000  0.4981740000000 1.0
C      1  0.6895580000000  0.6000080000000  0.3720080000000 1.0
C      1  0.5407730000000  0.4999390000000  0.5406970000000 1.0
C      1  0.5917480000000  0.4441810000000  0.5684220000000 1.0
C      1  0.5194490000000  0.4793930000000  0.4409740000000 1.0
C      1  0.4245180000000  0.5229540000000  0.5196260000000 1.0
C      1  0.5038340000000  0.5805020000000  0.5831670000000 1.0
C      1  0.4867890000000  0.3913480000000  0.4174770000000 1.0
C      1  0.4999080000000  0.5014860000000  0.4475360000000 1.0
C      1  0.3957140000000  0.5177930000000  0.5736900000000 1.0
C      1  0.4751040000000  0.5267020000000  0.5703560000000 1.0
C      1  0.5654540000000  0.4005400000000  0.5512770000000 1.0
C      1  0.5494160000000  0.4274520000000  0.5861630000000 1.0
C      1  0.4507720000000  0.6275850000000  0.5513740000000 1.0
C      1  0.4405580000000  0.5043860000000  0.5321500000000 1.0
C      1  0.4412060000000  0.5670460000000  0.5252500000000 1.0
C      1  0.6839150000000  0.6064730000000  0.4217260000000 1.0
C      1  0.4489550000000  0.4732680000000  0.4955400000000 1.0
C      1  0.5097070000000  0.5313580000000  0.5160110000000 1.0
C      1  0.4159280000000  0.5356630000000  0.4324360000000 1.0
C      1  0.7001890000000  0.5257790000000  0.4494050000000 1.0
C      1  0.3723390000000  0.4622480000000  0.5532960000000 1.0
C      1  0.6849460000000  0.5765960000000  0.3600820000000 1.0
C      1  0.4904600000000  0.4514120000000  0.6259500000000 1.0
C      1  0.4562960000000  0.3969090000000  0.5576600000000 1.0
C      1  0.5624020000000  0.5295280000000  0.5717480000000 1.0
C      1  0.4785810000000  0.5215510000000  0.6168860000000 1.0
C      1  0.3839090000000  0.5495650000000  0.5224220000000 1.0
C      1  0.5266400000000  0.4522970000000  0.5324300000000 1.0
C      1  0.6040690000000  0.4448860000000  0.5005270000000 1.0
C      1  0.4846640000000  0.5102220000000  0.5503900000000 1.0
C      1  0.6475530000000  0.5582740000000  0.4647600000000 1.0
C      1  0.5576810000000  0.5277610000000  0.4840190000000 1.0
C      1  0.5250390000000  0.5337660000000  0.4188320000000 1.0
C      1  0.3774780000000  0.4316600000000  0.5017110000000 1.0
C      1  0.4960800000000  0.5905020000000  0.4517910000000 1.0
C      1  0.4364850000000  0.3974980000000  0.5362790000000 1.0
C      1  0.4069910000000  0.4246650000000  0.5680890000000 1.0
C      1  0.5391330000000  0.4780380000000  0.4646250000000 1.0
C      1  0.4823570000000  0.4600160000000  0.4080420000000 1.0
C      1  0.4086340000000  0.6022760000000  0.5671700000000 1.0
C      1  0.3992260000000  0.5452820000000  0.5689080000000 1.0
C      1  0.6121140000000  0.4773480000000  0.3777000000000 1.0
C      1  0.4850330000000  0.3986360000000  0.5546380000000 1.0
C      1  0.4661360000000  0.3909620000000  0.4900300000000 1.0
C      1  0.5405920000000  0.5731900000000  0.5513440000000 1.0
C      1  0.5819280000000  0.5261630000000  0.4995070000000 1.0
C      1  0.4335340000000  0.4575720000000  0.4579950000000 1.0
C      1  0.5600570000000  0.3944570000000  0.5231890000000 1.0
C      1  0.5071350000000  0.5736340000000  0.4967440000000 1.0
C      1  0.5002050000000  0.5127580000000  0.4974370000000 1.0
C      1  0.5531020000000  0.6450550000000  0.5106880000000 1.0
C      1  0.3793840000000  0.5852070000000  0.4552040000000 1.0
C      1  0.3893090000000  0.5073280000000  0.4959780000000 1.0
C      1  0.3930200000000  0.5890900000000  0.5469330000000 1.0
C      1  0.4831560000000  0.3672410000000  0.4957800000000 1.0
C      1  0.4720900000000  0.4857170000000  0.3965640000000 1.0
C      1  0.6525310000000  0.5104290000000  0.3728420000000 1.0
C      1  0.4250730000000  0.5552850000000  0.5739950000000 1.0
C      1  0.4455060000000  0.5617630000000  0.6180710000000 1.0
C      1  0.4155580000000  0.4630800000000  0.4365740000000 1.0
C      1  0.4067990000000  0.4406860000000  0.4221150000000 1.0
C      1  0.5113050000000  0.4947100000000  0.6396440000000 1.0
C      1  0.3694750000000  0.4786680000000  0.5318970000000 1.0
C      1  0.4621010000000  0.5422860000000  0.6260140000000 1.0
C      1  0.4778690000000  0.5599250000000  0.4162510000000 1.0
C      1  0.4855620000000  0.4921550000000  0.5089260000000 1.0
C      1  0.4689160000000  0.5015270000000  0.5298020000000 1.0
C      1  0.4769450000000  0.5311390000000  0.4152320000000 1.0
C      1  0.4869200000000  0.6030910000000  0.5739180000000 1.0
C      1  0.6378460000000  0.4429310000000  0.5544640000000 1.0
C      1  0.6817770000000  0.5401280000000  0.4351250000000 1.0
C      1  0.5293930000000  0.6414590000000  0.5219510000000 1.0
C      1  0.4431170000000  0.5577970000000  0.5521940000000 1.0
C      1  0.5716160000000  0.4237790000000  0.5658080000000 1.0
C      1  0.5297340000000  0.5224230000000  0.5326640000000 1.0
C      1  0.4077070000000  0.6189380000000  0.5115530000000 1.0
C      1  0.5819930000000  0.4217570000000  0.4574660000000 1.0
C      1  0.4590520000000  0.3920440000000  0.4606890000000 1.0
C      1  0.5263420000000  0.5594590000000  0.4303120000000 1.0
C      1  0.5638450000000  0.4728440000000  0.3811420000000 1.0
C      1  0.5044880000000  0.6342580000000  0.5320410000000 1.0
C      1  0.5600590000000  0.4484740000000  0.6026580000000 1.0
C      1  0.5984630000000  0.4307800000000  0.4784470000000 1.0
C      1  0.6773850000000  0.5513720000000  0.3640440000000 1.0
C      1  0.5449430000000  0.5630230000000  0.4511580000000 1.0
C      1  0.4443480000000  0.3983290000000  0.5832710000000 1.0
C      1  0.4085020000000  0.5217040000000  0.4773070000000 1.0
C      1  0.4722050000000  0.4333110000000  0.4025780000000 1.0
C      1  0.3902770000000  0.5656800000000  0.4715670000000 1.0
C      1  0.5838920000000  0.4583790000000  0.5924480000000 1.0
C      1  0.5054170000000  0.4369150000000  0.4456110000000 1.0
C      1  0.5407820000000  0.3619030000000  0.5500490000000 1.0
C      1  0.6687060000000  0.5624750000000  0.4470420000000 1.0
C      1  0.5363790000000  0.5356040000000  0.5836200000000 1.0
C      1  0.6890920000000  0.6115470000000  0.3960700000000 1.0
C      1  0.5048540000000  0.4185220000000  0.5641540000000 1.0
C      1  0.4078220000000  0.4951650000000  0.5656280000000 1.0
C      1  0.5263200000000  0.5629780000000  0.5749040000000 1.0
C      1  0.5764080000000  0.6470120000000  0.4991750000000 1.0
C      1  0.3858700000000  0.4439250000000  0.5679550000000 1.0
C      1  0.5082500000000  0.4468170000000  0.5554740000000 1.0
C      1  0.5059030000000  0.4589090000000  0.4257890000000 1.0
C      1  0.3756170000000  0.4823380000000  0.5035930000000 1.0
C      1  0.4932530000000  0.3572370000000  0.5200150000000 1.0
C      1  0.5433870000000  0.4739260000000  0.5388130000000 1.0
C      1  0.6764800000000  0.5883530000000  0.4397330000000 1.0
C      1  0.6261430000000  0.5498860000000  0.4779230000000 1.0
C      1  0.4805280000000  0.4162720000000  0.4987710000000 1.0
C      1  0.4717290000000  0.5005350000000  0.3497610000000 1.0
C      1  0.4404740000000  0.6224100000000  0.4783180000000 1.0
C      1  0.4327170000000  0.5724380000000  0.5957830000000 1.0
C      1  0.6116740000000  0.4490050000000  0.5492460000000 1.0
C      1  0.4329010000000  0.5982980000000  0.5834360000000 1.0
C      1  0.4857030000000  0.4915310000000  0.3714770000000 1.0
C      1  0.4332420000000  0.6287890000000  0.5048020000000 1.0
C      1  0.5785210000000  0.4367520000000  0.4324240000000 1.0
C      1  0.4509830000000  0.4498910000000  0.5519410000000 1.0
C      1  0.4806860000000  0.6392600000000  0.5174880000000 1.0
C      1  0.5136080000000  0.4871220000000  0.3703160000000 1.0
C      1  0.4287300000000  0.4217110000000  0.5885370000000 1.0
C      1  0.5972010000000  0.4876160000000  0.5240330000000 1.0
C      1  0.4004340000000  0.4256820000000  0.5176770000000 1.0
C      1  0.5339400000000  0.4312160000000  0.4553660000000 1.0
C      1  0.5107720000000  0.4111210000000  0.3778160000000 1.0
C      1  0.4631730000000  0.3973400000000  0.4333650000000 1.0
C      1  0.4988700000000  0.5568770000000  0.5179460000000 1.0
C      1  0.5125460000000  0.5126920000000  0.4726680000000 1.0
C      1  0.4763710000000  0.4673570000000  0.5001260000000 1.0
C      1  0.4112320000000  0.4116220000000  0.5412840000000 1.0
C      1  0.4823280000000  0.4434960000000  0.4611120000000 1.0
C      1  0.5932190000000  0.4487850000000  0.4121340000000 1.0
C      1  0.5232190000000  0.5134750000000  0.5985340000000 1.0
C      1  0.4312460000000  0.5336810000000  0.4936840000000 1.0
C      1  0.4510140000000  0.4187470000000  0.4172660000000 1.0
C      1  0.4297280000000  0.5129370000000  0.4193440000000 1.0
C      1  0.3857310000000  0.5609020000000  0.5491350000000 1.0
C      1  0.5062970000000  0.5180710000000  0.6232540000000 1.0
C      1  0.5367500000000  0.4522590000000  0.4792550000000 1.0
C      1  0.4877310000000  0.5638780000000  0.5420710000000 1.0
C      1  0.4591280000000  0.5754100000000  0.4036950000000 1.0
C      1  0.4555640000000  0.4597030000000  0.5780740000000 1.0
C      1  0.4951870000000  0.3761950000000  0.5406650000000 1.0
C      1  0.5552000000000  0.4106980000000  0.4638800000000 1.0
C      1  0.5897640000000  0.4660380000000  0.3900360000000 1.0
C      1  0.4594340000000  0.5760900000000  0.4801200000000 1.0
C      1  0.4987250000000  0.3307660000000  0.5235110000000 1.0
C      1  0.3950010000000  0.5237310000000  0.5196540000000 1.0
C      1  0.4191580000000  0.4464480000000  0.5122100000000 1.0
C      1  0.4282730000000  0.4565890000000  0.4866680000000 1.0
C      1  0.4654400000000  0.4420140000000  0.6203850000000 1.0
C      1  0.4448950000000  0.5587250000000  0.4976890000000 1.0
C      1  0.5024090000000  0.4700470000000  0.5749730000000 1.0
C      1  0.4450910000000  0.5977170000000  0.4687700000000 1.0
C      1  0.3942280000000  0.5952230000000  0.5180770000000 1.0
C      1  0.5003000000000  0.5720830000000  0.4306780000000 1.0
C      1  0.4920450000000  0.4116520000000  0.3974250000000 1.0
C      1  0.4463360000000  0.4427490000000  0.5989730000000 1.0
C      1  0.4625640000000  0.4631700000000  0.4525750000000 1.0
C      1  0.6689100000000  0.5312540000000  0.3815820000000 1.0
C      1  0.5018090000000  0.6210240000000  0.5568870000000 1.0
C      1  0.5473760000000  0.4150180000000  0.5092190000000 1.0
C      1  0.6043740000000  0.4604600000000  0.5240770000000 1.0
C      1  0.4548720000000  0.5103950000000  0.4616920000000 1.0
C      1  0.4574870000000  0.5102980000000  0.4084900000000 1.0
C      1  0.5347310000000  0.4404100000000  0.5066380000000 1.0
C      1  0.4716350000000  0.5083780000000  0.5922210000000 1.0
C      1  0.4164770000000  0.4881720000000  0.4240610000000 1.0
C      1  0.5286130000000  0.4083320000000  0.5781530000000 1.0
C      1  0.6046030000000  0.5386480000000  0.4884780000000 1.0
C      1  0.5432380000000  0.3856410000000  0.5662670000000 1.0
C      1  0.5391240000000  0.4803950000000  0.3744470000000 1.0
C      1  0.4719890000000  0.4909020000000  0.4527180000000 1.0
C      1  0.4695230000000  0.5519560000000  0.5596380000000 1.0
C      1  0.4836280000000  0.4422770000000  0.4893100000000 1.0
C      1  0.4430200000000  0.3900070000000  0.5097540000000 1.0
C      1  0.5486500000000  0.5553100000000  0.4781780000000 1.0
C      1  0.3722440000000  0.4566400000000  0.4910450000000 1.0
C      1  0.5461590000000  0.5762860000000  0.5249020000000 1.0
C      1  0.5505050000000  0.3670410000000  0.5244950000000 1.0
C      1  0.5013660000000  0.5197250000000  0.4243940000000 1.0
C      1  0.5111370000000  0.4709930000000  0.6229470000000 1.0
C      1  0.4235780000000  0.4216680000000  0.4134060000000 1.0
C      1  0.4879840000000  0.5793870000000  0.4768490000000 1.0
C      1  0.4537140000000  0.6339660000000  0.5241180000000 1.0
C      1  0.5786730000000  0.5247470000000  0.5504600000000 1.0
C      1  0.5192570000000  0.4822680000000  0.5956780000000 1.0
C      1  0.6331840000000  0.4923370000000  0.3719020000000 1.0
C      1  0.4750230000000  0.4797690000000  0.5826340000000 1.0
END
