TITL C-612607-4507-188 0.275343559313418 125000 -1021.57919696171 0 0 165 (C1) n - 1
REM
REM in /home/nfs/bkarasulu/CARBON/AIRSS/Generating-Clusters/TERSOFF/Only-C1/FIRE-HFTN
REM
REM
REM
REM
REM
REM ./C.cell (11c1c37f851c82e70ff6c80c92926a4b)
REM AIRSS Version 0.9.1 bugfix July 2018 build 013d7b7c2542+ Fri, 06 Jul 2018 19:26:36 +0100
REM compiler GCC version 9.2.1 20190827 (Red Hat 9.2.1-1)
REM options -cpp -mtune=generic -march=x86-64 -g -O0 -fpre-include=/usr/include/finclude/math-vector-fortran.h
REM seed 374745384 -246881535 -1061236655 -404358307 2013360746 1587571925 -1018247305 1361875447 -44677937 -232170523 711689034 1445472030 747843739 -1344023295 1836012950 -1296379355 118869291 1931388072 1463993105 2101989915 1332706069 1908305921 -836833175 -115442359 -1111946042 -168880411 -1109565875 -1146132515 -373148027 72162305 -2042977209 921198543 1371084857
REM
CELL 1.54180   50.00000   50.00000   50.00000   90.00000   90.00000   90.00000
LATT -1
SFAC C  
C      1  0.5098380000000  0.5984290000000  0.4719910000000 1.0
C      1  0.4283710000000  0.5423890000000  0.4315520000000 1.0
C      1  0.4616530000000  0.6126910000000  0.5675870000000 1.0
C      1  0.5651550000000  0.4009180000000  0.5474490000000 1.0
C      1  0.6278090000000  0.5165830000000  0.5226520000000 1.0
C      1  0.3826790000000  0.4735420000000  0.4507240000000 1.0
C      1  0.5854150000000  0.3641510000000  0.5820720000000 1.0
C      1  0.4266290000000  0.4876540000000  0.5953030000000 1.0
C      1  0.4679040000000  0.4888100000000  0.4296450000000 1.0
C      1  0.5353330000000  0.4883420000000  0.5390150000000 1.0
C      1  0.5901090000000  0.5561440000000  0.5431370000000 1.0
C      1  0.5153690000000  0.3612010000000  0.5086960000000 1.0
C      1  0.4942830000000  0.5287650000000  0.5275620000000 1.0
C      1  0.5675140000000  0.4286100000000  0.5535320000000 1.0
C      1  0.5437800000000  0.4610600000000  0.4043370000000 1.0
C      1  0.5316140000000  0.4504950000000  0.3803960000000 1.0
C      1  0.4936960000000  0.4367270000000  0.4003950000000 1.0
C      1  0.4228900000000  0.5489410000000  0.4586580000000 1.0
C      1  0.5915770000000  0.4431510000000  0.5473320000000 1.0
C      1  0.5011430000000  0.5424420000000  0.3931700000000 1.0
C      1  0.4711070000000  0.5657840000000  0.4200610000000 1.0
C      1  0.5379390000000  0.4946650000000  0.4759960000000 1.0
C      1  0.5250280000000  0.4467820000000  0.4741410000000 1.0
C      1  0.5877900000000  0.4889060000000  0.5318420000000 1.0
C      1  0.5183820000000  0.4252490000000  0.3876590000000 1.0
C      1  0.4718410000000  0.4597830000000  0.4758120000000 1.0
C      1  0.5513540000000  0.4695660000000  0.5770040000000 1.0
C      1  0.4698730000000  0.4038770000000  0.5827620000000 1.0
C      1  0.5449670000000  0.4442470000000  0.5626320000000 1.0
C      1  0.4992510000000  0.4563920000000  0.4834260000000 1.0
C      1  0.5775720000000  0.5150530000000  0.5754800000000 1.0
C      1  0.4326350000000  0.5012640000000  0.3662640000000 1.0
C      1  0.5436860000000  0.4675600000000  0.4676780000000 1.0
C      1  0.4473220000000  0.3909890000000  0.5694550000000 1.0
C      1  0.5197470000000  0.4445820000000  0.5463060000000 1.0
C      1  0.5524850000000  0.5553700000000  0.5943220000000 1.0
C      1  0.4902040000000  0.5396460000000  0.5766910000000 1.0
C      1  0.5667000000000  0.5636520000000  0.4776310000000 1.0
C      1  0.3486680000000  0.5024600000000  0.4849280000000 1.0
C      1  0.5781210000000  0.6027570000000  0.5408340000000 1.0
C      1  0.4161940000000  0.5051880000000  0.6122140000000 1.0
C      1  0.4874190000000  0.6121160000000  0.4612010000000 1.0
C      1  0.4316270000000  0.4958930000000  0.5421590000000 1.0
C      1  0.5501450000000  0.4094230000000  0.5012330000000 1.0
C      1  0.4599190000000  0.4682650000000  0.4496820000000 1.0
C      1  0.4729720000000  0.4722960000000  0.5941580000000 1.0
C      1  0.4073980000000  0.5100160000000  0.5474110000000 1.0
C      1  0.3861510000000  0.4986840000000  0.5603810000000 1.0
C      1  0.3692670000000  0.5167210000000  0.4712700000000 1.0
C      1  0.4930300000000  0.3714770000000  0.4982640000000 1.0
C      1  0.4998960000000  0.5446100000000  0.5506610000000 1.0
C      1  0.4628990000000  0.4050710000000  0.5222120000000 1.0
C      1  0.5919330000000  0.5297390000000  0.5534710000000 1.0
C      1  0.4489630000000  0.4923110000000  0.3844960000000 1.0
C      1  0.6049690000000  0.3285900000000  0.6154970000000 1.0
C      1  0.5358930000000  0.4227210000000  0.4831650000000 1.0
C      1  0.4216010000000  0.3967170000000  0.5802480000000 1.0
C      1  0.4548890000000  0.4649130000000  0.4994770000000 1.0
C      1  0.5755610000000  0.3820430000000  0.5652120000000 1.0
C      1  0.5489190000000  0.6032120000000  0.5051050000000 1.0
C      1  0.5952730000000  0.3462240000000  0.5989230000000 1.0
C      1  0.4560360000000  0.5408810000000  0.4252700000000 1.0
C      1  0.5440480000000  0.5806330000000  0.5911670000000 1.0
C      1  0.5164990000000  0.4989550000000  0.4939670000000 1.0
C      1  0.3620640000000  0.4611890000000  0.4659360000000 1.0
C      1  0.4043870000000  0.5356930000000  0.5345130000000 1.0
C      1  0.5070900000000  0.6245020000000  0.5117570000000 1.0
C      1  0.3980650000000  0.5578020000000  0.4692360000000 1.0
C      1  0.3829620000000  0.5384670000000  0.4838690000000 1.0
C      1  0.4204610000000  0.5577580000000  0.5416660000000 1.0
C      1  0.4728650000000  0.4306240000000  0.5314780000000 1.0
C      1  0.4443560000000  0.5475910000000  0.4763120000000 1.0
C      1  0.4863430000000  0.4962860000000  0.5975440000000 1.0
C      1  0.6037150000000  0.5119310000000  0.5343240000000 1.0
C      1  0.4384220000000  0.5977280000000  0.5670870000000 1.0
C      1  0.4413380000000  0.4899270000000  0.4973310000000 1.0
C      1  0.4237940000000  0.4971380000000  0.4781610000000 1.0
C      1  0.4490430000000  0.3896370000000  0.5414040000000 1.0
C      1  0.5064630000000  0.4745490000000  0.5047070000000 1.0
C      1  0.4374220000000  0.6149210000000  0.4622340000000 1.0
C      1  0.5158140000000  0.5193150000000  0.4327950000000 1.0
C      1  0.5602360000000  0.4919140000000  0.5256660000000 1.0
C      1  0.5834140000000  0.4920370000000  0.4678170000000 1.0
C      1  0.4386570000000  0.5785440000000  0.5453700000000 1.0
C      1  0.4941360000000  0.5263530000000  0.4498630000000 1.0
C      1  0.5297940000000  0.6125970000000  0.5515540000000 1.0
C      1  0.5042000000000  0.6164230000000  0.5388240000000 1.0
C      1  0.5617830000000  0.5174200000000  0.3977230000000 1.0
C      1  0.5507020000000  0.5627490000000  0.4281140000000 1.0
C      1  0.5148710000000  0.5229090000000  0.5083190000000 1.0
C      1  0.4456070000000  0.5059150000000  0.5198050000000 1.0
C      1  0.5701170000000  0.4689120000000  0.4108160000000 1.0
C      1  0.4938920000000  0.4078910000000  0.5680520000000 1.0
C      1  0.3457510000000  0.4755140000000  0.4823550000000 1.0
C      1  0.4569610000000  0.4546340000000  0.5278410000000 1.0
C      1  0.5663030000000  0.5732380000000  0.4503000000000 1.0
C      1  0.4609560000000  0.5905080000000  0.4282790000000 1.0
C      1  0.3878230000000  0.5375510000000  0.5117320000000 1.0
C      1  0.5179860000000  0.4678530000000  0.5293880000000 1.0
C      1  0.4748840000000  0.3908810000000  0.5012410000000 1.0
C      1  0.4127930000000  0.6066590000000  0.4688120000000 1.0
C      1  0.3794870000000  0.5022840000000  0.4481030000000 1.0
C      1  0.5524580000000  0.3924700000000  0.5234500000000 1.0
C      1  0.6221440000000  0.4474460000000  0.5063300000000 1.0
C      1  0.4631120000000  0.4262780000000  0.5990820000000 1.0
C      1  0.4700970000000  0.5176200000000  0.4361400000000 1.0
C      1  0.5630030000000  0.5422370000000  0.4120090000000 1.0
C      1  0.5383600000000  0.5390550000000  0.5070020000000 1.0
C      1  0.4162210000000  0.4222110000000  0.5881490000000 1.0
C      1  0.4980800000000  0.5647360000000  0.4100330000000 1.0
C      1  0.4815070000000  0.4471680000000  0.6051190000000 1.0
C      1  0.6101170000000  0.4358960000000  0.5273700000000 1.0
C      1  0.5522490000000  0.6124940000000  0.5333810000000 1.0
C      1  0.4075580000000  0.5310870000000  0.4167990000000 1.0
C      1  0.5779470000000  0.4836280000000  0.5762890000000 1.0
C      1  0.4618490000000  0.6082910000000  0.4500210000000 1.0
C      1  0.4335320000000  0.4581070000000  0.4448340000000 1.0
C      1  0.5222650000000  0.5609480000000  0.5474230000000 1.0
C      1  0.5239840000000  0.5724360000000  0.4210040000000 1.0
C      1  0.4713640000000  0.5546510000000  0.5893550000000 1.0
C      1  0.4697370000000  0.5547840000000  0.4847580000000 1.0
C      1  0.4967960000000  0.4279670000000  0.5480440000000 1.0
C      1  0.5025540000000  0.5176390000000  0.5895600000000 1.0
C      1  0.5574560000000  0.4089470000000  0.4170260000000 1.0
C      1  0.5118740000000  0.4703660000000  0.3715390000000 1.0
C      1  0.5027730000000  0.4436090000000  0.4269350000000 1.0
C      1  0.4066220000000  0.5236340000000  0.6279500000000 1.0
C      1  0.4689200000000  0.4811600000000  0.4009500000000 1.0
C      1  0.5847880000000  0.5783720000000  0.5262770000000 1.0
C      1  0.5254760000000  0.4589360000000  0.4266120000000 1.0
C      1  0.5406600000000  0.5565960000000  0.5285770000000 1.0
C      1  0.5917580000000  0.4707810000000  0.5538860000000 1.0
C      1  0.5238010000000  0.6102640000000  0.4935210000000 1.0
C      1  0.4681450000000  0.5211120000000  0.5231620000000 1.0
C      1  0.5298270000000  0.5129480000000  0.5834390000000 1.0
C      1  0.4069010000000  0.4608720000000  0.4442010000000 1.0
C      1  0.5777780000000  0.4537320000000  0.4340480000000 1.0
C      1  0.5779380000000  0.4948440000000  0.4031550000000 1.0
C      1  0.5708360000000  0.4672500000000  0.4579860000000 1.0
C      1  0.5159750000000  0.5214870000000  0.4043660000000 1.0
C      1  0.5621420000000  0.5114580000000  0.4749810000000 1.0
C      1  0.5538810000000  0.5282090000000  0.5870780000000 1.0
C      1  0.5341040000000  0.6011950000000  0.5770240000000 1.0
C      1  0.5107160000000  0.5705070000000  0.4677560000000 1.0
C      1  0.4874580000000  0.4632880000000  0.3876480000000 1.0
C      1  0.4437770000000  0.4706400000000  0.5507730000000 1.0
C      1  0.4711220000000  0.5720700000000  0.5070700000000 1.0
C      1  0.4380990000000  0.4396280000000  0.5913820000000 1.0
C      1  0.5742410000000  0.4255820000000  0.4303930000000 1.0
C      1  0.5828080000000  0.5945970000000  0.4444360000000 1.0
C      1  0.3959260000000  0.5858440000000  0.4710150000000 1.0
C      1  0.4792660000000  0.6054050000000  0.5458750000000 1.0
C      1  0.5359120000000  0.4069360000000  0.4005910000000 1.0
C      1  0.6095460000000  0.4880510000000  0.4771710000000 1.0
C      1  0.3874170000000  0.5153560000000  0.4246970000000 1.0
C      1  0.5357130000000  0.5113480000000  0.3873950000000 1.0
C      1  0.5341230000000  0.4905790000000  0.5673010000000 1.0
C      1  0.4444410000000  0.4680390000000  0.5815360000000 1.0
C      1  0.5245540000000  0.4952000000000  0.3670460000000 1.0
C      1  0.4639200000000  0.5845370000000  0.5310220000000 1.0
C      1  0.5576760000000  0.5376370000000  0.4855170000000 1.0
C      1  0.5694720000000  0.5820820000000  0.5000550000000 1.0
C      1  0.6229150000000  0.4682470000000  0.4894780000000 1.0
C      1  0.4926180000000  0.5487860000000  0.4683320000000 1.0
C      1  0.5377960000000  0.3685500000000  0.5213420000000 1.0
END
