TITL C-612603-7354-1380 0.000382729569916236 125000 -621.812618115147 0 0 102 (C1) n - 1
REM
REM in /home/nfs/bkarasulu/CARBON/AIRSS/Generating-Clusters/TERSOFF/Only-C1/FIRE-HFTN
REM
REM
REM
REM
REM
REM ./C.cell (11c1c37f851c82e70ff6c80c92926a4b)
REM AIRSS Version 0.9.1 bugfix July 2018 build 013d7b7c2542+ Fri, 06 Jul 2018 19:26:36 +0100
REM compiler GCC version 9.2.1 20190827 (Red Hat 9.2.1-1)
REM options -cpp -mtune=generic -march=x86-64 -g -O0 -fpre-include=/usr/include/finclude/math-vector-fortran.h
REM seed -1610896142 950580318 -1406289555 -607325738 2039308857 -1181350660 -2024593959 -695647119 812965551 -1560518191 -382267326 1646494116 -1842156729 -1749276017 -1389383427 2060980121 -1905346954 1511335186 572025778 -2065776729 941960124 716979035 1492704810 1264823242 29928495 1290585434 695132526 1965701425 -433880377 661830298 -297232275 -1766949909 436658428
REM
CELL 1.54180   50.00000   50.00000   50.00000   90.00000   90.00000   90.00000
LATT -1
SFAC C  
C      1  0.4942020000000  0.3854300000000  0.5293400000000 1.0
C      1  0.6006600000000  0.5462680000000  0.5219410000000 1.0
C      1  0.4090440000000  0.5468250000000  0.5177110000000 1.0
C      1  0.4523540000000  0.4478930000000  0.4217030000000 1.0
C      1  0.5211540000000  0.5518210000000  0.5135090000000 1.0
C      1  0.4463620000000  0.4887700000000  0.5826930000000 1.0
C      1  0.5645150000000  0.4729150000000  0.4336990000000 1.0
C      1  0.4951800000000  0.4030690000000  0.5497230000000 1.0
C      1  0.3985540000000  0.4970910000000  0.4797200000000 1.0
C      1  0.5074520000000  0.5214700000000  0.5879520000000 1.0
C      1  0.5234160000000  0.5256300000000  0.5268970000000 1.0
C      1  0.5863570000000  0.5257880000000  0.5614770000000 1.0
C      1  0.5063050000000  0.5034150000000  0.5198700000000 1.0
C      1  0.5441820000000  0.5172970000000  0.5437950000000 1.0
C      1  0.5847610000000  0.5804640000000  0.4310620000000 1.0
C      1  0.4663000000000  0.5206700000000  0.4993230000000 1.0
C      1  0.4790790000000  0.4529020000000  0.4132890000000 1.0
C      1  0.5701490000000  0.4786330000000  0.4819090000000 1.0
C      1  0.5208970000000  0.5325390000000  0.4112170000000 1.0
C      1  0.4473260000000  0.5741550000000  0.4982240000000 1.0
C      1  0.4223260000000  0.5229590000000  0.5266180000000 1.0
C      1  0.5738930000000  0.4460900000000  0.4359010000000 1.0
C      1  0.5703080000000  0.4470620000000  0.4848530000000 1.0
C      1  0.5189950000000  0.4670270000000  0.5825510000000 1.0
C      1  0.4162020000000  0.5127800000000  0.4640300000000 1.0
C      1  0.5510970000000  0.4808930000000  0.4579480000000 1.0
C      1  0.4800480000000  0.3863540000000  0.4790350000000 1.0
C      1  0.5233570000000  0.4847800000000  0.4620470000000 1.0
C      1  0.4543810000000  0.4773730000000  0.5143400000000 1.0
C      1  0.3998340000000  0.4836220000000  0.5043060000000 1.0
C      1  0.5094950000000  0.5065650000000  0.4732340000000 1.0
C      1  0.4268490000000  0.5368100000000  0.4747930000000 1.0
C      1  0.4790570000000  0.5058760000000  0.4196140000000 1.0
C      1  0.5941390000000  0.4956790000000  0.4788700000000 1.0
C      1  0.5120130000000  0.4934500000000  0.5901940000000 1.0
C      1  0.4448500000000  0.4277050000000  0.4939940000000 1.0
C      1  0.4355070000000  0.4980400000000  0.4477550000000 1.0
C      1  0.5282040000000  0.5410970000000  0.5865700000000 1.0
C      1  0.4552920000000  0.4654220000000  0.5400470000000 1.0
C      1  0.5218770000000  0.5543300000000  0.4845530000000 1.0
C      1  0.5993290000000  0.5448390000000  0.4938030000000 1.0
C      1  0.4959790000000  0.4312750000000  0.4200610000000 1.0
C      1  0.6065320000000  0.5258780000000  0.5411450000000 1.0
C      1  0.4616100000000  0.5739550000000  0.5236170000000 1.0
C      1  0.4799540000000  0.5281080000000  0.5836870000000 1.0
C      1  0.5216310000000  0.5990880000000  0.4639440000000 1.0
C      1  0.4731220000000  0.4060710000000  0.4597830000000 1.0
C      1  0.5989580000000  0.5230100000000  0.4745680000000 1.0
C      1  0.4184780000000  0.4358620000000  0.5006430000000 1.0
C      1  0.4520280000000  0.4251980000000  0.4660130000000 1.0
C      1  0.4111310000000  0.4787740000000  0.5496580000000 1.0
C      1  0.4866320000000  0.5868730000000  0.5266480000000 1.0
C      1  0.4674810000000  0.4401270000000  0.5386310000000 1.0
C      1  0.4522580000000  0.4766500000000  0.4877330000000 1.0
C      1  0.3845410000000  0.4361450000000  0.5559930000000 1.0
C      1  0.4605420000000  0.5493760000000  0.5388400000000 1.0
C      1  0.5467630000000  0.4637230000000  0.5785780000000 1.0
C      1  0.5875620000000  0.5176700000000  0.4263650000000 1.0
C      1  0.5934360000000  0.5343270000000  0.4480630000000 1.0
C      1  0.5742070000000  0.5531110000000  0.5623200000000 1.0
C      1  0.4872330000000  0.4295330000000  0.5563680000000 1.0
C      1  0.5834240000000  0.5655130000000  0.5372460000000 1.0
C      1  0.5893230000000  0.5627810000000  0.4511500000000 1.0
C      1  0.3974860000000  0.4545630000000  0.5409390000000 1.0
C      1  0.5804810000000  0.5897830000000  0.4952290000000 1.0
C      1  0.5107950000000  0.5746860000000  0.5266260000000 1.0
C      1  0.5908310000000  0.5690840000000  0.4791700000000 1.0
C      1  0.5011190000000  0.4467380000000  0.5741050000000 1.0
C      1  0.4860640000000  0.4800660000000  0.4111150000000 1.0
C      1  0.4459390000000  0.4479470000000  0.4491340000000 1.0
C      1  0.4915780000000  0.5074480000000  0.4960530000000 1.0
C      1  0.5099100000000  0.5748890000000  0.4684010000000 1.0
C      1  0.4678920000000  0.4304810000000  0.5114030000000 1.0
C      1  0.5652050000000  0.4810570000000  0.5697150000000 1.0
C      1  0.4517580000000  0.5124920000000  0.4290630000000 1.0
C      1  0.5393910000000  0.4655980000000  0.5180540000000 1.0
C      1  0.4799600000000  0.5520780000000  0.4329100000000 1.0
C      1  0.4881010000000  0.3795530000000  0.5037970000000 1.0
C      1  0.5571000000000  0.4858710000000  0.5077210000000 1.0
C      1  0.4560350000000  0.5355410000000  0.4774720000000 1.0
C      1  0.4443600000000  0.4739270000000  0.4608560000000 1.0
C      1  0.5244150000000  0.5303380000000  0.4706220000000 1.0
C      1  0.4642580000000  0.5634470000000  0.4763200000000 1.0
C      1  0.4956880000000  0.5300430000000  0.4212160000000 1.0
C      1  0.5149450000000  0.4768800000000  0.5259570000000 1.0
C      1  0.4525400000000  0.5418530000000  0.4286640000000 1.0
C      1  0.4716090000000  0.5464960000000  0.5643220000000 1.0
C      1  0.4845730000000  0.5675000000000  0.4570530000000 1.0
C      1  0.4607050000000  0.5092450000000  0.5920090000000 1.0
C      1  0.5510180000000  0.4416660000000  0.5064230000000 1.0
C      1  0.5762210000000  0.5881480000000  0.5220310000000 1.0
C      1  0.4008570000000  0.4550300000000  0.5117200000000 1.0
C      1  0.5763590000000  0.4340590000000  0.4603720000000 1.0
C      1  0.4513660000000  0.5263090000000  0.5243360000000 1.0
C      1  0.5768490000000  0.4939290000000  0.4196960000000 1.0
C      1  0.4375340000000  0.4756650000000  0.5597630000000 1.0
C      1  0.5500970000000  0.5544480000000  0.5775230000000 1.0
C      1  0.4927030000000  0.4325870000000  0.4991670000000 1.0
C      1  0.4210510000000  0.5585420000000  0.4945700000000 1.0
C      1  0.4907030000000  0.4120710000000  0.4383710000000 1.0
C      1  0.5658480000000  0.5065950000000  0.5586180000000 1.0
C      1  0.4085270000000  0.4984980000000  0.5283230000000 1.0
END
