TITL C-612602-9376-17 0.0671746016064582 125000 -192.189453642578 0 0 34 (C1) n - 1
REM
REM in /home/nfs/bkarasulu/CARBON/AIRSS/Generating-Clusters/TERSOFF/Only-C1/FIRE-HFTN
REM
REM
REM
REM
REM
REM ./C.cell (11c1c37f851c82e70ff6c80c92926a4b)
REM AIRSS Version 0.9.1 bugfix July 2018 build 013d7b7c2542+ Fri, 06 Jul 2018 19:26:36 +0100
REM compiler GCC version 9.2.1 20190827 (Red Hat 9.2.1-1)
REM options -cpp -mtune=generic -march=x86-64 -g -O0 -fpre-include=/usr/include/finclude/math-vector-fortran.h
REM seed -664936010 1046215348 205887576 2101798750 -706857824 677726236 -917966897 -373017988 89859253 1391918746 -657596118 -409351936 155552812 875953784 -1864093030 1792818297 -134848079 -825910371 -409366683 -2109049018 427094455 -1152351550 -1891661880 -800628527 1048082145 -644508921 1415303761 -438775212 -1032384060 782537449 107018220 1631608683 -854223617
REM
CELL 1.54180   50.00000   50.00000   50.00000   90.00000   90.00000   90.00000
LATT -1
SFAC C  
C      1  0.5143850000000  0.5062310000000  0.5585260000000 1.0
C      1  0.5621160000000  0.4906800000000  0.5175580000000 1.0
C      1  0.5181340000000  0.5175940000000  0.4832180000000 1.0
C      1  0.4788450000000  0.5638470000000  0.5241570000000 1.0
C      1  0.5411240000000  0.5348110000000  0.5214880000000 1.0
C      1  0.4442290000000  0.4333410000000  0.4575800000000 1.0
C      1  0.4784500000000  0.5612760000000  0.5522520000000 1.0
C      1  0.4646690000000  0.4515780000000  0.4577770000000 1.0
C      1  0.4600550000000  0.4782790000000  0.4489620000000 1.0
C      1  0.5282320000000  0.4576440000000  0.4961710000000 1.0
C      1  0.4991640000000  0.5221090000000  0.5760130000000 1.0
C      1  0.4496080000000  0.4971760000000  0.4668260000000 1.0
C      1  0.4825180000000  0.4682950000000  0.5083880000000 1.0
C      1  0.5005840000000  0.4551600000000  0.4911100000000 1.0
C      1  0.5045610000000  0.5040580000000  0.5317690000000 1.0
C      1  0.5219360000000  0.5131770000000  0.4578350000000 1.0
C      1  0.5590010000000  0.5853250000000  0.5167050000000 1.0
C      1  0.5135800000000  0.5267460000000  0.5116600000000 1.0
C      1  0.5511910000000  0.5605740000000  0.5190340000000 1.0
C      1  0.5057820000000  0.4257410000000  0.4523370000000 1.0
C      1  0.5205150000000  0.4087860000000  0.4382910000000 1.0
C      1  0.4804150000000  0.4939280000000  0.5192290000000 1.0
C      1  0.4854870000000  0.5449420000000  0.5722880000000 1.0
C      1  0.4905580000000  0.4439530000000  0.4670190000000 1.0
C      1  0.4732360000000  0.5874090000000  0.5116440000000 1.0
C      1  0.5548610000000  0.5125220000000  0.5339920000000 1.0
C      1  0.5427770000000  0.5058110000000  0.5590370000000 1.0
C      1  0.4233240000000  0.5290260000000  0.4917280000000 1.0
C      1  0.5502010000000  0.4703450000000  0.5046690000000 1.0
C      1  0.5350970000000  0.3921520000000  0.4244970000000 1.0
C      1  0.4855310000000  0.5404390000000  0.5097610000000 1.0
C      1  0.4463640000000  0.5147210000000  0.4884800000000 1.0
C      1  0.4658580000000  0.4853450000000  0.4231640000000 1.0
C      1  0.4676130000000  0.5169800000000  0.5068380000000 1.0
END
