TITL C-612607-4507-597 1749.22070129298 125000 -1186.63374677818 0 0 194 (C1) n - 1
REM
REM in /home/nfs/bkarasulu/CARBON/AIRSS/Generating-Clusters/TERSOFF/Only-C1/FIRE-HFTN
REM
REM
REM
REM
REM
REM ./C.cell (11c1c37f851c82e70ff6c80c92926a4b)
REM AIRSS Version 0.9.1 bugfix July 2018 build 013d7b7c2542+ Fri, 06 Jul 2018 19:26:36 +0100
REM compiler GCC version 9.2.1 20190827 (Red Hat 9.2.1-1)
REM options -cpp -mtune=generic -march=x86-64 -g -O0 -fpre-include=/usr/include/finclude/math-vector-fortran.h
REM seed 866594144 918031990 -1866796688 1181231801 -422603626 -1579248472 -1277512242 2112553787 1925796339 1423372364 188907128 -340094666 1684824323 -1008744932 -1128482185 -1624573208 1391078281 -2083326658 1952160736 -1856990021 -2052237887 -640159807 141387595 -1698768823 1379769619 915242772 1581650734 1310975480 1902073315 1257600090 298403268 -1730892076 1112941499
REM
CELL 1.54180   50.00000   50.00000   50.00000   90.00000   90.00000   90.00000
LATT -1
SFAC C  
C      1  0.5822740000000  0.5931560000000  0.5200740000000 1.0
C      1  0.5111790000000  0.3736000000000  0.4732870000000 1.0
C      1  0.4791810000000  0.4031880000000  0.5028440000000 1.0
C      1  0.4696490000000  0.6294870000000  0.5126700000000 1.0
C      1  0.4596990000000  0.6268770000000  0.4876660000000 1.0
C      1  0.5340400000000  0.4409670000000  0.4427700000000 1.0
C      1  0.5060380000000  0.6092890000000  0.5448000000000 1.0
C      1  0.5535680000000  0.4311410000000  0.5871480000000 1.0
C      1  0.6085850000000  0.4665980000000  0.5006050000000 1.0
C      1  0.5156760000000  0.5288100000000  0.4320310000000 1.0
C      1  0.3867900000000  0.5233380000000  0.5656610000000 1.0
C      1  0.4726460000000  0.3601890000000  0.4456480000000 1.0
C      1  0.5933170000000  0.4813820000000  0.4207640000000 1.0
C      1  0.5031250000000  0.5913840000000  0.4587820000000 1.0
C      1  0.5504010000000  0.4540410000000  0.4901270000000 1.0
C      1  0.4911090000000  0.4204920000000  0.4448880000000 1.0
C      1  0.6043340000000  0.4251880000000  0.4769920000000 1.0
C      1  0.4443060000000  0.4888360000000  0.3969070000000 1.0
C      1  0.5211280000000  0.4260980000000  0.3852250000000 1.0
C      1  0.3823900000000  0.5139860000000  0.4729330000000 1.0
C      1  0.4396930000000  0.4697890000000  0.4191880000000 1.0
C      1  0.5045170000000  0.5670040000000  0.3837260000000 1.0
C      1  0.5183080000000  0.4184800000000  0.4869590000000 1.0
C      1  0.4841440000000  0.3771590000000  0.4636500000000 1.0
C      1  0.4683880000000  0.3839030000000  0.5201380000000 1.0
C      1  0.5044640000000  0.4471300000000  0.3804710000000 1.0
C      1  0.5762820000000  0.5773430000000  0.4463710000000 1.0
C      1  0.5808560000000  0.5923810000000  0.5485330000000 1.0
C      1  0.5356780000000  0.5621870000000  0.4985010000000 1.0
C      1  0.4848060000000  0.5783750000000  0.4765580000000 1.0
C      1  0.6133650000000  0.4687520000000  0.5294150000000 1.0
C      1  0.4355470000000  0.4777830000000  0.5569470000000 1.0
C      1  0.5855330000000  0.5295560000000  0.4282900000000 1.0
C      1  0.4406180000000  0.5197240000000  0.5326960000000 1.0
C      1  0.4775220000000  0.4874150000000  0.4820740000000 1.0
C      1  0.4511610000000  0.6175700000000  0.4637530000000 1.0
C      1  0.4754540000000  0.4394470000000  0.4308690000000 1.0
C      1  0.4527000000000  0.4743700000000  0.4885200000000 1.0
C      1  0.5247670000000  0.6040740000000  0.5218260000000 1.0
C      1  0.4654980000000  0.4226060000000  0.5912860000000 1.0
C      1  0.4329050000000  0.4780530000000  0.4679210000000 1.0
C      1  0.6097340000000  0.4954090000000  0.5439970000000 1.0
C      1  0.4869290000000  0.4398040000000  0.5941690000000 1.0
C      1  0.4516150000000  0.4887820000000  0.5788900000000 1.0
C      1  0.5231440000000  0.6078730000000  0.4724660000000 1.0
C      1  0.5985000000000  0.4385310000000  0.5427600000000 1.0
C      1  0.5821400000000  0.5862480000000  0.4735390000000 1.0
C      1  0.4210860000000  0.6050720000000  0.5307480000000 1.0
C      1  0.5397880000000  0.5538340000000  0.4738610000000 1.0
C      1  0.5148170000000  0.5132980000000  0.6347980000000 1.0
C      1  0.5881150000000  0.4127470000000  0.4577790000000 1.0
C      1  0.5217150000000  0.4869000000000  0.6308690000000 1.0
C      1  0.5254340000000  0.4627810000000  0.4995700000000 1.0
C      1  0.4984180000000  0.4395810000000  0.5421470000000 1.0
C      1  0.4074990000000  0.4397820000000  0.4561840000000 1.0
C      1  0.4714150000000  0.5268480000000  0.6049060000000 1.0
C      1  0.4226370000000  0.5884400000000  0.5085840000000 1.0
C      1  0.4999670000000  0.5003820000000  0.5774260000000 1.0
C      1  0.5293430000000  0.3916740000000  0.4858760000000 1.0
C      1  0.4395480000000  0.4348310000000  0.5855770000000 1.0
C      1  0.4971230000000  0.5071850000000  0.5503770000000 1.0
C      1  0.4177380000000  0.5617310000000  0.5754280000000 1.0
C      1  0.4078710000000  0.4793610000000  0.5465660000000 1.0
C      1  0.5660970000000  0.4789790000000  0.5568780000000 1.0
C      1  0.4468190000000  0.4161180000000  0.4705180000000 1.0
C      1  0.4389380000000  0.5539150000000  0.4772870000000 1.0
C      1  0.6010190000000  0.5234010000000  0.5331520000000 1.0
C      1  0.4870980000000  0.3732750000000  0.5388280000000 1.0
C      1  0.5877270000000  0.4832620000000  0.4873340000000 1.0
C      1  0.5757130000000  0.5189230000000  0.5187810000000 1.0
C      1  0.5332710000000  0.5051900000000  0.4730010000000 1.0
C      1  0.5736170000000  0.4928090000000  0.5104720000000 1.0
C      1  0.4375150000000  0.5416420000000  0.5769200000000 1.0
C      1  0.3815640000000  0.4947660000000  0.4961110000000 1.0
C      1  0.4647110000000  0.5433220000000  0.4036240000000 1.0
C      1  0.4087400000000  0.5616020000000  0.4719910000000 1.0
C      1  0.3974100000000  0.5351860000000  0.5109430000000 1.0
C      1  0.5957950000000  0.4404390000000  0.4985830000000 1.0
C      1  0.4975380000000  0.3901420000000  0.5606180000000 1.0
C      1  0.4468730000000  0.4528170000000  0.5064280000000 1.0
C      1  0.4790400000000  0.4589020000000  0.5420970000000 1.0
C      1  0.5664810000000  0.4706160000000  0.5291140000000 1.0
C      1  0.5305970000000  0.5868350000000  0.4173470000000 1.0
C      1  0.4472010000000  0.4419950000000  0.4271320000000 1.0
C      1  0.4241050000000  0.5390330000000  0.5194410000000 1.0
C      1  0.5931080000000  0.5556110000000  0.4361300000000 1.0
C      1  0.5147680000000  0.4278950000000  0.4593770000000 1.0
C      1  0.4323020000000  0.4277260000000  0.4478410000000 1.0
C      1  0.3945820000000  0.4687530000000  0.4977040000000 1.0
C      1  0.4871250000000  0.5736820000000  0.5864630000000 1.0
C      1  0.5798360000000  0.4286650000000  0.4349140000000 1.0
C      1  0.5507880000000  0.4147500000000  0.5640760000000 1.0
C      1  0.6264840000000  0.5649860000000  0.4690630000000 1.0
C      1  0.5247530000000  0.5265480000000  0.5183180000000 1.0
C      1  0.5001730000000  0.4218650000000  0.5107780000000 1.0
C      1  0.5294430000000  0.4659440000000  0.6151320000000 1.0
C      1  0.5751300000000  0.4292600000000  0.6037460000000 1.0
C      1  0.3620760000000  0.4919740000000  0.4348900000000 1.0
C      1  0.4651730000000  0.5095720000000  0.3926250000000 1.0
C      1  0.5930540000000  0.4535180000000  0.4273220000000 1.0
C      1  0.5645020000000  0.5192650000000  0.4110130000000 1.0
C      1  0.4396240000000  0.5628130000000  0.5081050000000 1.0
C      1  0.5349980000000  0.5287690000000  0.5975650000000 1.0
C      1  0.4449190000000  0.6018710000000  0.4426260000000 1.0
C      1  0.5674930000000  0.6005360000000  0.4957150000000 1.0
C      1  0.4899840000000  0.4963580000000  0.3869700000000 1.0
C      1  0.5293050000000  0.4750710000000  0.4081730000000 1.0
C      1  0.5338900000000  0.4693600000000  0.4361960000000 1.0
C      1  0.4751900000000  0.5016980000000  0.5911500000000 1.0
C      1  0.4864000000000  0.4863760000000  0.5316360000000 1.0
C      1  0.5059490000000  0.4732910000000  0.3918130000000 1.0
C      1  0.4591690000000  0.5001090000000  0.5237450000000 1.0
C      1  0.5523950000000  0.4260110000000  0.4264650000000 1.0
C      1  0.4875400000000  0.5618080000000  0.4058920000000 1.0
C      1  0.4674530000000  0.5648670000000  0.5193170000000 1.0
C      1  0.4598990000000  0.5850900000000  0.5863730000000 1.0
C      1  0.3919560000000  0.5401980000000  0.4824570000000 1.0
C      1  0.5027860000000  0.5355210000000  0.5398390000000 1.0
C      1  0.5290890000000  0.5450810000000  0.4513840000000 1.0
C      1  0.6058380000000  0.5732060000000  0.4861240000000 1.0
C      1  0.4820530000000  0.5329800000000  0.4662950000000 1.0
C      1  0.4741990000000  0.5464970000000  0.5401560000000 1.0
C      1  0.5412910000000  0.4181550000000  0.4015510000000 1.0
C      1  0.3925060000000  0.5493180000000  0.5719960000000 1.0
C      1  0.5772370000000  0.5569700000000  0.5814210000000 1.0
C      1  0.4343780000000  0.4310700000000  0.5557810000000 1.0
C      1  0.4909920000000  0.4744350000000  0.4612180000000 1.0
C      1  0.3803080000000  0.5096840000000  0.4449730000000 1.0
C      1  0.5170530000000  0.5749010000000  0.5166190000000 1.0
C      1  0.5529380000000  0.4767300000000  0.3927490000000 1.0
C      1  0.4885830000000  0.5140610000000  0.4864110000000 1.0
C      1  0.4381230000000  0.4275410000000  0.4958060000000 1.0
C      1  0.5086580000000  0.4780680000000  0.5132310000000 1.0
C      1  0.4410580000000  0.5808680000000  0.4260480000000 1.0
C      1  0.6043010000000  0.5522080000000  0.5372780000000 1.0
C      1  0.5157200000000  0.5364910000000  0.6167630000000 1.0
C      1  0.5728410000000  0.4150510000000  0.5422440000000 1.0
C      1  0.5514420000000  0.5281640000000  0.5295750000000 1.0
C      1  0.4501610000000  0.4548120000000  0.5420110000000 1.0
C      1  0.5412410000000  0.3792240000000  0.5375920000000 1.0
C      1  0.4087090000000  0.4626960000000  0.4729610000000 1.0
C      1  0.4880790000000  0.5222670000000  0.4402930000000 1.0
C      1  0.5275530000000  0.5806370000000  0.3896120000000 1.0
C      1  0.5912060000000  0.5676060000000  0.5595060000000 1.0
C      1  0.5620600000000  0.3934890000000  0.5217840000000 1.0
C      1  0.4646050000000  0.5057780000000  0.4365870000000 1.0
C      1  0.3972250000000  0.5242340000000  0.4275940000000 1.0
C      1  0.4429950000000  0.4873110000000  0.4424180000000 1.0
C      1  0.5924000000000  0.4867220000000  0.5659210000000 1.0
C      1  0.4702570000000  0.3997340000000  0.4750500000000 1.0
C      1  0.4677640000000  0.5573450000000  0.4683660000000 1.0
C      1  0.5733580000000  0.4925640000000  0.4024590000000 1.0
C      1  0.5397070000000  0.6098630000000  0.4966670000000 1.0
C      1  0.5162790000000  0.5149490000000  0.4938570000000 1.0
C      1  0.4891140000000  0.5762710000000  0.5046710000000 1.0
C      1  0.4476130000000  0.4034120000000  0.5540010000000 1.0
C      1  0.5154640000000  0.5631480000000  0.5454920000000 1.0
C      1  0.4918370000000  0.5483230000000  0.6045900000000 1.0
C      1  0.5086160000000  0.4429500000000  0.5765210000000 1.0
C      1  0.4361290000000  0.5235960000000  0.4748720000000 1.0
C      1  0.3909500000000  0.5028500000000  0.5462480000000 1.0
C      1  0.5545890000000  0.5408990000000  0.5807600000000 1.0
C      1  0.5553580000000  0.5877130000000  0.4305720000000 1.0
C      1  0.4112290000000  0.4301070000000  0.5341730000000 1.0
C      1  0.5042720000000  0.5839530000000  0.5634660000000 1.0
C      1  0.4834120000000  0.6242850000000  0.5354840000000 1.0
C      1  0.4523730000000  0.5349690000000  0.5541090000000 1.0
C      1  0.5466410000000  0.4971520000000  0.5656130000000 1.0
C      1  0.4012880000000  0.4577850000000  0.5258770000000 1.0
C      1  0.5689740000000  0.4465140000000  0.5106080000000 1.0
C      1  0.5525220000000  0.5245580000000  0.5572110000000 1.0
C      1  0.6022160000000  0.5711230000000  0.5142410000000 1.0
C      1  0.5739640000000  0.3916200000000  0.4703830000000 1.0
C      1  0.6205340000000  0.5583960000000  0.4434960000000 1.0
C      1  0.4714140000000  0.4014970000000  0.5719190000000 1.0
C      1  0.5269390000000  0.5027130000000  0.5855220000000 1.0
C      1  0.4059760000000  0.5872190000000  0.4852350000000 1.0
C      1  0.6018250000000  0.5055670000000  0.4347240000000 1.0
C      1  0.4253190000000  0.6058310000000  0.5571260000000 1.0
C      1  0.5050360000000  0.5823420000000  0.4310790000000 1.0
C      1  0.5320530000000  0.4487820000000  0.5919070000000 1.0
C      1  0.5362390000000  0.5237740000000  0.4124660000000 1.0
C      1  0.5279290000000  0.3951980000000  0.5582890000000 1.0
C      1  0.4243380000000  0.4111090000000  0.5149270000000 1.0
C      1  0.4421670000000  0.3917320000000  0.5285910000000 1.0
C      1  0.5569990000000  0.3902790000000  0.4930990000000 1.0
C      1  0.4402890000000  0.5545020000000  0.4146270000000 1.0
C      1  0.4326350000000  0.5866750000000  0.5762240000000 1.0
C      1  0.4450810000000  0.5351650000000  0.6029160000000 1.0
C      1  0.5654110000000  0.4718420000000  0.4718850000000 1.0
C      1  0.3846720000000  0.5111580000000  0.5198510000000 1.0
C      1  0.5457810000000  0.4857810000000  0.4567090000000 1.0
C      1  0.4168410000000  0.5391070000000  0.4172190000000 1.0
C      1  0.4874220000000  0.4642130000000  0.4369380000000 1.0
END
