TITL C-612602-9376-22 1.92777824376584 125000 -798.537110082478 0 0 131 (C1) n - 1
REM
REM in /home/nfs/bkarasulu/CARBON/AIRSS/Generating-Clusters/TERSOFF/Only-C1/FIRE-HFTN
REM
REM
REM
REM
REM
REM ./C.cell (11c1c37f851c82e70ff6c80c92926a4b)
REM AIRSS Version 0.9.1 bugfix July 2018 build 013d7b7c2542+ Fri, 06 Jul 2018 19:26:36 +0100
REM compiler GCC version 9.2.1 20190827 (Red Hat 9.2.1-1)
REM options -cpp -mtune=generic -march=x86-64 -g -O0 -fpre-include=/usr/include/finclude/math-vector-fortran.h
REM seed 897777036 -1623769634 -422977197 833610433 -510508375 1930049210 1724968223 1364205665 747361421 -1920096731 1829977121 -444675192 710011718 566158142 -50697652 -2008205420 1461211020 -564855811 -2054569892 -848443739 -1748958124 -1431329177 214605929 -1121544029 -600036623 -1230116536 -675388773 -945566842 -2039390634 600466199 -1795602058 118493788 -375315377
REM
CELL 1.54180   50.00000   50.00000   50.00000   90.00000   90.00000   90.00000
LATT -1
SFAC C  
C      1  0.3892630000000  0.5388790000000  0.4876130000000 1.0
C      1  0.3964780000000  0.4651580000000  0.4931100000000 1.0
C      1  0.4709850000000  0.5908970000000  0.4637330000000 1.0
C      1  0.5548770000000  0.5860160000000  0.5593110000000 1.0
C      1  0.5312720000000  0.4723230000000  0.4271620000000 1.0
C      1  0.5924920000000  0.5006000000000  0.5521830000000 1.0
C      1  0.4169570000000  0.4053030000000  0.4201660000000 1.0
C      1  0.4855970000000  0.5681250000000  0.5878810000000 1.0
C      1  0.4341690000000  0.4854760000000  0.5313600000000 1.0
C      1  0.4049950000000  0.5432510000000  0.5389610000000 1.0
C      1  0.5878760000000  0.4406450000000  0.5209540000000 1.0
C      1  0.5332940000000  0.5784890000000  0.5736600000000 1.0
C      1  0.5095080000000  0.5211430000000  0.4432150000000 1.0
C      1  0.3892430000000  0.4922950000000  0.4941060000000 1.0
C      1  0.5956790000000  0.5474110000000  0.5556750000000 1.0
C      1  0.5761890000000  0.5736630000000  0.5116680000000 1.0
C      1  0.5204420000000  0.5190870000000  0.4689060000000 1.0
C      1  0.4142690000000  0.4306810000000  0.4276370000000 1.0
C      1  0.5506830000000  0.4720670000000  0.5400070000000 1.0
C      1  0.4855430000000  0.4792710000000  0.4462190000000 1.0
C      1  0.4449280000000  0.5318900000000  0.4156040000000 1.0
C      1  0.5620900000000  0.4795330000000  0.5146450000000 1.0
C      1  0.4243810000000  0.6408280000000  0.5254120000000 1.0
C      1  0.5180110000000  0.4716600000000  0.4975230000000 1.0
C      1  0.5016440000000  0.6015180000000  0.5481090000000 1.0
C      1  0.5138340000000  0.3749110000000  0.4749090000000 1.0
C      1  0.4676830000000  0.4848870000000  0.4933050000000 1.0
C      1  0.3900470000000  0.5345710000000  0.5159160000000 1.0
C      1  0.4650760000000  0.4751600000000  0.4661880000000 1.0
C      1  0.6211820000000  0.5606340000000  0.4923620000000 1.0
C      1  0.4927220000000  0.5971480000000  0.4193800000000 1.0
C      1  0.4256680000000  0.5215780000000  0.4310600000000 1.0
C      1  0.5661140000000  0.3448040000000  0.4543860000000 1.0
C      1  0.4714790000000  0.4317610000000  0.5340820000000 1.0
C      1  0.5350720000000  0.5707990000000  0.4246320000000 1.0
C      1  0.5329550000000  0.3840830000000  0.5212250000000 1.0
C      1  0.6053760000000  0.4878360000000  0.5296550000000 1.0
C      1  0.4402570000000  0.4892640000000  0.5606360000000 1.0
C      1  0.4743440000000  0.5429270000000  0.5386360000000 1.0
C      1  0.4677820000000  0.5414060000000  0.4053630000000 1.0
C      1  0.5793100000000  0.4872790000000  0.6000900000000 1.0
C      1  0.6390500000000  0.5146190000000  0.4997260000000 1.0
C      1  0.5552680000000  0.4013590000000  0.5235010000000 1.0
C      1  0.4556540000000  0.4648580000000  0.5655290000000 1.0
C      1  0.5534440000000  0.3662080000000  0.4411220000000 1.0
C      1  0.4410040000000  0.4026250000000  0.4898380000000 1.0
C      1  0.4884970000000  0.5056130000000  0.4360290000000 1.0
C      1  0.5516870000000  0.5196700000000  0.4161330000000 1.0
C      1  0.5576050000000  0.5567240000000  0.4978350000000 1.0
C      1  0.3873770000000  0.5011550000000  0.5476610000000 1.0
C      1  0.5545460000000  0.4930460000000  0.6082190000000 1.0
C      1  0.4472200000000  0.5376230000000  0.5763200000000 1.0
C      1  0.5669090000000  0.3816190000000  0.4222440000000 1.0
C      1  0.5611420000000  0.3344950000000  0.4787280000000 1.0
C      1  0.5439900000000  0.4850080000000  0.4939210000000 1.0
C      1  0.4848300000000  0.4639630000000  0.5650170000000 1.0
C      1  0.4239520000000  0.4514300000000  0.4410860000000 1.0
C      1  0.4478830000000  0.4443820000000  0.5443400000000 1.0
C      1  0.5646330000000  0.4268470000000  0.5309270000000 1.0
C      1  0.5788610000000  0.3966680000000  0.4046410000000 1.0
C      1  0.5460190000000  0.5901290000000  0.4431870000000 1.0
C      1  0.4412140000000  0.4640650000000  0.4567900000000 1.0
C      1  0.5012300000000  0.5524200000000  0.5451070000000 1.0
C      1  0.4304450000000  0.5143130000000  0.5713280000000 1.0
C      1  0.4728320000000  0.6007560000000  0.4372750000000 1.0
C      1  0.5502490000000  0.6174330000000  0.4896430000000 1.0
C      1  0.3785740000000  0.5606310000000  0.4753180000000 1.0
C      1  0.4658990000000  0.5500460000000  0.5940520000000 1.0
C      1  0.5459760000000  0.4934340000000  0.4188940000000 1.0
C      1  0.5093110000000  0.5730930000000  0.4940950000000 1.0
C      1  0.4709500000000  0.5164820000000  0.5296500000000 1.0
C      1  0.4294170000000  0.4572770000000  0.5264030000000 1.0
C      1  0.4969120000000  0.4917560000000  0.5024890000000 1.0
C      1  0.5303250000000  0.5588180000000  0.5070950000000 1.0
C      1  0.6116550000000  0.5620940000000  0.5396330000000 1.0
C      1  0.6283570000000  0.4974950000000  0.5171510000000 1.0
C      1  0.5454210000000  0.5103170000000  0.4794080000000 1.0
C      1  0.5485020000000  0.5463110000000  0.4188850000000 1.0
C      1  0.4795600000000  0.3730110000000  0.4419470000000 1.0
C      1  0.5438520000000  0.3439770000000  0.4969950000000 1.0
C      1  0.4521060000000  0.4993830000000  0.5143050000000 1.0
C      1  0.5938350000000  0.4889140000000  0.5777360000000 1.0
C      1  0.4955760000000  0.5921280000000  0.4778560000000 1.0
C      1  0.6359220000000  0.5386020000000  0.4883300000000 1.0
C      1  0.5133520000000  0.5001880000000  0.5785420000000 1.0
C      1  0.3833300000000  0.5052900000000  0.5195010000000 1.0
C      1  0.4089970000000  0.5133450000000  0.4503100000000 1.0
C      1  0.5158910000000  0.3811390000000  0.5425060000000 1.0
C      1  0.4921000000000  0.5527930000000  0.4042110000000 1.0
C      1  0.5287600000000  0.3679390000000  0.4982280000000 1.0
C      1  0.4636920000000  0.3890400000000  0.4853930000000 1.0
C      1  0.5121130000000  0.6123700000000  0.4672800000000 1.0
C      1  0.4548750000000  0.3723860000000  0.4294900000000 1.0
C      1  0.5499020000000  0.5313340000000  0.5438910000000 1.0
C      1  0.5081660000000  0.5740510000000  0.4139840000000 1.0
C      1  0.5042960000000  0.5757090000000  0.5652370000000 1.0
C      1  0.4262980000000  0.5621070000000  0.5398530000000 1.0
C      1  0.5446430000000  0.4445580000000  0.5422710000000 1.0
C      1  0.5266160000000  0.3715480000000  0.4481800000000 1.0
C      1  0.4943310000000  0.4398610000000  0.5518210000000 1.0
C      1  0.5263180000000  0.5451260000000  0.5323960000000 1.0
C      1  0.4833840000000  0.4342530000000  0.5074460000000 1.0
C      1  0.4231290000000  0.6151420000000  0.5296800000000 1.0
C      1  0.5663050000000  0.5870300000000  0.5350230000000 1.0
C      1  0.4769840000000  0.5342790000000  0.4847690000000 1.0
C      1  0.5179830000000  0.4398870000000  0.5359570000000 1.0
C      1  0.5779590000000  0.5257600000000  0.5506620000000 1.0
C      1  0.4241040000000  0.5862490000000  0.4729940000000 1.0
C      1  0.5363240000000  0.6214630000000  0.5129070000000 1.0
C      1  0.5081270000000  0.4636750000000  0.4386080000000 1.0
C      1  0.4231270000000  0.5888720000000  0.5331330000000 1.0
C      1  0.4997110000000  0.5180290000000  0.4879360000000 1.0
C      1  0.4322900000000  0.3835980000000  0.4211540000000 1.0
C      1  0.5305470000000  0.4997430000000  0.5988020000000 1.0
C      1  0.4149320000000  0.4470410000000  0.5046220000000 1.0
C      1  0.5103170000000  0.4457600000000  0.5079090000000 1.0
C      1  0.5166830000000  0.6162120000000  0.5308700000000 1.0
C      1  0.5887070000000  0.4690170000000  0.5163260000000 1.0
C      1  0.3948540000000  0.5134180000000  0.4744560000000 1.0
C      1  0.4504850000000  0.5522510000000  0.5509610000000 1.0
C      1  0.5049800000000  0.3701320000000  0.4293270000000 1.0
C      1  0.4558920000000  0.5499240000000  0.4807860000000 1.0
C      1  0.5632470000000  0.5318360000000  0.4850920000000 1.0
C      1  0.4938410000000  0.4988140000000  0.5322160000000 1.0
C      1  0.5400980000000  0.6084730000000  0.4642700000000 1.0
C      1  0.4491820000000  0.5758010000000  0.4728030000000 1.0
C      1  0.4049610000000  0.5212740000000  0.5592570000000 1.0
C      1  0.4230980000000  0.4220430000000  0.4944370000000 1.0
C      1  0.4848260000000  0.3785260000000  0.4702720000000 1.0
C      1  0.4986420000000  0.4880660000000  0.5582010000000 1.0
C      1  0.6041450000000  0.5685960000000  0.5129960000000 1.0
END
