TITL C-612606-7351-1197 0.0977451385150344 125000 -374.519905746984 0 0 62 (C1) n - 1
REM
REM in /home/nfs/bkarasulu/CARBON/AIRSS/Generating-Clusters/TERSOFF/Only-C1/FIRE-HFTN
REM
REM
REM
REM
REM
REM ./C.cell (11c1c37f851c82e70ff6c80c92926a4b)
REM AIRSS Version 0.9.1 bugfix July 2018 build 013d7b7c2542+ Fri, 06 Jul 2018 19:26:36 +0100
REM compiler GCC version 9.2.1 20190827 (Red Hat 9.2.1-1)
REM options -cpp -mtune=generic -march=x86-64 -g -O0 -fpre-include=/usr/include/finclude/math-vector-fortran.h
REM seed 599930578 -425206147 2073998032 1808234166 1732077539 66277894 1347383900 -238946503 -1287928945 134662212 1736341465 -2050060810 -894467458 488197933 -1746622162 1091123578 -434169340 -2011634967 -2101494026 1262636646 -1959604024 -2103731377 -223401669 113727853 1834347794 -1952962690 -639991989 -691925951 935062952 1995790468 -1329347647 2112619525 108263231
REM
CELL 1.54180   50.00000   50.00000   50.00000   90.00000   90.00000   90.00000
LATT -1
SFAC C  
C      1  0.4946530000000  0.5467840000000  0.6013890000000 1.0
C      1  0.5967750000000  0.4883140000000  0.4879720000000 1.0
C      1  0.4497920000000  0.5530130000000  0.6132620000000 1.0
C      1  0.4439380000000  0.4614950000000  0.5089200000000 1.0
C      1  0.3833230000000  0.5094560000000  0.5635430000000 1.0
C      1  0.5962020000000  0.4808210000000  0.5499030000000 1.0
C      1  0.4501770000000  0.5276160000000  0.5429510000000 1.0
C      1  0.5362280000000  0.4733820000000  0.4281330000000 1.0
C      1  0.5068100000000  0.5762120000000  0.4940510000000 1.0
C      1  0.5023210000000  0.4080790000000  0.4421570000000 1.0
C      1  0.5016330000000  0.4669470000000  0.5330820000000 1.0
C      1  0.5273380000000  0.4490530000000  0.4217180000000 1.0
C      1  0.4903880000000  0.5515210000000  0.4560090000000 1.0
C      1  0.5395300000000  0.4927120000000  0.4484160000000 1.0
C      1  0.5732780000000  0.4946100000000  0.5499180000000 1.0
C      1  0.4429040000000  0.5443520000000  0.5884350000000 1.0
C      1  0.3961750000000  0.4777000000000  0.4573110000000 1.0
C      1  0.4324110000000  0.5052490000000  0.5413400000000 1.0
C      1  0.4191670000000  0.4728140000000  0.4685630000000 1.0
C      1  0.5132950000000  0.4464650000000  0.5181040000000 1.0
C      1  0.5606380000000  0.4376380000000  0.4909100000000 1.0
C      1  0.5632270000000  0.5173080000000  0.5078220000000 1.0
C      1  0.5557140000000  0.5689370000000  0.5000960000000 1.0
C      1  0.5153230000000  0.4530930000000  0.4899620000000 1.0
C      1  0.4724010000000  0.5915720000000  0.4238720000000 1.0
C      1  0.4679490000000  0.4694730000000  0.4664180000000 1.0
C      1  0.4937310000000  0.5120870000000  0.5078460000000 1.0
C      1  0.4394300000000  0.4814870000000  0.5280280000000 1.0
C      1  0.5700260000000  0.4973450000000  0.4884240000000 1.0
C      1  0.4498840000000  0.4346770000000  0.5147880000000 1.0
C      1  0.4552140000000  0.6305890000000  0.3931060000000 1.0
C      1  0.4637360000000  0.6112420000000  0.4083610000000 1.0
C      1  0.4991440000000  0.5270250000000  0.4447830000000 1.0
C      1  0.4796420000000  0.5090160000000  0.4356650000000 1.0
C      1  0.4810820000000  0.5719540000000  0.4394040000000 1.0
C      1  0.5340030000000  0.5232960000000  0.5474210000000 1.0
C      1  0.5659750000000  0.5444280000000  0.5012930000000 1.0
C      1  0.6144970000000  0.4739620000000  0.5314710000000 1.0
C      1  0.5155950000000  0.4258020000000  0.4273480000000 1.0
C      1  0.4761570000000  0.5542320000000  0.6198680000000 1.0
C      1  0.5110820000000  0.5312350000000  0.5584780000000 1.0
C      1  0.5324430000000  0.5818840000000  0.4987800000000 1.0
C      1  0.4909200000000  0.5552510000000  0.4842400000000 1.0
C      1  0.5424730000000  0.4575210000000  0.4815570000000 1.0
C      1  0.4609420000000  0.5360040000000  0.5678620000000 1.0
C      1  0.4804050000000  0.5361660000000  0.5023060000000 1.0
C      1  0.5560930000000  0.5111240000000  0.5350090000000 1.0
C      1  0.4892690000000  0.5375600000000  0.5748330000000 1.0
C      1  0.5508280000000  0.4833240000000  0.4728130000000 1.0
C      1  0.5552960000000  0.4231280000000  0.5133700000000 1.0
C      1  0.4920480000000  0.4580370000000  0.4752690000000 1.0
C      1  0.4738040000000  0.3999040000000  0.4851350000000 1.0
C      1  0.4961090000000  0.4918300000000  0.5250170000000 1.0
C      1  0.5320170000000  0.4271400000000  0.5269870000000 1.0
C      1  0.4584710000000  0.5405860000000  0.5193150000000 1.0
C      1  0.6148100000000  0.4778800000000  0.5048720000000 1.0
C      1  0.4604570000000  0.4123740000000  0.5045630000000 1.0
C      1  0.4881520000000  0.3987820000000  0.4627100000000 1.0
C      1  0.4436590000000  0.4681300000000  0.4811880000000 1.0
C      1  0.5252930000000  0.5168910000000  0.4469040000000 1.0
C      1  0.4069550000000  0.5073060000000  0.5527710000000 1.0
C      1  0.4687670000000  0.4861830000000  0.4439570000000 1.0
END
