TITL C-612604-1799-766 0.000101344673789883 125000 -590.457795414238 0 0 97 (C1) n - 1
REM
REM in /home/nfs/bkarasulu/CARBON/AIRSS/Generating-Clusters/TERSOFF/Only-C1/FIRE-HFTN
REM
REM
REM
REM
REM
REM ./C.cell (11c1c37f851c82e70ff6c80c92926a4b)
REM AIRSS Version 0.9.1 bugfix July 2018 build 013d7b7c2542+ Fri, 06 Jul 2018 19:26:36 +0100
REM compiler GCC version 9.2.1 20190827 (Red Hat 9.2.1-1)
REM options -cpp -mtune=generic -march=x86-64 -g -O0 -fpre-include=/usr/include/finclude/math-vector-fortran.h
REM seed 1139267721 1151927279 -1989076731 1996080719 1120106696 -706193114 -216698440 -767093041 -986573132 -942134670 875078457 515598772 -375284823 525023150 -1352832673 -1763080873 717902965 -625941174 -2099510951 1965162631 -292862674 -1240429387 -1273442075 -360438899 -154461270 -1711684865 -1751923412 1049552095 -416528075 2005168525 1196460074 1910913515 -793034074
REM
CELL 1.54180   50.00000   50.00000   50.00000   90.00000   90.00000   90.00000
LATT -1
SFAC C  
C      1  0.4776970000000  0.5400210000000  0.4797250000000 1.0
C      1  0.4677820000000  0.5246970000000  0.4283910000000 1.0
C      1  0.5201490000000  0.4295850000000  0.5301610000000 1.0
C      1  0.5790650000000  0.4720650000000  0.5273160000000 1.0
C      1  0.4925530000000  0.4825410000000  0.4399650000000 1.0
C      1  0.5697000000000  0.4517360000000  0.4603810000000 1.0
C      1  0.5542130000000  0.5158180000000  0.5555950000000 1.0
C      1  0.4153820000000  0.4741850000000  0.5881990000000 1.0
C      1  0.5044980000000  0.4538350000000  0.5321090000000 1.0
C      1  0.4748710000000  0.3848000000000  0.4942740000000 1.0
C      1  0.4323490000000  0.4951900000000  0.4432580000000 1.0
C      1  0.4899960000000  0.5099710000000  0.4331950000000 1.0
C      1  0.4656240000000  0.4051090000000  0.5393650000000 1.0
C      1  0.5204880000000  0.4753390000000  0.5407990000000 1.0
C      1  0.4117190000000  0.5193760000000  0.5369430000000 1.0
C      1  0.3955950000000  0.4588210000000  0.5771350000000 1.0
C      1  0.5023430000000  0.4209560000000  0.4836910000000 1.0
C      1  0.5240860000000  0.5695950000000  0.4510600000000 1.0
C      1  0.4590860000000  0.4758240000000  0.5645100000000 1.0
C      1  0.4244430000000  0.5440730000000  0.4424460000000 1.0
C      1  0.4845120000000  0.5141120000000  0.4772500000000 1.0
C      1  0.6057180000000  0.4964170000000  0.4619440000000 1.0
C      1  0.5800760000000  0.4990680000000  0.4501350000000 1.0
C      1  0.5611990000000  0.4795240000000  0.4579370000000 1.0
C      1  0.4581820000000  0.5452680000000  0.4987810000000 1.0
C      1  0.5245460000000  0.5387450000000  0.5056780000000 1.0
C      1  0.5899730000000  0.5454870000000  0.4481200000000 1.0
C      1  0.5392560000000  0.5071640000000  0.4082640000000 1.0
C      1  0.3985840000000  0.5369070000000  0.4828090000000 1.0
C      1  0.5454100000000  0.4372780000000  0.5441350000000 1.0
C      1  0.4980350000000  0.4484830000000  0.4773510000000 1.0
C      1  0.5464450000000  0.5481720000000  0.4942360000000 1.0
C      1  0.4334900000000  0.4879790000000  0.5712610000000 1.0
C      1  0.4117750000000  0.5111210000000  0.4867460000000 1.0
C      1  0.5483940000000  0.5278880000000  0.4256900000000 1.0
C      1  0.5385230000000  0.5681040000000  0.5416070000000 1.0
C      1  0.5233450000000  0.4950900000000  0.5214180000000 1.0
C      1  0.4268090000000  0.5138600000000  0.5609720000000 1.0
C      1  0.5131130000000  0.5209900000000  0.5238300000000 1.0
C      1  0.5930680000000  0.4700290000000  0.5006520000000 1.0
C      1  0.5349200000000  0.4822360000000  0.4689680000000 1.0
C      1  0.4837030000000  0.4855130000000  0.5767920000000 1.0
C      1  0.5829260000000  0.4466050000000  0.4850300000000 1.0
C      1  0.4946370000000  0.5493630000000  0.5606010000000 1.0
C      1  0.4263080000000  0.5753390000000  0.4808750000000 1.0
C      1  0.4798130000000  0.4640260000000  0.4941570000000 1.0
C      1  0.5188590000000  0.4576250000000  0.4085560000000 1.0
C      1  0.4836110000000  0.3955490000000  0.5198070000000 1.0
C      1  0.4932850000000  0.5277180000000  0.5422300000000 1.0
C      1  0.5185360000000  0.5848540000000  0.5279380000000 1.0
C      1  0.4409630000000  0.5674040000000  0.5040110000000 1.0
C      1  0.4145270000000  0.4917230000000  0.4657210000000 1.0
C      1  0.5331260000000  0.4887290000000  0.4960190000000 1.0
C      1  0.4540200000000  0.4280060000000  0.5480260000000 1.0
C      1  0.4523700000000  0.5212950000000  0.5139160000000 1.0
C      1  0.4464430000000  0.4735260000000  0.4304480000000 1.0
C      1  0.5274280000000  0.4481360000000  0.4347520000000 1.0
C      1  0.4050420000000  0.5476570000000  0.5306880000000 1.0
C      1  0.4598890000000  0.4554950000000  0.5435380000000 1.0
C      1  0.5128380000000  0.4653630000000  0.4562650000000 1.0
C      1  0.5691140000000  0.4433330000000  0.5300840000000 1.0
C      1  0.5336110000000  0.5057640000000  0.5739280000000 1.0
C      1  0.4757680000000  0.4900640000000  0.4850080000000 1.0
C      1  0.5198240000000  0.5901090000000  0.4997990000000 1.0
C      1  0.5928670000000  0.5542000000000  0.4748890000000 1.0
C      1  0.4856350000000  0.3994980000000  0.4734020000000 1.0
C      1  0.4488470000000  0.5612600000000  0.5526150000000 1.0
C      1  0.5385290000000  0.4615870000000  0.5588810000000 1.0
C      1  0.5197890000000  0.5842490000000  0.4733780000000 1.0
C      1  0.5750020000000  0.4288290000000  0.5059420000000 1.0
C      1  0.4788690000000  0.4586810000000  0.5222110000000 1.0
C      1  0.4405600000000  0.5219570000000  0.4357770000000 1.0
C      1  0.3884630000000  0.5486810000000  0.5071470000000 1.0
C      1  0.4732820000000  0.4665930000000  0.4244560000000 1.0
C      1  0.4488170000000  0.5322820000000  0.5594220000000 1.0
C      1  0.4902020000000  0.4541960000000  0.4047180000000 1.0
C      1  0.6125060000000  0.5457520000000  0.4932530000000 1.0
C      1  0.5521500000000  0.4365540000000  0.4436590000000 1.0
C      1  0.4931250000000  0.5900950000000  0.5407760000000 1.0
C      1  0.5685340000000  0.5609030000000  0.4869840000000 1.0
C      1  0.4256110000000  0.5101920000000  0.5120770000000 1.0
C      1  0.4663450000000  0.5205530000000  0.5386120000000 1.0
C      1  0.5983100000000  0.5168030000000  0.5335830000000 1.0
C      1  0.3992730000000  0.4689010000000  0.4670260000000 1.0
C      1  0.5509620000000  0.5448080000000  0.5496470000000 1.0
C      1  0.5737150000000  0.5241630000000  0.4386100000000 1.0
C      1  0.5312390000000  0.4823710000000  0.4007970000000 1.0
C      1  0.5328260000000  0.5500430000000  0.4346280000000 1.0
C      1  0.4128960000000  0.5551180000000  0.4656300000000 1.0
C      1  0.6107080000000  0.4865710000000  0.4865220000000 1.0
C      1  0.5759070000000  0.4997170000000  0.5404650000000 1.0
C      1  0.4179530000000  0.4764530000000  0.6153680000000 1.0
C      1  0.5073710000000  0.4121350000000  0.5122080000000 1.0
C      1  0.4292310000000  0.5656150000000  0.5308730000000 1.0
C      1  0.5084890000000  0.4966380000000  0.5806870000000 1.0
C      1  0.4764410000000  0.5714820000000  0.5546340000000 1.0
C      1  0.6118930000000  0.5324620000000  0.5166340000000 1.0
END
