TITL C-612607-4507-1249 0.629705614183493 125000 -453.295938347252 0 0 77 (C1) n - 1
REM
REM in /home/nfs/bkarasulu/CARBON/AIRSS/Generating-Clusters/TERSOFF/Only-C1/FIRE-HFTN
REM
REM
REM
REM
REM
REM ./C.cell (11c1c37f851c82e70ff6c80c92926a4b)
REM AIRSS Version 0.9.1 bugfix July 2018 build 013d7b7c2542+ Fri, 06 Jul 2018 19:26:36 +0100
REM compiler GCC version 9.2.1 20190827 (Red Hat 9.2.1-1)
REM options -cpp -mtune=generic -march=x86-64 -g -O0 -fpre-include=/usr/include/finclude/math-vector-fortran.h
REM seed 1754558408 -1879445128 -1305302091 -215352207 -1836444826 -1953253511 1569122689 1312970599 -1795111693 1448973050 1967979128 -1567587157 -1086881241 1738946053 665885859 -972198270 -1904253095 -1578163977 880578034 962845402 1085418299 1611446178 -1307380546 -781431945 -1049792246 1544538751 193110049 566602809 1634622997 -673989794 -982345304 -1714161520 -1792261631
REM
CELL 1.54180   50.00000   50.00000   50.00000   90.00000   90.00000   90.00000
LATT -1
SFAC C  
C      1  0.5087510000000  0.4251370000000  0.5384720000000 1.0
C      1  0.5117130000000  0.5581920000000  0.4967440000000 1.0
C      1  0.5416470000000  0.5220000000000  0.4931040000000 1.0
C      1  0.4973760000000  0.5786950000000  0.4821930000000 1.0
C      1  0.5148270000000  0.4778300000000  0.4410200000000 1.0
C      1  0.5691070000000  0.5215420000000  0.5382360000000 1.0
C      1  0.5445280000000  0.4254580000000  0.4994160000000 1.0
C      1  0.5436980000000  0.4633430000000  0.5620500000000 1.0
C      1  0.4988270000000  0.4146000000000  0.5121750000000 1.0
C      1  0.3719590000000  0.4618920000000  0.4972420000000 1.0
C      1  0.5033450000000  0.5862020000000  0.4555590000000 1.0
C      1  0.5156830000000  0.5296570000000  0.4318650000000 1.0
C      1  0.4774820000000  0.5029100000000  0.4180540000000 1.0
C      1  0.5336100000000  0.5465050000000  0.4817110000000 1.0
C      1  0.4894120000000  0.5804060000000  0.5452160000000 1.0
C      1  0.4191710000000  0.4545250000000  0.5062270000000 1.0
C      1  0.5529700000000  0.4255040000000  0.5269740000000 1.0
C      1  0.4593390000000  0.4909430000000  0.5153800000000 1.0
C      1  0.4332740000000  0.5364850000000  0.5094440000000 1.0
C      1  0.4944360000000  0.5081630000000  0.4850280000000 1.0
C      1  0.4702860000000  0.5812910000000  0.4899220000000 1.0
C      1  0.5411430000000  0.4521140000000  0.4900410000000 1.0
C      1  0.4832350000000  0.5282490000000  0.5422100000000 1.0
C      1  0.4112150000000  0.5212920000000  0.5178830000000 1.0
C      1  0.5809980000000  0.4981900000000  0.5501480000000 1.0
C      1  0.5501590000000  0.5143030000000  0.5182830000000 1.0
C      1  0.4409970000000  0.4438490000000  0.5521780000000 1.0
C      1  0.5040510000000  0.5023050000000  0.4280420000000 1.0
C      1  0.5014260000000  0.5766980000000  0.4303720000000 1.0
C      1  0.5314360000000  0.5423200000000  0.5636530000000 1.0
C      1  0.4764620000000  0.4792090000000  0.5621940000000 1.0
C      1  0.4587410000000  0.5626100000000  0.5749110000000 1.0
C      1  0.6803510000000  0.4647370000000  0.4325260000000 1.0
C      1  0.5137130000000  0.5647720000000  0.5541350000000 1.0
C      1  0.5589470000000  0.5428740000000  0.5543560000000 1.0
C      1  0.5187110000000  0.4142930000000  0.4898910000000 1.0
C      1  0.6044600000000  0.4665780000000  0.4546650000000 1.0
C      1  0.4657660000000  0.5768560000000  0.5179590000000 1.0
C      1  0.5707650000000  0.4736490000000  0.5568380000000 1.0
C      1  0.4362060000000  0.5099010000000  0.4661320000000 1.0
C      1  0.4542420000000  0.5159340000000  0.4217870000000 1.0
C      1  0.4392780000000  0.4574210000000  0.4855950000000 1.0
C      1  0.4877710000000  0.4616180000000  0.4914830000000 1.0
C      1  0.5150440000000  0.4603960000000  0.5004710000000 1.0
C      1  0.5790620000000  0.4672330000000  0.4621450000000 1.0
C      1  0.4399000000000  0.5275840000000  0.4430740000000 1.0
C      1  0.3986910000000  0.4977900000000  0.5155710000000 1.0
C      1  0.6553300000000  0.4653430000000  0.4398240000000 1.0
C      1  0.4652630000000  0.4438680000000  0.4902360000000 1.0
C      1  0.5180030000000  0.4745530000000  0.5242470000000 1.0
C      1  0.3959980000000  0.4713290000000  0.5062050000000 1.0
C      1  0.4422930000000  0.5557090000000  0.4505040000000 1.0
C      1  0.4645600000000  0.5403000000000  0.5606940000000 1.0
C      1  0.5087840000000  0.4487930000000  0.4453040000000 1.0
C      1  0.5333770000000  0.4863750000000  0.4611200000000 1.0
C      1  0.5257110000000  0.5151020000000  0.5749100000000 1.0
C      1  0.4858560000000  0.5011150000000  0.5500840000000 1.0
C      1  0.4479700000000  0.5258150000000  0.4874150000000 1.0
C      1  0.4431730000000  0.5599840000000  0.5218910000000 1.0
C      1  0.5527510000000  0.4682800000000  0.4706070000000 1.0
C      1  0.5111100000000  0.4262930000000  0.4624130000000 1.0
C      1  0.5294460000000  0.4871950000000  0.5745040000000 1.0
C      1  0.4513020000000  0.5739990000000  0.4689360000000 1.0
C      1  0.5039490000000  0.5523330000000  0.4186490000000 1.0
C      1  0.4360130000000  0.4812560000000  0.4689000000000 1.0
C      1  0.5318840000000  0.5410020000000  0.4531930000000 1.0
C      1  0.4987040000000  0.5420590000000  0.5198540000000 1.0
C      1  0.4719070000000  0.4193660000000  0.5032080000000 1.0
C      1  0.4258610000000  0.4416480000000  0.5303080000000 1.0
C      1  0.4717390000000  0.5852320000000  0.5671270000000 1.0
C      1  0.4758930000000  0.5292610000000  0.4823980000000 1.0
C      1  0.4794670000000  0.4876040000000  0.4973200000000 1.0
C      1  0.4600950000000  0.4582730000000  0.5639280000000 1.0
C      1  0.5320080000000  0.4961540000000  0.5290920000000 1.0
C      1  0.5225720000000  0.5042280000000  0.4801550000000 1.0
C      1  0.6298910000000  0.4659600000000  0.4472450000000 1.0
C      1  0.5348810000000  0.4375130000000  0.5471550000000 1.0
END
