TITL C-612604-1799-754 -0.00263268442068528 125000 -754.598635841615 0 0 121 (C1) n - 1
REM
REM in /home/nfs/bkarasulu/CARBON/AIRSS/Generating-Clusters/TERSOFF/Only-C1/FIRE-HFTN
REM
REM
REM
REM
REM
REM ./C.cell (11c1c37f851c82e70ff6c80c92926a4b)
REM AIRSS Version 0.9.1 bugfix July 2018 build 013d7b7c2542+ Fri, 06 Jul 2018 19:26:36 +0100
REM compiler GCC version 9.2.1 20190827 (Red Hat 9.2.1-1)
REM options -cpp -mtune=generic -march=x86-64 -g -O0 -fpre-include=/usr/include/finclude/math-vector-fortran.h
REM seed 2009529483 412752946 1534872476 761009274 1361879157 -1363845952 251563955 -86385566 -554453873 -1253274960 -1257866962 809998839 -1372457795 1331653074 26528767 -1226547575 -1212826183 -1482093111 -1541233866 320412500 -539687205 -154357877 -1948561282 1839896532 1423609081 1071803290 -549258437 1125560617 -1817518100 -394601991 810118657 -1692853504 -1766217813
REM
CELL 1.54180   50.00000   50.00000   50.00000   90.00000   90.00000   90.00000
LATT -1
SFAC C  
C      1  0.5701080000000  0.4991560000000  0.4148490000000 1.0
C      1  0.5782920000000  0.5279900000000  0.5248690000000 1.0
C      1  0.4901150000000  0.5314340000000  0.4238760000000 1.0
C      1  0.4327720000000  0.5384550000000  0.4766490000000 1.0
C      1  0.4538410000000  0.5354840000000  0.5211620000000 1.0
C      1  0.4750140000000  0.4870830000000  0.5580480000000 1.0
C      1  0.5244850000000  0.6223630000000  0.5473390000000 1.0
C      1  0.4407070000000  0.5214940000000  0.4536730000000 1.0
C      1  0.5069770000000  0.4692530000000  0.4116560000000 1.0
C      1  0.5104090000000  0.4069480000000  0.5398120000000 1.0
C      1  0.5009390000000  0.4734070000000  0.5942850000000 1.0
C      1  0.5748260000000  0.4366120000000  0.5167060000000 1.0
C      1  0.4300030000000  0.4516720000000  0.5138920000000 1.0
C      1  0.4499150000000  0.5121760000000  0.6518940000000 1.0
C      1  0.5454690000000  0.4858350000000  0.4554200000000 1.0
C      1  0.5037430000000  0.4647470000000  0.4600800000000 1.0
C      1  0.4836460000000  0.5782720000000  0.4265330000000 1.0
C      1  0.4371960000000  0.4363770000000  0.4881280000000 1.0
C      1  0.5037910000000  0.4755850000000  0.4873600000000 1.0
C      1  0.4470500000000  0.5028740000000  0.6271210000000 1.0
C      1  0.5596620000000  0.4828280000000  0.3934520000000 1.0
C      1  0.5007230000000  0.5489160000000  0.4974190000000 1.0
C      1  0.4679800000000  0.5404830000000  0.5453250000000 1.0
C      1  0.3896160000000  0.4825550000000  0.4589960000000 1.0
C      1  0.4895580000000  0.6261840000000  0.4223640000000 1.0
C      1  0.4332950000000  0.5751660000000  0.4176330000000 1.0
C      1  0.4800030000000  0.6059360000000  0.4652110000000 1.0
C      1  0.5535880000000  0.5349640000000  0.5396040000000 1.0
C      1  0.4870720000000  0.5084430000000  0.4401490000000 1.0
C      1  0.4671190000000  0.5190220000000  0.6710710000000 1.0
C      1  0.4220660000000  0.5022320000000  0.5058710000000 1.0
C      1  0.5213970000000  0.6050270000000  0.5264940000000 1.0
C      1  0.5800760000000  0.4412480000000  0.4362390000000 1.0
C      1  0.5336970000000  0.4577530000000  0.4589310000000 1.0
C      1  0.4794750000000  0.4577520000000  0.4083490000000 1.0
C      1  0.5971550000000  0.5028670000000  0.4587200000000 1.0
C      1  0.4828500000000  0.5928740000000  0.4897080000000 1.0
C      1  0.5639450000000  0.5687130000000  0.4777210000000 1.0
C      1  0.4090850000000  0.5748040000000  0.4289130000000 1.0
C      1  0.4979730000000  0.6046160000000  0.5105350000000 1.0
C      1  0.4771560000000  0.4869710000000  0.5861380000000 1.0
C      1  0.4597080000000  0.5671680000000  0.4137930000000 1.0
C      1  0.5100520000000  0.4008070000000  0.4825610000000 1.0
C      1  0.5184010000000  0.4582900000000  0.5046660000000 1.0
C      1  0.5924200000000  0.5497960000000  0.5128820000000 1.0
C      1  0.5339350000000  0.4973090000000  0.6216170000000 1.0
C      1  0.5111460000000  0.5249180000000  0.4869020000000 1.0
C      1  0.4871070000000  0.4396190000000  0.4550300000000 1.0
C      1  0.5950890000000  0.4544710000000  0.5244990000000 1.0
C      1  0.4256120000000  0.5043450000000  0.4354390000000 1.0
C      1  0.3894190000000  0.5677420000000  0.4455840000000 1.0
C      1  0.4387420000000  0.4808190000000  0.4243040000000 1.0
C      1  0.5412640000000  0.4930190000000  0.5727770000000 1.0
C      1  0.4575020000000  0.4767250000000  0.4022640000000 1.0
C      1  0.5174370000000  0.5157660000000  0.6669080000000 1.0
C      1  0.3792870000000  0.5540900000000  0.4663030000000 1.0
C      1  0.5844490000000  0.4718620000000  0.5732820000000 1.0
C      1  0.5809150000000  0.5030030000000  0.4826470000000 1.0
C      1  0.4517570000000  0.4395600000000  0.5639540000000 1.0
C      1  0.4107840000000  0.5252210000000  0.4914840000000 1.0
C      1  0.5113950000000  0.5316820000000  0.5666760000000 1.0
C      1  0.4776700000000  0.5648010000000  0.4909430000000 1.0
C      1  0.5004160000000  0.4457170000000  0.5862340000000 1.0
C      1  0.5978140000000  0.4810810000000  0.5226320000000 1.0
C      1  0.5384700000000  0.5586100000000  0.5287800000000 1.0
C      1  0.5376430000000  0.5194820000000  0.5605840000000 1.0
C      1  0.5365460000000  0.4360650000000  0.4388760000000 1.0
C      1  0.5417850000000  0.5860010000000  0.5195340000000 1.0
C      1  0.5007960000000  0.4140420000000  0.4593970000000 1.0
C      1  0.4888610000000  0.4740020000000  0.5392100000000 1.0
C      1  0.5580430000000  0.4705030000000  0.5654930000000 1.0
C      1  0.5934710000000  0.5019680000000  0.4313480000000 1.0
C      1  0.4685540000000  0.5041280000000  0.4880100000000 1.0
C      1  0.5532660000000  0.5032340000000  0.4763780000000 1.0
C      1  0.4524520000000  0.5517420000000  0.4958010000000 1.0
C      1  0.5307640000000  0.3978210000000  0.4999340000000 1.0
C      1  0.4844960000000  0.6041450000000  0.4376190000000 1.0
C      1  0.4739730000000  0.4362100000000  0.5796600000000 1.0
C      1  0.5019960000000  0.4842760000000  0.4366620000000 1.0
C      1  0.4067270000000  0.4678400000000  0.4756070000000 1.0
C      1  0.5113040000000  0.5520520000000  0.5231110000000 1.0
C      1  0.5030640000000  0.5568530000000  0.4314120000000 1.0
C      1  0.3980190000000  0.5004750000000  0.4405270000000 1.0
C      1  0.5468620000000  0.4443480000000  0.5587510000000 1.0
C      1  0.5377110000000  0.5266780000000  0.4775620000000 1.0
C      1  0.5317460000000  0.5071370000000  0.6461970000000 1.0
C      1  0.4961420000000  0.5014590000000  0.4920320000000 1.0
C      1  0.5282540000000  0.5591370000000  0.4434470000000 1.0
C      1  0.5411450000000  0.4624950000000  0.4024190000000 1.0
C      1  0.4674780000000  0.5400210000000  0.4077330000000 1.0
C      1  0.5887420000000  0.5598150000000  0.4879490000000 1.0
C      1  0.4969800000000  0.5401170000000  0.5429990000000 1.0
C      1  0.5557920000000  0.4434100000000  0.4198040000000 1.0
C      1  0.4657720000000  0.5099050000000  0.4598060000000 1.0
C      1  0.5545270000000  0.4275470000000  0.5354920000000 1.0
C      1  0.5205980000000  0.4133800000000  0.4389960000000 1.0
C      1  0.5813560000000  0.4378160000000  0.4639830000000 1.0
C      1  0.5666990000000  0.4390280000000  0.4892980000000 1.0
C      1  0.5453180000000  0.5513350000000  0.4645940000000 1.0
C      1  0.5254010000000  0.4879270000000  0.5967140000000 1.0
C      1  0.4931310000000  0.5204210000000  0.6768030000000 1.0
C      1  0.4682460000000  0.4444710000000  0.4338360000000 1.0
C      1  0.4423310000000  0.4564070000000  0.4412910000000 1.0
C      1  0.4906070000000  0.5362960000000  0.5867480000000 1.0
C      1  0.4655820000000  0.5409970000000  0.5744650000000 1.0
C      1  0.5356980000000  0.4068740000000  0.5266220000000 1.0
C      1  0.4501140000000  0.5087000000000  0.5099360000000 1.0
C      1  0.4572650000000  0.4942570000000  0.6041550000000 1.0
C      1  0.5249930000000  0.4363130000000  0.5755790000000 1.0
C      1  0.4654040000000  0.4217010000000  0.5223840000000 1.0
C      1  0.5860450000000  0.5036410000000  0.5110690000000 1.0
C      1  0.5470800000000  0.5006390000000  0.4315520000000 1.0
C      1  0.5400740000000  0.4490930000000  0.4872500000000 1.0
C      1  0.4564050000000  0.4169480000000  0.4958900000000 1.0
C      1  0.4455890000000  0.4389480000000  0.5361140000000 1.0
C      1  0.5022360000000  0.4523700000000  0.5269740000000 1.0
C      1  0.3857390000000  0.5364560000000  0.4856670000000 1.0
C      1  0.4918580000000  0.4259310000000  0.5307620000000 1.0
C      1  0.4150290000000  0.4748270000000  0.5029430000000 1.0
C      1  0.5532150000000  0.5891730000000  0.4939120000000 1.0
C      1  0.4274910000000  0.4501490000000  0.4647530000000 1.0
END
