TITL C-612605-9286-44 1916.92646323478 125000 -898.702517085041 0 0 145 (C1) n - 1
REM
REM in /home/nfs/bkarasulu/CARBON/AIRSS/Generating-Clusters/TERSOFF/Only-C1/FIRE-HFTN
REM
REM
REM
REM
REM
REM ./C.cell (11c1c37f851c82e70ff6c80c92926a4b)
REM AIRSS Version 0.9.1 bugfix July 2018 build 013d7b7c2542+ Fri, 06 Jul 2018 19:26:36 +0100
REM compiler GCC version 9.2.1 20190827 (Red Hat 9.2.1-1)
REM options -cpp -mtune=generic -march=x86-64 -g -O0 -fpre-include=/usr/include/finclude/math-vector-fortran.h
REM seed 1706252990 -1974648055 -1686185880 1419081295 1729574309 893634742 52222322 -1085976291 717526973 -999472489 -1323236879 -785834015 -1142633317 -858013933 -1090865594 161052134 1971370297 -556336097 -1333855139 1213871809 1420067454 1058137514 -127612768 25646333 -1096672981 1590636587 718267449 -1264018131 -1009259452 2120781252 -678919 -229096740 59362086
REM
CELL 1.54180   50.00000   50.00000   50.00000   90.00000   90.00000   90.00000
LATT -1
SFAC C  
C      1  0.4546450000000  0.5386370000000  0.4654750000000 1.0
C      1  0.5221040000000  0.4439970000000  0.4066380000000 1.0
C      1  0.4525120000000  0.4806190000000  0.6057250000000 1.0
C      1  0.5052970000000  0.4347990000000  0.4271250000000 1.0
C      1  0.5429910000000  0.5475820000000  0.5397370000000 1.0
C      1  0.5940010000000  0.6023050000000  0.5212570000000 1.0
C      1  0.5304450000000  0.5020440000000  0.5535160000000 1.0
C      1  0.4726520000000  0.5013340000000  0.5399780000000 1.0
C      1  0.6061250000000  0.4840990000000  0.5228290000000 1.0
C      1  0.5150640000000  0.4928400000000  0.4639270000000 1.0
C      1  0.5346460000000  0.4662350000000  0.5920510000000 1.0
C      1  0.5993000000000  0.5624540000000  0.5562600000000 1.0
C      1  0.4328880000000  0.5765790000000  0.5215750000000 1.0
C      1  0.4240060000000  0.5498270000000  0.5178880000000 1.0
C      1  0.3993070000000  0.5354520000000  0.5178690000000 1.0
C      1  0.5728390000000  0.4293680000000  0.5329430000000 1.0
C      1  0.4662880000000  0.4131710000000  0.5546000000000 1.0
C      1  0.5410480000000  0.4853450000000  0.4080390000000 1.0
C      1  0.4080830000000  0.5296750000000  0.5719970000000 1.0
C      1  0.4896450000000  0.4524960000000  0.5902580000000 1.0
C      1  0.5807110000000  0.4938590000000  0.5319520000000 1.0
C      1  0.5558250000000  0.4504340000000  0.5814020000000 1.0
C      1  0.5419670000000  0.4914950000000  0.4548480000000 1.0
C      1  0.4965150000000  0.4508630000000  0.4502000000000 1.0
C      1  0.5369010000000  0.5779800000000  0.5765170000000 1.0
C      1  0.3992320000000  0.5235640000000  0.4221260000000 1.0
C      1  0.4482840000000  0.5060780000000  0.5235090000000 1.0
C      1  0.4795880000000  0.5820210000000  0.4445730000000 1.0
C      1  0.4949970000000  0.4791610000000  0.4486430000000 1.0
C      1  0.4140700000000  0.5141610000000  0.4724450000000 1.0
C      1  0.4162900000000  0.4520870000000  0.4465720000000 1.0
C      1  0.6019420000000  0.5556410000000  0.5110640000000 1.0
C      1  0.4657460000000  0.5382380000000  0.4938900000000 1.0
C      1  0.5566040000000  0.4467160000000  0.4844900000000 1.0
C      1  0.4972700000000  0.4663810000000  0.5661490000000 1.0
C      1  0.5464660000000  0.4567140000000  0.4137860000000 1.0
C      1  0.3992690000000  0.5070330000000  0.5562740000000 1.0
C      1  0.3910320000000  0.4992200000000  0.4650650000000 1.0
C      1  0.5488180000000  0.4255610000000  0.4605970000000 1.0
C      1  0.5503360000000  0.5230780000000  0.5531920000000 1.0
C      1  0.4570960000000  0.5059300000000  0.4607990000000 1.0
C      1  0.5888450000000  0.4531400000000  0.4380620000000 1.0
C      1  0.4666010000000  0.4484220000000  0.4883770000000 1.0
C      1  0.3904210000000  0.4762360000000  0.4835110000000 1.0
C      1  0.4235690000000  0.5386280000000  0.4600530000000 1.0
C      1  0.4206270000000  0.4353000000000  0.5629800000000 1.0
C      1  0.5220950000000  0.4816080000000  0.5706910000000 1.0
C      1  0.5299770000000  0.5556400000000  0.4675320000000 1.0
C      1  0.5261200000000  0.5660130000000  0.5535950000000 1.0
C      1  0.5805670000000  0.6139820000000  0.5010710000000 1.0
C      1  0.4897210000000  0.5223860000000  0.4980810000000 1.0
C      1  0.5670520000000  0.4417600000000  0.5581780000000 1.0
C      1  0.6208750000000  0.5065930000000  0.5113990000000 1.0
C      1  0.4736700000000  0.4965320000000  0.4408370000000 1.0
C      1  0.6002320000000  0.5334580000000  0.5503500000000 1.0
C      1  0.4477550000000  0.4149820000000  0.4518860000000 1.0
C      1  0.4798520000000  0.5917540000000  0.5043560000000 1.0
C      1  0.3930230000000  0.5091360000000  0.5277580000000 1.0
C      1  0.4365670000000  0.4972010000000  0.4782790000000 1.0
C      1  0.4389720000000  0.4378740000000  0.4358630000000 1.0
C      1  0.4698020000000  0.4635120000000  0.3979930000000 1.0
C      1  0.4913880000000  0.4779950000000  0.3900650000000 1.0
C      1  0.3939650000000  0.4612630000000  0.5313120000000 1.0
C      1  0.5254400000000  0.6083050000000  0.4500720000000 1.0
C      1  0.5470850000000  0.5050870000000  0.4288050000000 1.0
C      1  0.4477570000000  0.5495300000000  0.4192900000000 1.0
C      1  0.4959990000000  0.5473920000000  0.3923340000000 1.0
C      1  0.5279780000000  0.5650710000000  0.4953330000000 1.0
C      1  0.5528890000000  0.6038420000000  0.4560930000000 1.0
C      1  0.4692090000000  0.5364990000000  0.4033880000000 1.0
C      1  0.5018490000000  0.5331510000000  0.4337080000000 1.0
C      1  0.5491800000000  0.5546750000000  0.5122670000000 1.0
C      1  0.5504740000000  0.5552780000000  0.4462630000000 1.0
C      1  0.4711350000000  0.6387900000000  0.4803160000000 1.0
C      1  0.4737000000000  0.5184540000000  0.5637810000000 1.0
C      1  0.4131800000000  0.4277430000000  0.4857270000000 1.0
C      1  0.4970960000000  0.4800480000000  0.6269870000000 1.0
C      1  0.5778730000000  0.5151330000000  0.5509350000000 1.0
C      1  0.5166000000000  0.4881530000000  0.3926100000000 1.0
C      1  0.4944520000000  0.3959590000000  0.4685910000000 1.0
C      1  0.5865460000000  0.5735670000000  0.5785120000000 1.0
C      1  0.5794090000000  0.4427050000000  0.5076970000000 1.0
C      1  0.4721870000000  0.3998490000000  0.4493090000000 1.0
C      1  0.5029900000000  0.5733300000000  0.5395450000000 1.0
C      1  0.5369960000000  0.4821380000000  0.5114170000000 1.0
C      1  0.4532140000000  0.4489000000000  0.4136940000000 1.0
C      1  0.4777270000000  0.4734790000000  0.5477220000000 1.0
C      1  0.4950600000000  0.5083300000000  0.5214890000000 1.0
C      1  0.4461350000000  0.5328190000000  0.5139560000000 1.0
C      1  0.5144110000000  0.4082460000000  0.4311890000000 1.0
C      1  0.6137880000000  0.5318540000000  0.5233550000000 1.0
C      1  0.6025210000000  0.5773920000000  0.5310630000000 1.0
C      1  0.3845600000000  0.5061480000000  0.4379500000000 1.0
C      1  0.5107770000000  0.4614040000000  0.6096510000000 1.0
C      1  0.3899740000000  0.4831030000000  0.5129900000000 1.0
C      1  0.4328710000000  0.5242130000000  0.5858980000000 1.0
C      1  0.4766930000000  0.6149780000000  0.4893750000000 1.0
C      1  0.4753400000000  0.5758190000000  0.5481060000000 1.0
C      1  0.5183380000000  0.5421750000000  0.4118270000000 1.0
C      1  0.4598930000000  0.5850410000000  0.5249920000000 1.0
C      1  0.4803180000000  0.5172630000000  0.4233360000000 1.0
C      1  0.4883170000000  0.4159000000000  0.5399830000000 1.0
C      1  0.4634080000000  0.5127910000000  0.6418330000000 1.0
C      1  0.6217150000000  0.5046050000000  0.4827760000000 1.0
C      1  0.4629840000000  0.5634280000000  0.5702570000000 1.0
C      1  0.4549580000000  0.3993440000000  0.4968910000000 1.0
C      1  0.5009980000000  0.5983060000000  0.4447440000000 1.0
C      1  0.4837850000000  0.3976240000000  0.4951190000000 1.0
C      1  0.5618020000000  0.5803470000000  0.5862600000000 1.0
C      1  0.5500300000000  0.3860130000000  0.5253520000000 1.0
C      1  0.4920050000000  0.4435800000000  0.4780660000000 1.0
C      1  0.4413040000000  0.4186840000000  0.5617090000000 1.0
C      1  0.5251120000000  0.3922740000000  0.5186960000000 1.0
C      1  0.5970010000000  0.4983000000000  0.4703570000000 1.0
C      1  0.5060550000000  0.5164470000000  0.4765090000000 1.0
C      1  0.5626720000000  0.4413650000000  0.4330660000000 1.0
C      1  0.5447860000000  0.5354060000000  0.4241790000000 1.0
C      1  0.5708730000000  0.4013630000000  0.5318230000000 1.0
C      1  0.5745670000000  0.5077340000000  0.4866690000000 1.0
C      1  0.5094930000000  0.5381590000000  0.4597530000000 1.0
C      1  0.4083290000000  0.4592020000000  0.5558750000000 1.0
C      1  0.5753520000000  0.5531850000000  0.5013720000000 1.0
C      1  0.5053950000000  0.5778360000000  0.5098670000000 1.0
C      1  0.4499380000000  0.4606050000000  0.5048810000000 1.0
C      1  0.4569010000000  0.5366450000000  0.5768590000000 1.0
C      1  0.5214960000000  0.4037430000000  0.4582250000000 1.0
C      1  0.4361040000000  0.4117350000000  0.4789170000000 1.0
C      1  0.5603210000000  0.4723920000000  0.4662520000000 1.0
C      1  0.4623700000000  0.5597460000000  0.4442680000000 1.0
C      1  0.5198200000000  0.4972190000000  0.5274190000000 1.0
C      1  0.4328570000000  0.4942120000000  0.5895590000000 1.0
C      1  0.4415430000000  0.4868410000000  0.5039500000000 1.0
C      1  0.4130380000000  0.4839750000000  0.5691920000000 1.0
C      1  0.5327630000000  0.4551770000000  0.5016820000000 1.0
C      1  0.5882180000000  0.4750650000000  0.4562730000000 1.0
C      1  0.4707180000000  0.4921930000000  0.6254200000000 1.0
C      1  0.5106330000000  0.4373450000000  0.4993970000000 1.0
C      1  0.6031480000000  0.4587130000000  0.5100410000000 1.0
C      1  0.5027660000000  0.4112820000000  0.5146700000000 1.0
C      1  0.5626230000000  0.4949750000000  0.5093150000000 1.0
C      1  0.4624370000000  0.4551320000000  0.5975640000000 1.0
C      1  0.4214520000000  0.5399600000000  0.4302000000000 1.0
C      1  0.4036440000000  0.4517700000000  0.4727320000000 1.0
C      1  0.5636550000000  0.5801740000000  0.4441650000000 1.0
C      1  0.5664240000000  0.6148560000000  0.4782750000000 1.0
END
