TITL C-612600-6631-50 20913.2759506435 125000 -603.973638899101 0 0 99 (C1) n - 1
REM
REM in /home/nfs/bkarasulu/CARBON/AIRSS/Generating-Clusters/TERSOFF/Only-C1/FIRE-HFTN
REM
REM
REM
REM
REM
REM ./C.cell (11c1c37f851c82e70ff6c80c92926a4b)
REM AIRSS Version 0.9.1 bugfix July 2018 build 013d7b7c2542+ Fri, 06 Jul 2018 19:26:36 +0100
REM compiler GCC version 9.2.1 20190827 (Red Hat 9.2.1-1)
REM options -cpp -mtune=generic -march=x86-64 -g -O0 -fpre-include=/usr/include/finclude/math-vector-fortran.h
REM seed -2015066354 -2028475612 -1253288967 1956211703 19650873 1660144777 -1374644257 459857647 -709281340 -2101302206 236786869 1170303635 1848811950 1432930148 -794838868 1531716016 -1241822907 1419648986 -1837526834 42261214 1814101704 1248095640 524377132 -1768095564 -221565801 1282139781 -512052685 974674013 167990202 110910108 -144445925 1515451922 -1545167528
REM
CELL 1.54180   50.00000   50.00000   50.00000   90.00000   90.00000   90.00000
LATT -1
SFAC C  
C      1  0.5008670000000  0.5593970000000  0.5552820000000 1.0
C      1  0.5588990000000  0.4474400000000  0.5008250000000 1.0
C      1  0.4336350000000  0.5134220000000  0.5181230000000 1.0
C      1  0.5034470000000  0.5042030000000  0.4001280000000 1.0
C      1  0.4583170000000  0.5573660000000  0.4307410000000 1.0
C      1  0.4683610000000  0.4197620000000  0.5227400000000 1.0
C      1  0.6711100000000  0.5432430000000  0.4116940000000 1.0
C      1  0.4579530000000  0.4654530000000  0.5293990000000 1.0
C      1  0.5703860000000  0.4869410000000  0.4365820000000 1.0
C      1  0.4865330000000  0.5219630000000  0.5140110000000 1.0
C      1  0.4966460000000  0.5005030000000  0.4716780000000 1.0
C      1  0.3998150000000  0.4553320000000  0.4468620000000 1.0
C      1  0.5373910000000  0.5279660000000  0.5501780000000 1.0
C      1  0.5224200000000  0.4908310000000  0.4818830000000 1.0
C      1  0.6453860000000  0.5413920000000  0.4155010000000 1.0
C      1  0.3998710000000  0.4648760000000  0.5214530000000 1.0
C      1  0.5453430000000  0.4962320000000  0.4226430000000 1.0
C      1  0.5493750000000  0.4397550000000  0.4728730000000 1.0
C      1  0.5037570000000  0.4283070000000  0.6037850000000 1.0
C      1  0.3868510000000  0.4855260000000  0.5083770000000 1.0
C      1  0.4873400000000  0.4970870000000  0.4444220000000 1.0
C      1  0.4643540000000  0.5809830000000  0.5263180000000 1.0
C      1  0.5436620000000  0.5777110000000  0.5473210000000 1.0
C      1  0.4967870000000  0.4348830000000  0.4597080000000 1.0
C      1  0.5136510000000  0.4799190000000  0.5407170000000 1.0
C      1  0.4880270000000  0.5147260000000  0.4217480000000 1.0
C      1  0.5310480000000  0.5844070000000  0.4508310000000 1.0
C      1  0.5155920000000  0.5056270000000  0.5963690000000 1.0
C      1  0.4983190000000  0.4724600000000  0.5633260000000 1.0
C      1  0.4966350000000  0.5212670000000  0.5849290000000 1.0
C      1  0.4694240000000  0.4141140000000  0.4947070000000 1.0
C      1  0.4528880000000  0.4750720000000  0.5770430000000 1.0
C      1  0.4602110000000  0.4605480000000  0.4820130000000 1.0
C      1  0.4940580000000  0.5896160000000  0.4903700000000 1.0
C      1  0.5937250000000  0.5386660000000  0.4315540000000 1.0
C      1  0.4693700000000  0.4754480000000  0.5048190000000 1.0
C      1  0.5470270000000  0.4338490000000  0.5246570000000 1.0
C      1  0.5294490000000  0.5548740000000  0.5555920000000 1.0
C      1  0.4806840000000  0.5002990000000  0.4966850000000 1.0
C      1  0.4648790000000  0.5801920000000  0.4965560000000 1.0
C      1  0.5103700000000  0.5774580000000  0.4694240000000 1.0
C      1  0.4406870000000  0.5786770000000  0.5409020000000 1.0
C      1  0.5174820000000  0.4343460000000  0.5252810000000 1.0
C      1  0.5590520000000  0.5252830000000  0.4570350000000 1.0
C      1  0.4438020000000  0.5657840000000  0.4804180000000 1.0
C      1  0.5760610000000  0.5624750000000  0.4321590000000 1.0
C      1  0.4148870000000  0.4547200000000  0.4694720000000 1.0
C      1  0.5207650000000  0.4430800000000  0.4724920000000 1.0
C      1  0.5436520000000  0.4618300000000  0.5874440000000 1.0
C      1  0.5375980000000  0.5864020000000  0.5207750000000 1.0
C      1  0.4498850000000  0.5089410000000  0.5406600000000 1.0
C      1  0.5024820000000  0.4078750000000  0.5607060000000 1.0
C      1  0.4471650000000  0.5679100000000  0.4524040000000 1.0
C      1  0.4505070000000  0.4828470000000  0.5500960000000 1.0
C      1  0.6195830000000  0.5397920000000  0.4213010000000 1.0
C      1  0.4867780000000  0.5355650000000  0.5621870000000 1.0
C      1  0.3865340000000  0.5065940000000  0.4900090000000 1.0
C      1  0.4324970000000  0.4762660000000  0.5949940000000 1.0
C      1  0.4952960000000  0.4188970000000  0.5356680000000 1.0
C      1  0.5826510000000  0.5141980000000  0.4434460000000 1.0
C      1  0.4743670000000  0.5230520000000  0.5399430000000 1.0
C      1  0.5544830000000  0.5734660000000  0.5022590000000 1.0
C      1  0.5582970000000  0.4305430000000  0.5509500000000 1.0
C      1  0.4731240000000  0.4351420000000  0.4761690000000 1.0
C      1  0.4910280000000  0.5797740000000  0.5371790000000 1.0
C      1  0.5124240000000  0.4615470000000  0.5187130000000 1.0
C      1  0.4309910000000  0.5003280000000  0.4901490000000 1.0
C      1  0.5334360000000  0.4852440000000  0.5963910000000 1.0
C      1  0.4918100000000  0.4446470000000  0.4337070000000 1.0
C      1  0.5394350000000  0.5217650000000  0.4361710000000 1.0
C      1  0.4223510000000  0.5464040000000  0.4887290000000 1.0
C      1  0.5474450000000  0.5686800000000  0.4330950000000 1.0
C      1  0.4789680000000  0.4660610000000  0.5830830000000 1.0
C      1  0.4227490000000  0.5405510000000  0.5173700000000 1.0
C      1  0.4462930000000  0.4393400000000  0.5276190000000 1.0
C      1  0.5416290000000  0.4365790000000  0.5739570000000 1.0
C      1  0.5038070000000  0.5397890000000  0.5016540000000 1.0
C      1  0.5273710000000  0.4912920000000  0.4017030000000 1.0
C      1  0.5184300000000  0.4202670000000  0.5808980000000 1.0
C      1  0.5672970000000  0.4663970000000  0.4564410000000 1.0
C      1  0.5839750000000  0.4216800000000  0.5542900000000 1.0
C      1  0.5303630000000  0.5029310000000  0.5426580000000 1.0
C      1  0.4132300000000  0.4343510000000  0.4895640000000 1.0
C      1  0.4350330000000  0.4739710000000  0.4761890000000 1.0
C      1  0.4856860000000  0.4483450000000  0.6037840000000 1.0
C      1  0.5489230000000  0.4978580000000  0.4916030000000 1.0
C      1  0.4957340000000  0.4305070000000  0.4108720000000 1.0
C      1  0.4218460000000  0.5599190000000  0.5372270000000 1.0
C      1  0.4105920000000  0.5195370000000  0.4790090000000 1.0
C      1  0.5328310000000  0.5459520000000  0.4235460000000 1.0
C      1  0.5662680000000  0.4750520000000  0.4933780000000 1.0
C      1  0.4732960000000  0.5381570000000  0.4202760000000 1.0
C      1  0.5575750000000  0.5237850000000  0.4846440000000 1.0
C      1  0.5157420000000  0.4649330000000  0.4911020000000 1.0
C      1  0.4821870000000  0.4708580000000  0.4349680000000 1.0
C      1  0.4182820000000  0.4418960000000  0.5170790000000 1.0
C      1  0.5092520000000  0.5906400000000  0.5163890000000 1.0
C      1  0.5105210000000  0.5502490000000  0.4778900000000 1.0
C      1  0.5617010000000  0.5479100000000  0.4980380000000 1.0
END
