TITL C-612603-7354-394 395.644099924774 125000 -491.623275802961 0 0 83 (C1) n - 1
REM
REM in /home/nfs/bkarasulu/CARBON/AIRSS/Generating-Clusters/TERSOFF/Only-C1/FIRE-HFTN
REM
REM
REM
REM
REM
REM ./C.cell (11c1c37f851c82e70ff6c80c92926a4b)
REM AIRSS Version 0.9.1 bugfix July 2018 build 013d7b7c2542+ Fri, 06 Jul 2018 19:26:36 +0100
REM compiler GCC version 9.2.1 20190827 (Red Hat 9.2.1-1)
REM options -cpp -mtune=generic -march=x86-64 -g -O0 -fpre-include=/usr/include/finclude/math-vector-fortran.h
REM seed -1803560658 40741698 2021247406 458141092 -1882063726 228902165 -382672440 1913537806 1310303077 -1803267339 1965945083 838456399 2094774024 763118819 -1914897414 752269124 -720587340 1947265316 1573013066 1594176154 -2062819337 -2066480938 202076983 -1231304948 1311651695 20744493 159856114 435947163 -111354755 1702406811 1512648015 -156285470 -529164540
REM
CELL 1.54180   50.00000   50.00000   50.00000   90.00000   90.00000   90.00000
LATT -1
SFAC C  
C      1  0.3873570000000  0.5387700000000  0.4467120000000 1.0
C      1  0.5157550000000  0.4509740000000  0.5640740000000 1.0
C      1  0.4845680000000  0.5532960000000  0.4396400000000 1.0
C      1  0.5364680000000  0.5578160000000  0.4513150000000 1.0
C      1  0.5785740000000  0.4416390000000  0.5289740000000 1.0
C      1  0.5578000000000  0.4912070000000  0.5454930000000 1.0
C      1  0.4635900000000  0.5082310000000  0.4206880000000 1.0
C      1  0.4617140000000  0.4186810000000  0.5201790000000 1.0
C      1  0.5628610000000  0.4328610000000  0.5489110000000 1.0
C      1  0.3724020000000  0.5425120000000  0.5197800000000 1.0
C      1  0.4583350000000  0.5535870000000  0.5165500000000 1.0
C      1  0.3807350000000  0.5445070000000  0.4719990000000 1.0
C      1  0.4769260000000  0.5707670000000  0.5041390000000 1.0
C      1  0.4969850000000  0.4401910000000  0.4344150000000 1.0
C      1  0.4903360000000  0.5195090000000  0.4802800000000 1.0
C      1  0.5475150000000  0.5543800000000  0.5015220000000 1.0
C      1  0.5453370000000  0.5441730000000  0.4277070000000 1.0
C      1  0.5178000000000  0.5108500000000  0.5226050000000 1.0
C      1  0.4664680000000  0.5448500000000  0.5418830000000 1.0
C      1  0.4446540000000  0.4894680000000  0.4311280000000 1.0
C      1  0.5425010000000  0.5436540000000  0.5596700000000 1.0
C      1  0.5775930000000  0.5180520000000  0.4478860000000 1.0
C      1  0.5410420000000  0.4378090000000  0.5636980000000 1.0
C      1  0.4731060000000  0.4277740000000  0.4741020000000 1.0
C      1  0.4362110000000  0.5408030000000  0.5050390000000 1.0
C      1  0.4688130000000  0.4491300000000  0.5560530000000 1.0
C      1  0.4667910000000  0.5357420000000  0.4287340000000 1.0
C      1  0.5688160000000  0.4740910000000  0.4910150000000 1.0
C      1  0.4691900000000  0.4755970000000  0.5484080000000 1.0
C      1  0.5421240000000  0.4958490000000  0.5705690000000 1.0
C      1  0.4310020000000  0.4620520000000  0.4663500000000 1.0
C      1  0.3882660000000  0.5374330000000  0.4981670000000 1.0
C      1  0.4539480000000  0.4312880000000  0.4957520000000 1.0
C      1  0.4896580000000  0.4712160000000  0.5146720000000 1.0
C      1  0.5595150000000  0.5312700000000  0.5142270000000 1.0
C      1  0.4885370000000  0.4961700000000  0.4159750000000 1.0
C      1  0.5172950000000  0.5860370000000  0.5633260000000 1.0
C      1  0.5137900000000  0.5187440000000  0.4958940000000 1.0
C      1  0.4201770000000  0.5005650000000  0.4423260000000 1.0
C      1  0.5070390000000  0.5225270000000  0.5930490000000 1.0
C      1  0.5325880000000  0.4988080000000  0.4344740000000 1.0
C      1  0.5450030000000  0.4407300000000  0.4542760000000 1.0
C      1  0.5353750000000  0.4874770000000  0.5265540000000 1.0
C      1  0.5825890000000  0.4655560000000  0.5148560000000 1.0
C      1  0.5235970000000  0.4366300000000  0.4380320000000 1.0
C      1  0.4250390000000  0.4736590000000  0.5098920000000 1.0
C      1  0.5975660000000  0.5273020000000  0.4929510000000 1.0
C      1  0.5335110000000  0.5023400000000  0.4826600000000 1.0
C      1  0.4511620000000  0.4626450000000  0.4448800000000 1.0
C      1  0.4157310000000  0.4968630000000  0.4946680000000 1.0
C      1  0.5287640000000  0.5660920000000  0.5475240000000 1.0
C      1  0.5060580000000  0.4108910000000  0.5085760000000 1.0
C      1  0.5539140000000  0.5173770000000  0.4319490000000 1.0
C      1  0.4952920000000  0.4745670000000  0.4845580000000 1.0
C      1  0.5556590000000  0.5544120000000  0.4738440000000 1.0
C      1  0.4136320000000  0.5244120000000  0.5008670000000 1.0
C      1  0.4667550000000  0.4924570000000  0.5725130000000 1.0
C      1  0.5596230000000  0.5030370000000  0.4937220000000 1.0
C      1  0.4840940000000  0.5282900000000  0.5548680000000 1.0
C      1  0.5990520000000  0.5114870000000  0.5161100000000 1.0
C      1  0.4891780000000  0.4174230000000  0.5305910000000 1.0
C      1  0.4803450000000  0.5168810000000  0.5812690000000 1.0
C      1  0.5277330000000  0.5678070000000  0.5180180000000 1.0
C      1  0.5332910000000  0.5231510000000  0.5787590000000 1.0
C      1  0.5013810000000  0.5088510000000  0.5441840000000 1.0
C      1  0.5046790000000  0.4946150000000  0.4391310000000 1.0
C      1  0.5160470000000  0.4817240000000  0.5650530000000 1.0
C      1  0.4932800000000  0.4350290000000  0.5533840000000 1.0
C      1  0.4884470000000  0.4953590000000  0.4646370000000 1.0
C      1  0.5845260000000  0.4902810000000  0.5311620000000 1.0
C      1  0.5803220000000  0.5362930000000  0.4703310000000 1.0
C      1  0.5246260000000  0.4744030000000  0.4797830000000 1.0
C      1  0.5633360000000  0.5350320000000  0.5420320000000 1.0
C      1  0.5046660000000  0.6033780000000  0.5781190000000 1.0
C      1  0.4037210000000  0.5214960000000  0.4344260000000 1.0
C      1  0.5031870000000  0.5760570000000  0.5065620000000 1.0
C      1  0.5484270000000  0.4586210000000  0.4757550000000 1.0
C      1  0.5168210000000  0.4658450000000  0.5235050000000 1.0
C      1  0.4162720000000  0.4873360000000  0.4672140000000 1.0
C      1  0.4353300000000  0.4521030000000  0.4931100000000 1.0
C      1  0.5081000000000  0.5618130000000  0.4504140000000 1.0
C      1  0.4726260000000  0.4429930000000  0.4489520000000 1.0
C      1  0.4970600000000  0.4144010000000  0.4829280000000 1.0
END
