TITL C-612602-9376-798 6.70347474553529 125000 -299.818931657782 0 0 50 (C1) n - 1
REM
REM in /home/nfs/bkarasulu/CARBON/AIRSS/Generating-Clusters/TERSOFF/Only-C1/FIRE-HFTN
REM
REM
REM
REM
REM
REM ./C.cell (11c1c37f851c82e70ff6c80c92926a4b)
REM AIRSS Version 0.9.1 bugfix July 2018 build 013d7b7c2542+ Fri, 06 Jul 2018 19:26:36 +0100
REM compiler GCC version 9.2.1 20190827 (Red Hat 9.2.1-1)
REM options -cpp -mtune=generic -march=x86-64 -g -O0 -fpre-include=/usr/include/finclude/math-vector-fortran.h
REM seed 378784122 1573485668 976427686 -101128940 -562797582 1520852317 -1318794255 1031964240 -1562782015 1090335541 181069997 1977110781 2078344640 -163005110 -1038173361 1986767605 710683416 1095445574 748077812 1961380435 1857110462 -519251931 -790145685 -1153909584 -2093993460 435646394 748144753 401057187 -589164545 -177560262 -421765858 -1081167940 -1695108104
REM
CELL 1.54180   50.00000   50.00000   50.00000   90.00000   90.00000   90.00000
LATT -1
SFAC C  
C      1  0.5046560000000  0.5517460000000  0.5717110000000 1.0
C      1  0.4285410000000  0.4968610000000  0.4024960000000 1.0
C      1  0.4774370000000  0.5157410000000  0.4000540000000 1.0
C      1  0.4519670000000  0.5194290000000  0.5406130000000 1.0
C      1  0.5276820000000  0.5245310000000  0.4187330000000 1.0
C      1  0.4090280000000  0.4842630000000  0.4153290000000 1.0
C      1  0.5249790000000  0.5404770000000  0.5880970000000 1.0
C      1  0.5325110000000  0.4895750000000  0.5731950000000 1.0
C      1  0.4932260000000  0.5780600000000  0.5047130000000 1.0
C      1  0.4466550000000  0.4617370000000  0.5151900000000 1.0
C      1  0.5478950000000  0.5705110000000  0.6266130000000 1.0
C      1  0.5452540000000  0.4151490000000  0.5050470000000 1.0
C      1  0.4666920000000  0.5602320000000  0.6006440000000 1.0
C      1  0.3970630000000  0.4716150000000  0.4353660000000 1.0
C      1  0.4604150000000  0.4450490000000  0.5332660000000 1.0
C      1  0.5625690000000  0.3944740000000  0.5011290000000 1.0
C      1  0.5848350000000  0.3978660000000  0.4857540000000 1.0
C      1  0.4522940000000  0.5076490000000  0.3976900000000 1.0
C      1  0.4452730000000  0.5301940000000  0.4942130000000 1.0
C      1  0.4878840000000  0.4821160000000  0.4998740000000 1.0
C      1  0.5022300000000  0.5210910000000  0.4077320000000 1.0
C      1  0.5408530000000  0.5112320000000  0.4712650000000 1.0
C      1  0.5247680000000  0.4700180000000  0.5569980000000 1.0
C      1  0.5113820000000  0.5643050000000  0.5476410000000 1.0
C      1  0.5328840000000  0.5509140000000  0.5064390000000 1.0
C      1  0.5718990000000  0.4715500000000  0.4681700000000 1.0
C      1  0.4509830000000  0.5110500000000  0.5138490000000 1.0
C      1  0.5899710000000  0.4219800000000  0.4741440000000 1.0
C      1  0.4525600000000  0.5545790000000  0.4861530000000 1.0
C      1  0.5324980000000  0.5138780000000  0.5838420000000 1.0
C      1  0.4042510000000  0.4553580000000  0.4840180000000 1.0
C      1  0.4222120000000  0.4553320000000  0.5035610000000 1.0
C      1  0.5481880000000  0.5355220000000  0.4032650000000 1.0
C      1  0.5489060000000  0.4408360000000  0.4939040000000 1.0
C      1  0.4613760000000  0.5319920000000  0.5620050000000 1.0
C      1  0.5483770000000  0.4851390000000  0.4780740000000 1.0
C      1  0.4772650000000  0.5480720000000  0.5785510000000 1.0
C      1  0.4608400000000  0.4853540000000  0.5073110000000 1.0
C      1  0.5135620000000  0.5660580000000  0.5198440000000 1.0
C      1  0.5413690000000  0.5316130000000  0.4903670000000 1.0
C      1  0.3952530000000  0.4612420000000  0.4597400000000 1.0
C      1  0.4707940000000  0.5734460000000  0.4910460000000 1.0
C      1  0.5674360000000  0.5457380000000  0.3889700000000 1.0
C      1  0.5326840000000  0.5170000000000  0.4451600000000 1.0
C      1  0.5371190000000  0.5557800000000  0.6080110000000 1.0
C      1  0.5111680000000  0.4697940000000  0.5098950000000 1.0
C      1  0.5343130000000  0.4657250000000  0.4947010000000 1.0
C      1  0.5732120000000  0.4444050000000  0.4770580000000 1.0
C      1  0.5089390000000  0.4595140000000  0.5366080000000 1.0
C      1  0.4858520000000  0.4442040000000  0.5419510000000 1.0
END
