TITL C-612603-7354-1355 -802.955225712115 125000 -949.635334523454 0 0 156 (C1) n - 1
REM
REM in /home/nfs/bkarasulu/CARBON/AIRSS/Generating-Clusters/TERSOFF/Only-C1/FIRE-HFTN
REM
REM
REM
REM
REM
REM ./C.cell (11c1c37f851c82e70ff6c80c92926a4b)
REM AIRSS Version 0.9.1 bugfix July 2018 build 013d7b7c2542+ Fri, 06 Jul 2018 19:26:36 +0100
REM compiler GCC version 9.2.1 20190827 (Red Hat 9.2.1-1)
REM options -cpp -mtune=generic -march=x86-64 -g -O0 -fpre-include=/usr/include/finclude/math-vector-fortran.h
REM seed -1575047167 -656670861 -1389229292 355211533 1686147618 568150830 1770056039 -1473210831 -2009768242 -1330538379 88248383 -1029856310 380494386 202336940 -664712081 942654775 1246216020 1858221119 -150814116 -1373384949 610519615 -25799745 -1126680102 1834453206 32477223 -1413158915 1868943206 1148996037 -1689089850 -700769737 -215894326 1074884599 1292677431
REM
CELL 1.54180   50.00000   50.00000   50.00000   90.00000   90.00000   90.00000
LATT -1
SFAC C  
C      1  0.5388290000000  0.4455540000000  0.4966740000000 1.0
C      1  0.5582580000000  0.5520750000000  0.4333800000000 1.0
C      1  0.4230150000000  0.5234770000000  0.4600250000000 1.0
C      1  0.4426270000000  0.3911120000000  0.5136840000000 1.0
C      1  0.5123190000000  0.5128860000000  0.3911340000000 1.0
C      1  0.5571130000000  0.5686630000000  0.4551070000000 1.0
C      1  0.3866450000000  0.4859690000000  0.5398130000000 1.0
C      1  0.5572550000000  0.4911690000000  0.3908270000000 1.0
C      1  0.4461340000000  0.5287250000000  0.4163750000000 1.0
C      1  0.4094890000000  0.4543290000000  0.5122160000000 1.0
C      1  0.4998380000000  0.5595150000000  0.4023400000000 1.0
C      1  0.5366040000000  0.4862630000000  0.5690650000000 1.0
C      1  0.4477400000000  0.5430130000000  0.5073510000000 1.0
C      1  0.5008020000000  0.5915870000000  0.4424140000000 1.0
C      1  0.5414630000000  0.5152040000000  0.3951460000000 1.0
C      1  0.4162450000000  0.4358230000000  0.4694640000000 1.0
C      1  0.6378160000000  0.5197800000000  0.5197570000000 1.0
C      1  0.6189250000000  0.5020560000000  0.5310800000000 1.0
C      1  0.4686440000000  0.5262770000000  0.4720890000000 1.0
C      1  0.5739650000000  0.4696030000000  0.5437800000000 1.0
C      1  0.4038730000000  0.5107270000000  0.4801110000000 1.0
C      1  0.5167730000000  0.3967990000000  0.4569330000000 1.0
C      1  0.5290030000000  0.4587930000000  0.5684300000000 1.0
C      1  0.4427910000000  0.5390130000000  0.4772400000000 1.0
C      1  0.5041710000000  0.6225230000000  0.5257700000000 1.0
C      1  0.4800080000000  0.5681190000000  0.5406710000000 1.0
C      1  0.5466740000000  0.5477710000000  0.5906350000000 1.0
C      1  0.4544900000000  0.5999560000000  0.5039600000000 1.0
C      1  0.3996290000000  0.5188060000000  0.5793070000000 1.0
C      1  0.4896400000000  0.5444680000000  0.4716650000000 1.0
C      1  0.4549640000000  0.4102750000000  0.5579100000000 1.0
C      1  0.4806130000000  0.5991610000000  0.4607640000000 1.0
C      1  0.4344540000000  0.4082040000000  0.5348850000000 1.0
C      1  0.5192970000000  0.4497550000000  0.5431450000000 1.0
C      1  0.5463080000000  0.5002040000000  0.5921000000000 1.0
C      1  0.5747210000000  0.4404660000000  0.5869390000000 1.0
C      1  0.4547600000000  0.4477690000000  0.4019490000000 1.0
C      1  0.4379820000000  0.5057510000000  0.4383400000000 1.0
C      1  0.4030110000000  0.5381990000000  0.5584830000000 1.0
C      1  0.4147250000000  0.5699150000000  0.4949200000000 1.0
C      1  0.4190160000000  0.5067270000000  0.5947060000000 1.0
C      1  0.5471790000000  0.6070830000000  0.5446460000000 1.0
C      1  0.5244580000000  0.3436740000000  0.4519590000000 1.0
C      1  0.4683780000000  0.4609050000000  0.5251850000000 1.0
C      1  0.4396470000000  0.5558880000000  0.4235270000000 1.0
C      1  0.4301430000000  0.5855480000000  0.5155260000000 1.0
C      1  0.5713250000000  0.4769360000000  0.4338250000000 1.0
C      1  0.6143590000000  0.5573970000000  0.4994850000000 1.0
C      1  0.4759030000000  0.5923980000000  0.5555180000000 1.0
C      1  0.5378520000000  0.4373880000000  0.5245890000000 1.0
C      1  0.4287260000000  0.5771170000000  0.5438060000000 1.0
C      1  0.5522670000000  0.4364430000000  0.6018270000000 1.0
C      1  0.4884140000000  0.4981990000000  0.4288430000000 1.0
C      1  0.5032410000000  0.5431450000000  0.4472820000000 1.0
C      1  0.4999970000000  0.5520570000000  0.5514250000000 1.0
C      1  0.4928200000000  0.5344870000000  0.3907940000000 1.0
C      1  0.6125060000000  0.4562340000000  0.5014780000000 1.0
C      1  0.5320880000000  0.5034750000000  0.4526150000000 1.0
C      1  0.4037220000000  0.4820910000000  0.4685970000000 1.0
C      1  0.4775740000000  0.4324920000000  0.4054790000000 1.0
C      1  0.4175990000000  0.4814000000000  0.4385610000000 1.0
C      1  0.6007270000000  0.5138580000000  0.5499140000000 1.0
C      1  0.5259310000000  0.6029480000000  0.4488950000000 1.0
C      1  0.4436210000000  0.4337740000000  0.4641470000000 1.0
C      1  0.5192110000000  0.5546540000000  0.5075770000000 1.0
C      1  0.5434450000000  0.5454400000000  0.5109620000000 1.0
C      1  0.5131940000000  0.5310810000000  0.5629400000000 1.0
C      1  0.4312520000000  0.4957600000000  0.5188030000000 1.0
C      1  0.5074960000000  0.6078660000000  0.5015450000000 1.0
C      1  0.4640080000000  0.4891660000000  0.4462900000000 1.0
C      1  0.4549700000000  0.4392460000000  0.5661270000000 1.0
C      1  0.5276530000000  0.4618630000000  0.4326990000000 1.0
C      1  0.5560720000000  0.5693700000000  0.5742570000000 1.0
C      1  0.4338470000000  0.5249530000000  0.5262860000000 1.0
C      1  0.4262860000000  0.4357250000000  0.5273480000000 1.0
C      1  0.5523800000000  0.5361170000000  0.4120420000000 1.0
C      1  0.4986290000000  0.4561240000000  0.4736240000000 1.0
C      1  0.4605510000000  0.4606500000000  0.5854920000000 1.0
C      1  0.5466490000000  0.4759610000000  0.4512310000000 1.0
C      1  0.5211010000000  0.3694240000000  0.4541320000000 1.0
C      1  0.5189890000000  0.4982620000000  0.4981100000000 1.0
C      1  0.5440950000000  0.4105440000000  0.5310930000000 1.0
C      1  0.4947260000000  0.4901970000000  0.5464660000000 1.0
C      1  0.5197250000000  0.5356150000000  0.5907840000000 1.0
C      1  0.5466400000000  0.5953350000000  0.5691240000000 1.0
C      1  0.5644240000000  0.5128260000000  0.4870840000000 1.0
C      1  0.4582630000000  0.4868620000000  0.5186890000000 1.0
C      1  0.4270090000000  0.5554590000000  0.5639010000000 1.0
C      1  0.4685440000000  0.4886240000000  0.5952460000000 1.0
C      1  0.5577090000000  0.4408140000000  0.4057690000000 1.0
C      1  0.5086560000000  0.4626460000000  0.6107480000000 1.0
C      1  0.6021620000000  0.4390490000000  0.4834490000000 1.0
C      1  0.4794940000000  0.3969490000000  0.5510010000000 1.0
C      1  0.5549490000000  0.5936510000000  0.5203760000000 1.0
C      1  0.4309720000000  0.5665530000000  0.4712620000000 1.0
C      1  0.5092340000000  0.5157530000000  0.4407590000000 1.0
C      1  0.5203490000000  0.5038350000000  0.5505230000000 1.0
C      1  0.4340750000000  0.5729410000000  0.4439180000000 1.0
C      1  0.4964410000000  0.4835480000000  0.4845320000000 1.0
C      1  0.4477560000000  0.4499880000000  0.5404840000000 1.0
C      1  0.4122490000000  0.4370420000000  0.4197980000000 1.0
C      1  0.5484380000000  0.4224840000000  0.4269840000000 1.0
C      1  0.5198590000000  0.5097420000000  0.6038910000000 1.0
C      1  0.4976010000000  0.4895160000000  0.6058310000000 1.0
C      1  0.6357260000000  0.5424660000000  0.5056290000000 1.0
C      1  0.4939620000000  0.5552970000000  0.4968740000000 1.0
C      1  0.4052030000000  0.4569740000000  0.4838370000000 1.0
C      1  0.5663900000000  0.4688470000000  0.4065690000000 1.0
C      1  0.4653350000000  0.5267060000000  0.3953920000000 1.0
C      1  0.4477190000000  0.5112560000000  0.5917910000000 1.0
C      1  0.4483080000000  0.5346810000000  0.5726070000000 1.0
C      1  0.4907400000000  0.3965340000000  0.5018250000000 1.0
C      1  0.4351380000000  0.4571920000000  0.4246050000000 1.0
C      1  0.5600400000000  0.4845150000000  0.5242900000000 1.0
C      1  0.5015200000000  0.5658180000000  0.4298180000000 1.0
C      1  0.5156290000000  0.4666330000000  0.4088000000000 1.0
C      1  0.4950030000000  0.4299470000000  0.4283050000000 1.0
C      1  0.5641730000000  0.5231000000000  0.5856280000000 1.0
C      1  0.5007350000000  0.4897350000000  0.4043120000000 1.0
C      1  0.5812110000000  0.4538900000000  0.5644180000000 1.0
C      1  0.5748310000000  0.5589270000000  0.5539530000000 1.0
C      1  0.5431840000000  0.5904390000000  0.4680050000000 1.0
C      1  0.4889670000000  0.6156580000000  0.5467190000000 1.0
C      1  0.5364990000000  0.5112910000000  0.4789310000000 1.0
C      1  0.5199700000000  0.4150250000000  0.4341540000000 1.0
C      1  0.5151050000000  0.4362420000000  0.4845460000000 1.0
C      1  0.4742650000000  0.4984930000000  0.4732040000000 1.0
C      1  0.4726360000000  0.5038880000000  0.5374710000000 1.0
C      1  0.5871800000000  0.4256400000000  0.4654660000000 1.0
C      1  0.4948790000000  0.4626210000000  0.5366760000000 1.0
C      1  0.4804440000000  0.6029200000000  0.4890790000000 1.0
C      1  0.5087080000000  0.4084480000000  0.4821050000000 1.0
C      1  0.5364890000000  0.5973490000000  0.4962430000000 1.0
C      1  0.4630970000000  0.3956760000000  0.4946150000000 1.0
C      1  0.5684940000000  0.4183810000000  0.4474020000000 1.0
C      1  0.5257140000000  0.3911380000000  0.5349670000000 1.0
C      1  0.4014030000000  0.5382400000000  0.4424190000000 1.0
C      1  0.4979840000000  0.3923530000000  0.5296060000000 1.0
C      1  0.5875230000000  0.5569890000000  0.5065470000000 1.0
C      1  0.3984750000000  0.5386550000000  0.5021120000000 1.0
C      1  0.5757670000000  0.5729120000000  0.5275150000000 1.0
C      1  0.5273930000000  0.4480560000000  0.5948080000000 1.0
C      1  0.5684210000000  0.5372600000000  0.5000590000000 1.0
C      1  0.5818410000000  0.5308870000000  0.5627340000000 1.0
C      1  0.5682860000000  0.4857680000000  0.4966960000000 1.0
C      1  0.4718000000000  0.5578420000000  0.5149810000000 1.0
C      1  0.4855310000000  0.4472420000000  0.4497180000000 1.0
C      1  0.6171850000000  0.4763710000000  0.5188280000000 1.0
C      1  0.4553790000000  0.5232210000000  0.5474760000000 1.0
C      1  0.4569180000000  0.4567990000000  0.4476370000000 1.0
C      1  0.4643140000000  0.5925410000000  0.5803420000000 1.0
C      1  0.5332480000000  0.4971760000000  0.5241210000000 1.0
C      1  0.4559820000000  0.4100040000000  0.4716710000000 1.0
C      1  0.5538300000000  0.4655440000000  0.4805450000000 1.0
C      1  0.4047910000000  0.5334190000000  0.5296460000000 1.0
C      1  0.4084290000000  0.4799430000000  0.5246200000000 1.0
END
