TITL C-612604-1799-218 8.93510392986276e-05 125000 -460.140941543527 0 0 78 (C1) n - 1
REM
REM in /home/nfs/bkarasulu/CARBON/AIRSS/Generating-Clusters/TERSOFF/Only-C1/FIRE-HFTN
REM
REM
REM
REM
REM
REM ./C.cell (11c1c37f851c82e70ff6c80c92926a4b)
REM AIRSS Version 0.9.1 bugfix July 2018 build 013d7b7c2542+ Fri, 06 Jul 2018 19:26:36 +0100
REM compiler GCC version 9.2.1 20190827 (Red Hat 9.2.1-1)
REM options -cpp -mtune=generic -march=x86-64 -g -O0 -fpre-include=/usr/include/finclude/math-vector-fortran.h
REM seed 2123390033 -443519752 -2028680053 -1041852990 -1163624465 -451049183 1763877190 1805977312 -1755248769 1936570518 271182041 1329950530 -79991469 912550450 236840986 -900669473 -554883676 -698085837 -615611778 1319190445 -1899819873 488011226 -1352777469 -614875870 -965899496 1328366478 -806747571 -195042752 -543339725 861616743 260889948 -1336999170 931001222
REM
CELL 1.54180   50.00000   50.00000   50.00000   90.00000   90.00000   90.00000
LATT -1
SFAC C  
C      1  0.4280170000000  0.5465310000000  0.4906110000000 1.0
C      1  0.4156670000000  0.5239590000000  0.4494760000000 1.0
C      1  0.5356490000000  0.5212030000000  0.4060970000000 1.0
C      1  0.4728850000000  0.5020300000000  0.4255960000000 1.0
C      1  0.4464000000000  0.4524810000000  0.5451930000000 1.0
C      1  0.4939400000000  0.3973620000000  0.5518250000000 1.0
C      1  0.4272830000000  0.5500880000000  0.5406000000000 1.0
C      1  0.5324510000000  0.5689760000000  0.4891330000000 1.0
C      1  0.4631930000000  0.4783760000000  0.4912150000000 1.0
C      1  0.4828690000000  0.5254700000000  0.4098090000000 1.0
C      1  0.5092200000000  0.5148150000000  0.5174540000000 1.0
C      1  0.4586660000000  0.5215470000000  0.5158120000000 1.0
C      1  0.4808350000000  0.4201500000000  0.5625640000000 1.0
C      1  0.4356300000000  0.5331190000000  0.4670110000000 1.0
C      1  0.5047290000000  0.5669460000000  0.4810170000000 1.0
C      1  0.4533080000000  0.4794480000000  0.5409730000000 1.0
C      1  0.5929340000000  0.4749550000000  0.4987640000000 1.0
C      1  0.5370860000000  0.5266580000000  0.5134470000000 1.0
C      1  0.4485300000000  0.4927070000000  0.5137870000000 1.0
C      1  0.4548770000000  0.4752070000000  0.4632940000000 1.0
C      1  0.4463900000000  0.5327490000000  0.5832310000000 1.0
C      1  0.5200580000000  0.4704050000000  0.5380360000000 1.0
C      1  0.5203530000000  0.3973800000000  0.5409810000000 1.0
C      1  0.5677990000000  0.5204310000000  0.5643880000000 1.0
C      1  0.4902090000000  0.5590580000000  0.5058820000000 1.0
C      1  0.5116330000000  0.5342020000000  0.4129300000000 1.0
C      1  0.5732500000000  0.5074360000000  0.4385270000000 1.0
C      1  0.4690470000000  0.5164550000000  0.5788190000000 1.0
C      1  0.5214260000000  0.4706350000000  0.4454570000000 1.0
C      1  0.4102240000000  0.5047040000000  0.4315820000000 1.0
C      1  0.5286090000000  0.5545430000000  0.5625700000000 1.0
C      1  0.5205630000000  0.5144270000000  0.5835680000000 1.0
C      1  0.5269600000000  0.5056210000000  0.4727010000000 1.0
C      1  0.5738690000000  0.5113150000000  0.5382030000000 1.0
C      1  0.5103200000000  0.4841920000000  0.5138460000000 1.0
C      1  0.4849940000000  0.5706470000000  0.5554150000000 1.0
C      1  0.4648590000000  0.4940880000000  0.5622300000000 1.0
C      1  0.5813600000000  0.4345230000000  0.4739450000000 1.0
C      1  0.5398870000000  0.5288110000000  0.4671880000000 1.0
C      1  0.5321600000000  0.3753380000000  0.5302350000000 1.0
C      1  0.4982560000000  0.5733450000000  0.5300070000000 1.0
C      1  0.5003600000000  0.5544170000000  0.5733680000000 1.0
C      1  0.5872410000000  0.5202830000000  0.5836590000000 1.0
C      1  0.5330640000000  0.4229040000000  0.5423690000000 1.0
C      1  0.5150230000000  0.5565700000000  0.4316180000000 1.0
C      1  0.4555240000000  0.4292010000000  0.5547720000000 1.0
C      1  0.5269120000000  0.5669850000000  0.5364660000000 1.0
C      1  0.5500810000000  0.4678720000000  0.4526480000000 1.0
C      1  0.5620240000000  0.4425020000000  0.4569090000000 1.0
C      1  0.4976720000000  0.4293620000000  0.4651860000000 1.0
C      1  0.4529120000000  0.4823910000000  0.4343530000000 1.0
C      1  0.5417500000000  0.5297690000000  0.5706200000000 1.0
C      1  0.5671280000000  0.4908170000000  0.4607690000000 1.0
C      1  0.4637470000000  0.5318230000000  0.4603140000000 1.0
C      1  0.5392210000000  0.5555050000000  0.5135150000000 1.0
C      1  0.4679560000000  0.5497470000000  0.4174290000000 1.0
C      1  0.4268000000000  0.4848240000000  0.4238590000000 1.0
C      1  0.4882720000000  0.4676470000000  0.5000790000000 1.0
C      1  0.5083870000000  0.4956880000000  0.4541050000000 1.0
C      1  0.4832990000000  0.5097410000000  0.4525130000000 1.0
C      1  0.5307450000000  0.4847990000000  0.4921510000000 1.0
C      1  0.4376340000000  0.5411850000000  0.5162900000000 1.0
C      1  0.5066420000000  0.4466310000000  0.4447200000000 1.0
C      1  0.4715730000000  0.5556770000000  0.4456960000000 1.0
C      1  0.4299640000000  0.5463570000000  0.5669600000000 1.0
C      1  0.3935720000000  0.4879460000000  0.5049590000000 1.0
C      1  0.5622670000000  0.5114420000000  0.5120940000000 1.0
C      1  0.5208860000000  0.4465770000000  0.5525170000000 1.0
C      1  0.4942970000000  0.4417470000000  0.4902930000000 1.0
C      1  0.5596930000000  0.5151950000000  0.4165390000000 1.0
C      1  0.4927780000000  0.4028970000000  0.4610500000000 1.0
C      1  0.5951270000000  0.4488640000000  0.4921930000000 1.0
C      1  0.4191170000000  0.4916730000000  0.5084280000000 1.0
C      1  0.4977020000000  0.5646470000000  0.4533350000000 1.0
C      1  0.5746420000000  0.4952170000000  0.4898100000000 1.0
C      1  0.4855380000000  0.5306340000000  0.5120670000000 1.0
C      1  0.4993360000000  0.4406340000000  0.5701190000000 1.0
C      1  0.4947170000000  0.5275000000000  0.5828040000000 1.0
END
