TITL C-612604-1799-1412 6238.88574319444 125000 -933.694767682581 0 0 154 (C1) n - 1
REM
REM in /home/nfs/bkarasulu/CARBON/AIRSS/Generating-Clusters/TERSOFF/Only-C1/FIRE-HFTN
REM
REM
REM
REM
REM
REM ./C.cell (11c1c37f851c82e70ff6c80c92926a4b)
REM AIRSS Version 0.9.1 bugfix July 2018 build 013d7b7c2542+ Fri, 06 Jul 2018 19:26:36 +0100
REM compiler GCC version 9.2.1 20190827 (Red Hat 9.2.1-1)
REM options -cpp -mtune=generic -march=x86-64 -g -O0 -fpre-include=/usr/include/finclude/math-vector-fortran.h
REM seed -1157453384 2070005883 -1908692401 -1441053431 1480700200 -1060701582 -38978234 1553151533 -1467281853 422421209 -1048610026 1109787925 718076769 2141533047 -1913380003 -1478535923 -295415720 -837726494 -1840249022 815208212 -505245017 346447864 581178362 -1965237109 1648656737 2064338887 728128298 -358265008 -1858549159 1864492742 -1653996279 -1238705637 1412692151
REM
CELL 1.54180   50.00000   50.00000   50.00000   90.00000   90.00000   90.00000
LATT -1
SFAC C  
C      1  0.5473750000000  0.5197830000000  0.5565080000000 1.0
C      1  0.4635900000000  0.4758960000000  0.6016910000000 1.0
C      1  0.4885990000000  0.5844490000000  0.4776040000000 1.0
C      1  0.5340060000000  0.5088320000000  0.5084830000000 1.0
C      1  0.4568420000000  0.4701240000000  0.5754600000000 1.0
C      1  0.3946120000000  0.4490220000000  0.5384390000000 1.0
C      1  0.5917420000000  0.4736610000000  0.6083920000000 1.0
C      1  0.4111540000000  0.5109310000000  0.5560150000000 1.0
C      1  0.5315300000000  0.4312780000000  0.4110630000000 1.0
C      1  0.4681470000000  0.6010480000000  0.5415160000000 1.0
C      1  0.5190760000000  0.4623500000000  0.4825440000000 1.0
C      1  0.4164990000000  0.5611180000000  0.4157930000000 1.0
C      1  0.5010900000000  0.5319980000000  0.4548800000000 1.0
C      1  0.5744580000000  0.5775420000000  0.5065420000000 1.0
C      1  0.5288720000000  0.5460120000000  0.4020330000000 1.0
C      1  0.5915160000000  0.4929570000000  0.4294070000000 1.0
C      1  0.5812850000000  0.5620190000000  0.5305080000000 1.0
C      1  0.3878760000000  0.5522540000000  0.4763440000000 1.0
C      1  0.4422670000000  0.5990050000000  0.4999470000000 1.0
C      1  0.5569860000000  0.5648800000000  0.5458910000000 1.0
C      1  0.4359520000000  0.5598130000000  0.5261460000000 1.0
C      1  0.4484690000000  0.4594110000000  0.5106940000000 1.0
C      1  0.3765580000000  0.5271470000000  0.4877840000000 1.0
C      1  0.4411910000000  0.4469190000000  0.5667310000000 1.0
C      1  0.4900840000000  0.6076800000000  0.4945560000000 1.0
C      1  0.4164320000000  0.5061160000000  0.4782520000000 1.0
C      1  0.5638360000000  0.4490850000000  0.4728160000000 1.0
C      1  0.6010470000000  0.4846150000000  0.5848430000000 1.0
C      1  0.5808250000000  0.4573550000000  0.4940450000000 1.0
C      1  0.5152900000000  0.6214240000000  0.4902770000000 1.0
C      1  0.5384360000000  0.6165590000000  0.5059240000000 1.0
C      1  0.4962260000000  0.4722870000000  0.6444980000000 1.0
C      1  0.5130950000000  0.4665620000000  0.5265550000000 1.0
C      1  0.5425700000000  0.4281250000000  0.4380240000000 1.0
C      1  0.5593710000000  0.4651500000000  0.5757970000000 1.0
C      1  0.4167620000000  0.4220860000000  0.4334720000000 1.0
C      1  0.5143930000000  0.4466860000000  0.5060360000000 1.0
C      1  0.5750730000000  0.5549550000000  0.4191080000000 1.0
C      1  0.5139240000000  0.4082750000000  0.4083720000000 1.0
C      1  0.5646760000000  0.4644730000000  0.6051890000000 1.0
C      1  0.5893890000000  0.5560650000000  0.4416960000000 1.0
C      1  0.3868550000000  0.5012170000000  0.4790220000000 1.0
C      1  0.6153910000000  0.4903030000000  0.5000260000000 1.0
C      1  0.5239830000000  0.5681320000000  0.5810180000000 1.0
C      1  0.5567940000000  0.4099770000000  0.5298700000000 1.0
C      1  0.4746990000000  0.4143480000000  0.5079460000000 1.0
C      1  0.5294090000000  0.5332100000000  0.4607960000000 1.0
C      1  0.5221550000000  0.4645790000000  0.6373810000000 1.0
C      1  0.5052730000000  0.5555430000000  0.5177110000000 1.0
C      1  0.5091300000000  0.5887570000000  0.4329070000000 1.0
C      1  0.4608180000000  0.5803890000000  0.4372790000000 1.0
C      1  0.4779760000000  0.5129900000000  0.4916390000000 1.0
C      1  0.4910520000000  0.5603690000000  0.4915960000000 1.0
C      1  0.4650640000000  0.4127960000000  0.5359730000000 1.0
C      1  0.4009660000000  0.5160840000000  0.5285090000000 1.0
C      1  0.4559640000000  0.5385230000000  0.5737830000000 1.0
C      1  0.5744790000000  0.5097030000000  0.5512360000000 1.0
C      1  0.5415420000000  0.4649150000000  0.4669750000000 1.0
C      1  0.5441570000000  0.5407620000000  0.5380790000000 1.0
C      1  0.5660720000000  0.5147480000000  0.3946890000000 1.0
C      1  0.5137450000000  0.4064580000000  0.4739020000000 1.0
C      1  0.4263490000000  0.5754350000000  0.5033510000000 1.0
C      1  0.5256390000000  0.5201290000000  0.5752050000000 1.0
C      1  0.3989710000000  0.5699570000000  0.4969510000000 1.0
C      1  0.5672940000000  0.5615310000000  0.4839610000000 1.0
C      1  0.4855040000000  0.5364810000000  0.4780460000000 1.0
C      1  0.5476860000000  0.4767660000000  0.4185560000000 1.0
C      1  0.6079170000000  0.5367730000000  0.4854170000000 1.0
C      1  0.4135900000000  0.4564900000000  0.5590810000000 1.0
C      1  0.4845630000000  0.4691970000000  0.4277700000000 1.0
C      1  0.5391090000000  0.3938000000000  0.4838150000000 1.0
C      1  0.4665270000000  0.4826870000000  0.5523610000000 1.0
C      1  0.4702770000000  0.3833930000000  0.4653830000000 1.0
C      1  0.5210630000000  0.6273380000000  0.4628800000000 1.0
C      1  0.5311410000000  0.5390020000000  0.5114980000000 1.0
C      1  0.4453160000000  0.5099950000000  0.5193670000000 1.0
C      1  0.5693450000000  0.4318360000000  0.4503560000000 1.0
C      1  0.5039750000000  0.4198940000000  0.5008700000000 1.0
C      1  0.5587600000000  0.4993440000000  0.4988930000000 1.0
C      1  0.4672310000000  0.6076320000000  0.5127690000000 1.0
C      1  0.4663340000000  0.3901970000000  0.4925310000000 1.0
C      1  0.4538180000000  0.5372760000000  0.5255950000000 1.0
C      1  0.5405180000000  0.4837520000000  0.4454200000000 1.0
C      1  0.3903600000000  0.4611720000000  0.4237090000000 1.0
C      1  0.4301850000000  0.5745460000000  0.5501200000000 1.0
C      1  0.5281480000000  0.4595820000000  0.4058330000000 1.0
C      1  0.5898920000000  0.5520340000000  0.4694180000000 1.0
C      1  0.4118890000000  0.4496090000000  0.4359240000000 1.0
C      1  0.4292010000000  0.3989080000000  0.4373410000000 1.0
C      1  0.4900650000000  0.4455230000000  0.4475420000000 1.0
C      1  0.4363820000000  0.5079630000000  0.4544110000000 1.0
C      1  0.6080380000000  0.4645930000000  0.4873060000000 1.0
C      1  0.4633360000000  0.4276740000000  0.5598420000000 1.0
C      1  0.4431010000000  0.5980650000000  0.5547090000000 1.0
C      1  0.5759950000000  0.4076650000000  0.5734640000000 1.0
C      1  0.4726080000000  0.4890350000000  0.4772440000000 1.0
C      1  0.5677080000000  0.5063640000000  0.4721880000000 1.0
C      1  0.5589100000000  0.4202360000000  0.5559560000000 1.0
C      1  0.5029250000000  0.3914170000000  0.4272400000000 1.0
C      1  0.4966330000000  0.3884280000000  0.4555700000000 1.0
C      1  0.3794220000000  0.5318270000000  0.5178640000000 1.0
C      1  0.5446010000000  0.5102630000000  0.4548530000000 1.0
C      1  0.5026210000000  0.4734740000000  0.4052940000000 1.0
C      1  0.5707060000000  0.4913100000000  0.4098010000000 1.0
C      1  0.3957760000000  0.5485840000000  0.4061440000000 1.0
C      1  0.4770180000000  0.4761750000000  0.6245450000000 1.0
C      1  0.5113630000000  0.5791340000000  0.5378460000000 1.0
C      1  0.4635700000000  0.4393770000000  0.4963030000000 1.0
C      1  0.5223990000000  0.6127200000000  0.4401350000000 1.0
C      1  0.4552550000000  0.4835850000000  0.5264250000000 1.0
C      1  0.3831200000000  0.5606600000000  0.5201320000000 1.0
C      1  0.5799390000000  0.4851450000000  0.5647170000000 1.0
C      1  0.4205540000000  0.5100430000000  0.5072140000000 1.0
C      1  0.4313350000000  0.5271650000000  0.5693790000000 1.0
C      1  0.4085880000000  0.4842670000000  0.5660160000000 1.0
C      1  0.5159420000000  0.4391990000000  0.5707950000000 1.0
C      1  0.4380340000000  0.5722600000000  0.4264990000000 1.0
C      1  0.4481770000000  0.3837160000000  0.4482310000000 1.0
C      1  0.5531360000000  0.3975400000000  0.5065040000000 1.0
C      1  0.4900640000000  0.5106230000000  0.5183900000000 1.0
C      1  0.6069910000000  0.5179150000000  0.5074470000000 1.0
C      1  0.5123080000000  0.5246980000000  0.3926490000000 1.0
C      1  0.4298010000000  0.4649770000000  0.4511270000000 1.0
C      1  0.5981900000000  0.4334010000000  0.4479790000000 1.0
C      1  0.4897050000000  0.4324340000000  0.5712910000000 1.0
C      1  0.5167370000000  0.4298210000000  0.4539910000000 1.0
C      1  0.5084770000000  0.5435000000000  0.5781720000000 1.0
C      1  0.4871210000000  0.5828380000000  0.5511400000000 1.0
C      1  0.4655000000000  0.4993030000000  0.4355810000000 1.0
C      1  0.5451200000000  0.4613480000000  0.6245290000000 1.0
C      1  0.5412880000000  0.5485180000000  0.4835150000000 1.0
C      1  0.5901610000000  0.5000340000000  0.4556520000000 1.0
C      1  0.5345230000000  0.5792230000000  0.5561180000000 1.0
C      1  0.3944870000000  0.4593400000000  0.5113080000000 1.0
C      1  0.4214050000000  0.4568790000000  0.5036670000000 1.0
C      1  0.4688450000000  0.4448480000000  0.4684710000000 1.0
C      1  0.5571310000000  0.5404380000000  0.4029420000000 1.0
C      1  0.5184690000000  0.5695990000000  0.4141840000000 1.0
C      1  0.5687830000000  0.4760070000000  0.5110010000000 1.0
C      1  0.4851510000000  0.5196480000000  0.4350730000000 1.0
C      1  0.4535890000000  0.4696060000000  0.4653570000000 1.0
C      1  0.4857760000000  0.5842340000000  0.4491110000000 1.0
C      1  0.4835650000000  0.4804960000000  0.6963230000000 1.0
C      1  0.5912150000000  0.5281170000000  0.5313000000000 1.0
C      1  0.5033220000000  0.4991970000000  0.3926760000000 1.0
C      1  0.4896020000000  0.4762160000000  0.6713340000000 1.0
C      1  0.4986770000000  0.4787360000000  0.4746250000000 1.0
C      1  0.4838000000000  0.5366420000000  0.5329640000000 1.0
C      1  0.4824440000000  0.5476530000000  0.5619400000000 1.0
C      1  0.6151240000000  0.4487300000000  0.4640020000000 1.0
C      1  0.5613720000000  0.6026770000000  0.5085620000000 1.0
C      1  0.5439460000000  0.4428860000000  0.5656760000000 1.0
C      1  0.5129390000000  0.4944990000000  0.5212760000000 1.0
C      1  0.3798680000000  0.4770020000000  0.4938300000000 1.0
END
