TITL C-612601-4209-1311 -0.0537431233786918 125000 -855.593067253046 0 0 140 (C1) n - 1
REM
REM in /home/nfs/bkarasulu/CARBON/AIRSS/Generating-Clusters/TERSOFF/Only-C1/FIRE-HFTN
REM
REM
REM
REM
REM
REM ./C.cell (11c1c37f851c82e70ff6c80c92926a4b)
REM AIRSS Version 0.9.1 bugfix July 2018 build 013d7b7c2542+ Fri, 06 Jul 2018 19:26:36 +0100
REM compiler GCC version 9.2.1 20190827 (Red Hat 9.2.1-1)
REM options -cpp -mtune=generic -march=x86-64 -g -O0 -fpre-include=/usr/include/finclude/math-vector-fortran.h
REM seed -873050603 -942493024 -56862112 101863445 1666392978 -1583051061 414612158 1188956962 648900989 1963124236 23592672 -1281944898 -511173029 -1210047622 1877139798 909659983 -1591786790 -311728474 -1796710274 1595185998 -1276072058 -629488666 -6621554 -824327750 -1515788962 -2049411282 -543920198 -2054067627 -1438947004 2071948151 -1127933958 -1070511379 549552776
REM
CELL 1.54180   50.00000   50.00000   50.00000   90.00000   90.00000   90.00000
LATT -1
SFAC C  
C      1  0.6025380000000  0.5172680000000  0.5857410000000 1.0
C      1  0.5037420000000  0.4704520000000  0.4720720000000 1.0
C      1  0.5528640000000  0.5842190000000  0.4902050000000 1.0
C      1  0.5296690000000  0.4609080000000  0.4738170000000 1.0
C      1  0.5566340000000  0.4365800000000  0.5669400000000 1.0
C      1  0.5050230000000  0.5794750000000  0.5973570000000 1.0
C      1  0.5141280000000  0.4624420000000  0.4138410000000 1.0
C      1  0.4469370000000  0.4347410000000  0.4448150000000 1.0
C      1  0.4722320000000  0.4214950000000  0.5239740000000 1.0
C      1  0.4770390000000  0.5564810000000  0.5180000000000 1.0
C      1  0.5860330000000  0.4584930000000  0.4383790000000 1.0
C      1  0.5033700000000  0.4346270000000  0.5671800000000 1.0
C      1  0.5274140000000  0.4941350000000  0.5709470000000 1.0
C      1  0.3858710000000  0.4499650000000  0.4480140000000 1.0
C      1  0.6089520000000  0.5146550000000  0.4589420000000 1.0
C      1  0.5604720000000  0.5376420000000  0.4028120000000 1.0
C      1  0.4632510000000  0.4521580000000  0.4257720000000 1.0
C      1  0.5568200000000  0.4057870000000  0.4867260000000 1.0
C      1  0.5772740000000  0.5092690000000  0.5853150000000 1.0
C      1  0.4671960000000  0.4992800000000  0.5407080000000 1.0
C      1  0.4233630000000  0.5259470000000  0.6035250000000 1.0
C      1  0.4523050000000  0.5613230000000  0.6135500000000 1.0
C      1  0.4702370000000  0.5165840000000  0.6203890000000 1.0
C      1  0.4236840000000  0.5112740000000  0.4418840000000 1.0
C      1  0.5003130000000  0.5370040000000  0.4527690000000 1.0
C      1  0.5522760000000  0.5015470000000  0.5812050000000 1.0
C      1  0.4854430000000  0.4037270000000  0.4551190000000 1.0
C      1  0.4461000000000  0.4315770000000  0.5191200000000 1.0
C      1  0.4187550000000  0.4824960000000  0.5382980000000 1.0
C      1  0.4290570000000  0.4608780000000  0.5556320000000 1.0
C      1  0.5050280000000  0.5510330000000  0.6019980000000 1.0
C      1  0.4901890000000  0.5377380000000  0.4265600000000 1.0
C      1  0.4534580000000  0.5918130000000  0.4842470000000 1.0
C      1  0.4319650000000  0.5285470000000  0.4618640000000 1.0
C      1  0.4571990000000  0.5609220000000  0.5632450000000 1.0
C      1  0.4792960000000  0.6497660000000  0.3842340000000 1.0
C      1  0.4580860000000  0.4084640000000  0.4488450000000 1.0
C      1  0.5729050000000  0.5334970000000  0.5171940000000 1.0
C      1  0.4659900000000  0.6057240000000  0.5059290000000 1.0
C      1  0.6039120000000  0.4911260000000  0.4729370000000 1.0
C      1  0.5403360000000  0.3863820000000  0.4744760000000 1.0
C      1  0.4914680000000  0.4936680000000  0.5248020000000 1.0
C      1  0.4886520000000  0.4672730000000  0.6061360000000 1.0
C      1  0.5731560000000  0.4262590000000  0.5460290000000 1.0
C      1  0.4226670000000  0.5233170000000  0.4883420000000 1.0
C      1  0.4548860000000  0.5966610000000  0.4551550000000 1.0
C      1  0.4532480000000  0.4790130000000  0.4174950000000 1.0
C      1  0.5221150000000  0.5349950000000  0.5318800000000 1.0
C      1  0.4776620000000  0.5026510000000  0.5671010000000 1.0
C      1  0.6080680000000  0.4478790000000  0.4843340000000 1.0
C      1  0.4684950000000  0.4881700000000  0.6120860000000 1.0
C      1  0.4289550000000  0.4880990000000  0.4294700000000 1.0
C      1  0.5252970000000  0.5236170000000  0.4549550000000 1.0
C      1  0.6007210000000  0.4603850000000  0.5102490000000 1.0
C      1  0.5515180000000  0.4977180000000  0.4951320000000 1.0
C      1  0.4305960000000  0.5344890000000  0.5323350000000 1.0
C      1  0.4397140000000  0.4587070000000  0.5814070000000 1.0
C      1  0.5603810000000  0.5574540000000  0.4209200000000 1.0
C      1  0.4333560000000  0.5457830000000  0.5575200000000 1.0
C      1  0.5561410000000  0.5140640000000  0.3906520000000 1.0
C      1  0.5249990000000  0.4718560000000  0.5542100000000 1.0
C      1  0.5042410000000  0.5182140000000  0.5151490000000 1.0
C      1  0.4386300000000  0.5043540000000  0.5300520000000 1.0
C      1  0.5838440000000  0.4037460000000  0.4833470000000 1.0
C      1  0.5040700000000  0.5091830000000  0.5762090000000 1.0
C      1  0.4770590000000  0.6268530000000  0.3964460000000 1.0
C      1  0.5471650000000  0.5460880000000  0.5235340000000 1.0
C      1  0.5908900000000  0.5506150000000  0.5030110000000 1.0
C      1  0.6273540000000  0.5252150000000  0.5849460000000 1.0
C      1  0.4803640000000  0.5582070000000  0.5458430000000 1.0
C      1  0.5392480000000  0.5163060000000  0.4779050000000 1.0
C      1  0.5435110000000  0.4245600000000  0.5044370000000 1.0
C      1  0.5090790000000  0.4867820000000  0.4284490000000 1.0
C      1  0.4266800000000  0.5470790000000  0.5061590000000 1.0
C      1  0.3993090000000  0.4694080000000  0.5186440000000 1.0
C      1  0.4813400000000  0.5394470000000  0.4731940000000 1.0
C      1  0.3993730000000  0.4413960000000  0.5277800000000 1.0
C      1  0.4179230000000  0.5348660000000  0.5786030000000 1.0
C      1  0.4684870000000  0.5315970000000  0.4095340000000 1.0
C      1  0.4040250000000  0.4545570000000  0.4679540000000 1.0
C      1  0.4333620000000  0.5845460000000  0.4399870000000 1.0
C      1  0.4373650000000  0.5021620000000  0.5001730000000 1.0
C      1  0.4466610000000  0.5334780000000  0.6176270000000 1.0
C      1  0.4533670000000  0.5557960000000  0.4042900000000 1.0
C      1  0.5286770000000  0.5064850000000  0.4326690000000 1.0
C      1  0.5088730000000  0.5368430000000  0.5780340000000 1.0
C      1  0.4637890000000  0.4630200000000  0.4893710000000 1.0
C      1  0.4930080000000  0.3924070000000  0.4817520000000 1.0
C      1  0.4644130000000  0.5032110000000  0.4049870000000 1.0
C      1  0.5570140000000  0.4491050000000  0.5087670000000 1.0
C      1  0.4575090000000  0.4886370000000  0.4871680000000 1.0
C      1  0.3970140000000  0.4707760000000  0.4904750000000 1.0
C      1  0.5470300000000  0.3806720000000  0.5323330000000 1.0
C      1  0.5194360000000  0.4237520000000  0.5189960000000 1.0
C      1  0.4567600000000  0.5724380000000  0.5891700000000 1.0
C      1  0.4787750000000  0.4010760000000  0.5048440000000 1.0
C      1  0.4582680000000  0.4373830000000  0.5851030000000 1.0
C      1  0.5972960000000  0.4895420000000  0.5020780000000 1.0
C      1  0.5803480000000  0.4461470000000  0.5251580000000 1.0
C      1  0.6017350000000  0.4644750000000  0.4612040000000 1.0
C      1  0.5262480000000  0.3724780000000  0.5162420000000 1.0
C      1  0.5537200000000  0.5742820000000  0.4426440000000 1.0
C      1  0.4540140000000  0.5464210000000  0.4680800000000 1.0
C      1  0.5018460000000  0.4191250000000  0.4365280000000 1.0
C      1  0.5043470000000  0.4691530000000  0.5328970000000 1.0
C      1  0.5427110000000  0.4649440000000  0.4050820000000 1.0
C      1  0.5001420000000  0.5979850000000  0.5777250000000 1.0
C      1  0.4906050000000  0.6076840000000  0.5540670000000 1.0
C      1  0.5067760000000  0.5486040000000  0.5528580000000 1.0
C      1  0.4259390000000  0.4368660000000  0.5383860000000 1.0
C      1  0.5305190000000  0.4465170000000  0.5670700000000 1.0
C      1  0.4321080000000  0.5648060000000  0.4211580000000 1.0
C      1  0.4922340000000  0.4425900000000  0.4210560000000 1.0
C      1  0.5299130000000  0.5895280000000  0.4418490000000 1.0
C      1  0.5486050000000  0.4882100000000  0.3892310000000 1.0
C      1  0.4687450000000  0.5784900000000  0.3958570000000 1.0
C      1  0.4298550000000  0.4421660000000  0.4675720000000 1.0
C      1  0.5663390000000  0.3986170000000  0.5398470000000 1.0
C      1  0.5389710000000  0.4406390000000  0.4571010000000 1.0
C      1  0.4878520000000  0.5369570000000  0.5004300000000 1.0
C      1  0.4963530000000  0.4367020000000  0.5357700000000 1.0
C      1  0.5050880000000  0.5980640000000  0.4467840000000 1.0
C      1  0.4783600000000  0.6012950000000  0.4387220000000 1.0
C      1  0.6037570000000  0.5408750000000  0.4581370000000 1.0
C      1  0.4928250000000  0.4830690000000  0.4511380000000 1.0
C      1  0.5746840000000  0.5060280000000  0.5093750000000 1.0
C      1  0.4432110000000  0.4794530000000  0.6005960000000 1.0
C      1  0.5292690000000  0.4208020000000  0.4420490000000 1.0
C      1  0.4939290000000  0.5333770000000  0.6219320000000 1.0
C      1  0.5175060000000  0.3785850000000  0.4890650000000 1.0
C      1  0.4445990000000  0.4427740000000  0.4925770000000 1.0
C      1  0.5451880000000  0.5726700000000  0.5132650000000 1.0
C      1  0.4857720000000  0.4438370000000  0.5882750000000 1.0
C      1  0.4785900000000  0.6099630000000  0.5297070000000 1.0
C      1  0.5896440000000  0.5579000000000  0.4753080000000 1.0
C      1  0.4747870000000  0.6025400000000  0.4098870000000 1.0
C      1  0.5672510000000  0.5740180000000  0.4678660000000 1.0
C      1  0.4429310000000  0.5653150000000  0.4890300000000 1.0
C      1  0.5655110000000  0.4564610000000  0.4207010000000 1.0
C      1  0.5465080000000  0.4702880000000  0.4939660000000 1.0
END
