TITL C-612601-4209-1453 0.620600880596602 125000 -811.069743604259 0 0 132 (C1) n - 1
REM
REM in /home/nfs/bkarasulu/CARBON/AIRSS/Generating-Clusters/TERSOFF/Only-C1/FIRE-HFTN
REM
REM
REM
REM
REM
REM ./C.cell (11c1c37f851c82e70ff6c80c92926a4b)
REM AIRSS Version 0.9.1 bugfix July 2018 build 013d7b7c2542+ Fri, 06 Jul 2018 19:26:36 +0100
REM compiler GCC version 9.2.1 20190827 (Red Hat 9.2.1-1)
REM options -cpp -mtune=generic -march=x86-64 -g -O0 -fpre-include=/usr/include/finclude/math-vector-fortran.h
REM seed 460286828 5641833 1672724332 72220783 88227233 -1219321962 1037873075 -2046979697 -89847317 -657106828 1925758460 1805536817 -608954481 1951653005 1208777051 -780718332 -1914727600 1331409229 -782941219 -997760259 1122723355 -2054529448 357727824 -1863349612 -392970529 -170766839 -588558572 1405047441 1100355580 1092456519 297677919 -272975303 -1021107683
REM
CELL 1.54180   50.00000   50.00000   50.00000   90.00000   90.00000   90.00000
LATT -1
SFAC C  
C      1  0.4992200000000  0.5314320000000  0.4051700000000 1.0
C      1  0.6036180000000  0.5451640000000  0.5143930000000 1.0
C      1  0.4978730000000  0.4318170000000  0.5329210000000 1.0
C      1  0.5145250000000  0.5113340000000  0.4434620000000 1.0
C      1  0.5616740000000  0.4128120000000  0.4583830000000 1.0
C      1  0.5720620000000  0.5694000000000  0.4457470000000 1.0
C      1  0.5371070000000  0.5970910000000  0.4960730000000 1.0
C      1  0.3776700000000  0.5512260000000  0.5107540000000 1.0
C      1  0.3901880000000  0.5538700000000  0.4436420000000 1.0
C      1  0.5412090000000  0.5470010000000  0.6287280000000 1.0
C      1  0.4769120000000  0.4490820000000  0.4950180000000 1.0
C      1  0.5419270000000  0.5187690000000  0.4410940000000 1.0
C      1  0.5081570000000  0.4085720000000  0.4490350000000 1.0
C      1  0.6085050000000  0.4939350000000  0.5138250000000 1.0
C      1  0.5793750000000  0.4921280000000  0.5122920000000 1.0
C      1  0.5038210000000  0.4723920000000  0.5624300000000 1.0
C      1  0.4900930000000  0.4774570000000  0.4200980000000 1.0
C      1  0.4928460000000  0.4282840000000  0.5053150000000 1.0
C      1  0.3869770000000  0.4625140000000  0.5693650000000 1.0
C      1  0.4514180000000  0.4177390000000  0.5296160000000 1.0
C      1  0.4566910000000  0.4676500000000  0.5063340000000 1.0
C      1  0.4473140000000  0.4248620000000  0.4540200000000 1.0
C      1  0.4214760000000  0.5707780000000  0.5069580000000 1.0
C      1  0.4651640000000  0.5496030000000  0.3435020000000 1.0
C      1  0.4681360000000  0.4590610000000  0.5897720000000 1.0
C      1  0.5481880000000  0.4409120000000  0.5196520000000 1.0
C      1  0.4997700000000  0.5088250000000  0.4666320000000 1.0
C      1  0.5285850000000  0.4617590000000  0.5556820000000 1.0
C      1  0.5067290000000  0.3843790000000  0.5188610000000 1.0
C      1  0.4487530000000  0.4061630000000  0.4756640000000 1.0
C      1  0.4975890000000  0.5453760000000  0.4966310000000 1.0
C      1  0.5281360000000  0.5031870000000  0.6002360000000 1.0
C      1  0.5237200000000  0.5477970000000  0.4091280000000 1.0
C      1  0.4605090000000  0.3599740000000  0.4620000000000 1.0
C      1  0.5227270000000  0.5213840000000  0.5795920000000 1.0
C      1  0.5214430000000  0.5301470000000  0.5029920000000 1.0
C      1  0.4071160000000  0.5484340000000  0.5492940000000 1.0
C      1  0.4863970000000  0.4945610000000  0.6207880000000 1.0
C      1  0.3442690000000  0.5445020000000  0.4408680000000 1.0
C      1  0.5820580000000  0.5397180000000  0.5620070000000 1.0
C      1  0.4346670000000  0.4715390000000  0.5491820000000 1.0
C      1  0.4697850000000  0.4875630000000  0.5983380000000 1.0
C      1  0.5857460000000  0.5550340000000  0.5378520000000 1.0
C      1  0.4820680000000  0.5271520000000  0.4801110000000 1.0
C      1  0.4164210000000  0.5585080000000  0.4526870000000 1.0
C      1  0.5706590000000  0.4734880000000  0.4918540000000 1.0
C      1  0.5165770000000  0.5057110000000  0.5166170000000 1.0
C      1  0.4675260000000  0.3853170000000  0.4689060000000 1.0
C      1  0.6159380000000  0.4676750000000  0.5231460000000 1.0
C      1  0.5732130000000  0.5506000000000  0.5866720000000 1.0
C      1  0.6179900000000  0.5204830000000  0.5151330000000 1.0
C      1  0.5990060000000  0.4550610000000  0.5431400000000 1.0
C      1  0.5210140000000  0.5306570000000  0.6368810000000 1.0
C      1  0.4684160000000  0.5819840000000  0.5125360000000 1.0
C      1  0.4618090000000  0.4771240000000  0.4606060000000 1.0
C      1  0.4695990000000  0.5461790000000  0.3693890000000 1.0
C      1  0.5545090000000  0.4732420000000  0.5505480000000 1.0
C      1  0.3651190000000  0.5477850000000  0.4875660000000 1.0
C      1  0.4944120000000  0.4298280000000  0.4340840000000 1.0
C      1  0.4986430000000  0.3902860000000  0.5705270000000 1.0
C      1  0.4346470000000  0.6093150000000  0.5332330000000 1.0
C      1  0.5044780000000  0.4839780000000  0.4789730000000 1.0
C      1  0.4563790000000  0.5564580000000  0.2916800000000 1.0
C      1  0.5275420000000  0.5726340000000  0.4236870000000 1.0
C      1  0.5351010000000  0.4518800000000  0.4679170000000 1.0
C      1  0.5833860000000  0.4596560000000  0.4694290000000 1.0
C      1  0.5247850000000  0.4388840000000  0.5380950000000 1.0
C      1  0.4842530000000  0.4807950000000  0.5440310000000 1.0
C      1  0.4724230000000  0.5241320000000  0.5382880000000 1.0
C      1  0.5026050000000  0.5394110000000  0.5713230000000 1.0
C      1  0.3538060000000  0.5475630000000  0.4149920000000 1.0
C      1  0.4943100000000  0.3949680000000  0.4705150000000 1.0
C      1  0.5827930000000  0.5113250000000  0.5592330000000 1.0
C      1  0.5368630000000  0.4061650000000  0.4495400000000 1.0
C      1  0.5224730000000  0.4825580000000  0.5008480000000 1.0
C      1  0.5091310000000  0.4546000000000  0.4262580000000 1.0
C      1  0.4153500000000  0.5339010000000  0.5700730000000 1.0
C      1  0.5431530000000  0.4611900000000  0.4962990000000 1.0
C      1  0.5620690000000  0.5530370000000  0.5006520000000 1.0
C      1  0.4997180000000  0.5051750000000  0.4193300000000 1.0
C      1  0.4209840000000  0.5667850000000  0.4790950000000 1.0
C      1  0.5446170000000  0.5349090000000  0.4886700000000 1.0
C      1  0.4657580000000  0.4376670000000  0.4362180000000 1.0
C      1  0.4732250000000  0.4335050000000  0.5760030000000 1.0
C      1  0.5130680000000  0.5747530000000  0.5323300000000 1.0
C      1  0.5480790000000  0.4840880000000  0.6031570000000 1.0
C      1  0.6041410000000  0.4671690000000  0.5688950000000 1.0
C      1  0.4600310000000  0.5113790000000  0.5838390000000 1.0
C      1  0.4415110000000  0.5877030000000  0.5179460000000 1.0
C      1  0.4020170000000  0.5574580000000  0.5232490000000 1.0
C      1  0.4648410000000  0.4677220000000  0.4334370000000 1.0
C      1  0.5050770000000  0.3813150000000  0.5457680000000 1.0
C      1  0.5614860000000  0.5669550000000  0.5254480000000 1.0
C      1  0.4927930000000  0.5684330000000  0.5125170000000 1.0
C      1  0.4856260000000  0.4646220000000  0.4732130000000 1.0
C      1  0.5566800000000  0.5277060000000  0.4631720000000 1.0
C      1  0.5804430000000  0.5464210000000  0.4610390000000 1.0
C      1  0.5097070000000  0.5633180000000  0.5579420000000 1.0
C      1  0.4764310000000  0.5282430000000  0.5665300000000 1.0
C      1  0.5010280000000  0.4021020000000  0.4971280000000 1.0
C      1  0.5886530000000  0.5506640000000  0.4892430000000 1.0
C      1  0.4582750000000  0.4725140000000  0.5343830000000 1.0
C      1  0.4607720000000  0.5530300000000  0.3175940000000 1.0
C      1  0.4554470000000  0.5497720000000  0.4157410000000 1.0
C      1  0.4574220000000  0.5163190000000  0.4916280000000 1.0
C      1  0.3658560000000  0.5482800000000  0.4598970000000 1.0
C      1  0.3809850000000  0.5531830000000  0.4159590000000 1.0
C      1  0.5993610000000  0.4935820000000  0.5744010000000 1.0
C      1  0.4722980000000  0.4288840000000  0.5469530000000 1.0
C      1  0.4500800000000  0.4888830000000  0.4851480000000 1.0
C      1  0.4379860000000  0.5546540000000  0.4351540000000 1.0
C      1  0.5375310000000  0.5943850000000  0.4690380000000 1.0
C      1  0.4928150000000  0.5047530000000  0.5316730000000 1.0
C      1  0.5595090000000  0.5527570000000  0.6097450000000 1.0
C      1  0.4746350000000  0.5425590000000  0.3965820000000 1.0
C      1  0.5623090000000  0.4645950000000  0.6130620000000 1.0
C      1  0.5671800000000  0.4968570000000  0.5394040000000 1.0
C      1  0.5798060000000  0.4308940000000  0.4677770000000 1.0
C      1  0.4105060000000  0.4668450000000  0.5590180000000 1.0
C      1  0.5703730000000  0.4507240000000  0.5376600000000 1.0
C      1  0.4528330000000  0.5260650000000  0.5181570000000 1.0
C      1  0.5580040000000  0.4691080000000  0.4293240000000 1.0
C      1  0.4870560000000  0.4099860000000  0.5855290000000 1.0
C      1  0.5111990000000  0.5079340000000  0.6229900000000 1.0
C      1  0.4328900000000  0.5191850000000  0.5839200000000 1.0
C      1  0.5339050000000  0.4585770000000  0.4398090000000 1.0
C      1  0.5382630000000  0.5841680000000  0.5220850000000 1.0
C      1  0.4520590000000  0.5598300000000  0.2661930000000 1.0
C      1  0.5455350000000  0.5812610000000  0.4448520000000 1.0
C      1  0.5459390000000  0.5305230000000  0.4155180000000 1.0
C      1  0.5808500000000  0.4720610000000  0.4438620000000 1.0
C      1  0.4437920000000  0.4109830000000  0.5039590000000 1.0
END
