TITL C-612607-4507-318 1.25272916187591 125000 -490.789756787816 0 0 81 (C1) n - 1
REM
REM in /home/nfs/bkarasulu/CARBON/AIRSS/Generating-Clusters/TERSOFF/Only-C1/FIRE-HFTN
REM
REM
REM
REM
REM
REM ./C.cell (11c1c37f851c82e70ff6c80c92926a4b)
REM AIRSS Version 0.9.1 bugfix July 2018 build 013d7b7c2542+ Fri, 06 Jul 2018 19:26:36 +0100
REM compiler GCC version 9.2.1 20190827 (Red Hat 9.2.1-1)
REM options -cpp -mtune=generic -march=x86-64 -g -O0 -fpre-include=/usr/include/finclude/math-vector-fortran.h
REM seed 1098254041 451323897 1462227943 -654966024 -428135453 872773875 1078689210 2103586628 1855577997 -368640162 -1518884958 1940940925 1638226004 742110938 1344172750 771954130 -140081770 -1235779531 -767083144 -2112486540 618558307 -1431439950 1287085288 -2142111075 1777492602 1729077471 -1322949051 245934082 1368812474 -452506120 -1125218628 -2102355768 -1298274213
REM
CELL 1.54180   50.00000   50.00000   50.00000   90.00000   90.00000   90.00000
LATT -1
SFAC C  
C      1  0.5624630000000  0.4667440000000  0.4800670000000 1.0
C      1  0.4642120000000  0.5239510000000  0.5008760000000 1.0
C      1  0.4069790000000  0.4756290000000  0.3779570000000 1.0
C      1  0.4406450000000  0.3873180000000  0.5028000000000 1.0
C      1  0.6923400000000  0.4857890000000  0.5645900000000 1.0
C      1  0.5006070000000  0.4423760000000  0.4228830000000 1.0
C      1  0.5528460000000  0.4397390000000  0.4815130000000 1.0
C      1  0.4456810000000  0.4196470000000  0.4687960000000 1.0
C      1  0.4900010000000  0.5617490000000  0.4687700000000 1.0
C      1  0.4408330000000  0.3638670000000  0.5516270000000 1.0
C      1  0.4409850000000  0.3530930000000  0.5753650000000 1.0
C      1  0.6403180000000  0.5002910000000  0.5574070000000 1.0
C      1  0.5232080000000  0.5444400000000  0.4296610000000 1.0
C      1  0.5459330000000  0.4740260000000  0.5246370000000 1.0
C      1  0.4407020000000  0.3750260000000  0.5276000000000 1.0
C      1  0.6656110000000  0.4932410000000  0.5609000000000 1.0
C      1  0.5630440000000  0.5197940000000  0.5448100000000 1.0
C      1  0.4714310000000  0.4570760000000  0.5021360000000 1.0
C      1  0.4376440000000  0.4725300000000  0.4225290000000 1.0
C      1  0.4757380000000  0.5736810000000  0.5653340000000 1.0
C      1  0.4335700000000  0.3743790000000  0.4776560000000 1.0
C      1  0.5896630000000  0.5139460000000  0.5500180000000 1.0
C      1  0.5238310000000  0.4779040000000  0.4485120000000 1.0
C      1  0.5506070000000  0.5444150000000  0.5527970000000 1.0
C      1  0.5418840000000  0.5722890000000  0.5092260000000 1.0
C      1  0.5038920000000  0.5261310000000  0.4389750000000 1.0
C      1  0.4675230000000  0.5173420000000  0.4735590000000 1.0
C      1  0.4471070000000  0.4373680000000  0.5400820000000 1.0
C      1  0.7104690000000  0.4900120000000  0.5445080000000 1.0
C      1  0.4666440000000  0.5029450000000  0.5454370000000 1.0
C      1  0.4812230000000  0.5901960000000  0.5430370000000 1.0
C      1  0.4477190000000  0.4147720000000  0.4974440000000 1.0
C      1  0.4368850000000  0.3948100000000  0.4575320000000 1.0
C      1  0.4529310000000  0.4444120000000  0.4582110000000 1.0
C      1  0.4933390000000  0.5822850000000  0.4881250000000 1.0
C      1  0.5451980000000  0.5020390000000  0.5309540000000 1.0
C      1  0.4608030000000  0.5936930000000  0.5232830000000 1.0
C      1  0.4748280000000  0.4407650000000  0.4154320000000 1.0
C      1  0.4342440000000  0.5517300000000  0.5617300000000 1.0
C      1  0.4514310000000  0.5098480000000  0.5219510000000 1.0
C      1  0.3923670000000  0.4768820000000  0.3564030000000 1.0
C      1  0.5285250000000  0.5156260000000  0.5120120000000 1.0
C      1  0.5575130000000  0.5682250000000  0.4865730000000 1.0
C      1  0.5489720000000  0.5690150000000  0.5379570000000 1.0
C      1  0.4852890000000  0.5352310000000  0.4587920000000 1.0
C      1  0.7000670000000  0.4743560000000  0.5882400000000 1.0
C      1  0.5080030000000  0.5935420000000  0.5344080000000 1.0
C      1  0.4249690000000  0.6121260000000  0.4849520000000 1.0
C      1  0.4156670000000  0.6032470000000  0.5089110000000 1.0
C      1  0.5041870000000  0.5308020000000  0.5530560000000 1.0
C      1  0.4856890000000  0.5392380000000  0.5102830000000 1.0
C      1  0.5078900000000  0.5304110000000  0.5243050000000 1.0
C      1  0.4232780000000  0.5705310000000  0.5457700000000 1.0
C      1  0.6150090000000  0.5073000000000  0.5538740000000 1.0
C      1  0.5266190000000  0.5391240000000  0.5676760000000 1.0
C      1  0.4554770000000  0.4360190000000  0.5140720000000 1.0
C      1  0.5126260000000  0.4516060000000  0.4464990000000 1.0
C      1  0.4696670000000  0.5965640000000  0.4956650000000 1.0
C      1  0.5344780000000  0.5079280000000  0.4853110000000 1.0
C      1  0.5693370000000  0.4713260000000  0.5075390000000 1.0
C      1  0.5428780000000  0.4856750000000  0.4689000000000 1.0
C      1  0.4323400000000  0.5901470000000  0.5277840000000 1.0
C      1  0.4619340000000  0.4660820000000  0.4759480000000 1.0
C      1  0.5448530000000  0.5574970000000  0.4382980000000 1.0
C      1  0.4934930000000  0.4658540000000  0.5191890000000 1.0
C      1  0.4511440000000  0.6090370000000  0.4782770000000 1.0
C      1  0.4842660000000  0.4808380000000  0.5415700000000 1.0
C      1  0.4524320000000  0.4494530000000  0.4299720000000 1.0
C      1  0.5100270000000  0.4989810000000  0.4359550000000 1.0
C      1  0.5215260000000  0.4582330000000  0.5150540000000 1.0
C      1  0.5582460000000  0.5648370000000  0.4601580000000 1.0
C      1  0.4770520000000  0.5254720000000  0.5603940000000 1.0
C      1  0.4618290000000  0.5487650000000  0.5669850000000 1.0
C      1  0.5263560000000  0.4390070000000  0.4928190000000 1.0
C      1  0.4218500000000  0.4743280000000  0.3998440000000 1.0
C      1  0.5317240000000  0.5894290000000  0.5501570000000 1.0
C      1  0.4571280000000  0.4926380000000  0.4647910000000 1.0
C      1  0.5149750000000  0.5841850000000  0.5069890000000 1.0
C      1  0.4409750000000  0.4932510000000  0.4413360000000 1.0
C      1  0.4255930000000  0.3487640000000  0.4738460000000 1.0
C      1  0.5087430000000  0.4371400000000  0.4707070000000 1.0
END
