TITL C-612600-6631-265 3.30023179492243e-06 125000 -49.2686726929097 0 0 10 (C1) n - 1
REM
REM in /home/nfs/bkarasulu/CARBON/AIRSS/Generating-Clusters/TERSOFF/Only-C1/FIRE-HFTN
REM
REM
REM
REM
REM
REM ./C.cell (11c1c37f851c82e70ff6c80c92926a4b)
REM AIRSS Version 0.9.1 bugfix July 2018 build 013d7b7c2542+ Fri, 06 Jul 2018 19:26:36 +0100
REM compiler GCC version 9.2.1 20190827 (Red Hat 9.2.1-1)
REM options -cpp -mtune=generic -march=x86-64 -g -O0 -fpre-include=/usr/include/finclude/math-vector-fortran.h
REM seed 1737980665 1044565130 -1412896625 820164411 -2120447924 1449154876 -154804885 -675936323 1332428641 1182927131 -1853212312 -1444870447 -1176122514 2084785634 1763228885 -965901801 -1059105271 -1379521097 304968343 595856194 1545137976 75846231 783042006 -1837229420 1809645707 1000513337 1701973696 -1618321656 1297292062 -1378980761 -602231426 1806507670 1356446725
REM
CELL 1.54180   50.00000   50.00000   50.00000   90.00000   90.00000   90.00000
LATT -1
SFAC C  
C      1  0.4805820000000  0.5332950000000  0.4721980000000 1.0
C      1  0.5025770000000  0.5280950000000  0.4876680000000 1.0
C      1  0.4932370000000  0.5103230000000  0.5322010000000 1.0
C      1  0.4850330000000  0.5139810000000  0.5566640000000 1.0
C      1  0.5102920000000  0.4805470000000  0.4974570000000 1.0
C      1  0.5251280000000  0.5435210000000  0.4857700000000 1.0
C      1  0.5363900000000  0.4728400000000  0.5002890000000 1.0
C      1  0.5019850000000  0.5063530000000  0.5059830000000 1.0
C      1  0.4733320000000  0.4477970000000  0.4755830000000 1.0
C      1  0.4914440000000  0.4632480000000  0.4861860000000 1.0
END
