TITL C-612601-4209-1361 -8.45236835475966 125000 -627.860819975473 0 0 104 (C1) n - 1
REM
REM in /home/nfs/bkarasulu/CARBON/AIRSS/Generating-Clusters/TERSOFF/Only-C1/FIRE-HFTN
REM
REM
REM
REM
REM
REM ./C.cell (11c1c37f851c82e70ff6c80c92926a4b)
REM AIRSS Version 0.9.1 bugfix July 2018 build 013d7b7c2542+ Fri, 06 Jul 2018 19:26:36 +0100
REM compiler GCC version 9.2.1 20190827 (Red Hat 9.2.1-1)
REM options -cpp -mtune=generic -march=x86-64 -g -O0 -fpre-include=/usr/include/finclude/math-vector-fortran.h
REM seed 885092212 -462659157 1454247548 1987029917 672807789 814755007 1160872313 362330061 724008779 261216551 -944725016 1166531253 -1016849159 1153207862 1270483239 587476970 -747386132 116705731 1112597930 703121798 1954029588 596505124 -1712249074 -787959185 -1714799207 -929091197 -1741830441 -160408271 -717507820 355137328 -65437161 -366915416 47798955
REM
CELL 1.54180   50.00000   50.00000   50.00000   90.00000   90.00000   90.00000
LATT -1
SFAC C  
C      1  0.4615590000000  0.4909750000000  0.4057050000000 1.0
C      1  0.5814040000000  0.5698340000000  0.4794470000000 1.0
C      1  0.5395910000000  0.5201690000000  0.5922060000000 1.0
C      1  0.4262490000000  0.4947100000000  0.4386210000000 1.0
C      1  0.5783650000000  0.4599410000000  0.4643050000000 1.0
C      1  0.5382710000000  0.4467310000000  0.4425110000000 1.0
C      1  0.5394460000000  0.5533690000000  0.4656790000000 1.0
C      1  0.4713320000000  0.5641730000000  0.4318250000000 1.0
C      1  0.4175820000000  0.4783190000000  0.5921800000000 1.0
C      1  0.4748830000000  0.5653680000000  0.4594300000000 1.0
C      1  0.4900870000000  0.4457340000000  0.4091740000000 1.0
C      1  0.4237640000000  0.4227160000000  0.4478060000000 1.0
C      1  0.5088580000000  0.5057810000000  0.4331440000000 1.0
C      1  0.5195660000000  0.5329280000000  0.4707440000000 1.0
C      1  0.4882130000000  0.5229220000000  0.5517640000000 1.0
C      1  0.4604690000000  0.5197900000000  0.4168500000000 1.0
C      1  0.5066670000000  0.4290840000000  0.5101560000000 1.0
C      1  0.4106190000000  0.4566040000000  0.6062260000000 1.0
C      1  0.5609430000000  0.4636570000000  0.4411720000000 1.0
C      1  0.4855920000000  0.4737700000000  0.4025010000000 1.0
C      1  0.5286160000000  0.4519430000000  0.5782060000000 1.0
C      1  0.5235690000000  0.5941920000000  0.5274760000000 1.0
C      1  0.4925160000000  0.5237450000000  0.5240610000000 1.0
C      1  0.4814560000000  0.4658050000000  0.4783140000000 1.0
C      1  0.5102710000000  0.5790470000000  0.5518000000000 1.0
C      1  0.5756340000000  0.5483250000000  0.5778310000000 1.0
C      1  0.5039660000000  0.4440420000000  0.5653470000000 1.0
C      1  0.4294540000000  0.4789290000000  0.4874820000000 1.0
C      1  0.4886210000000  0.5882790000000  0.4963800000000 1.0
C      1  0.4156300000000  0.4946570000000  0.5069360000000 1.0
C      1  0.4255780000000  0.5205460000000  0.5145740000000 1.0
C      1  0.5494950000000  0.5074520000000  0.4096480000000 1.0
C      1  0.5473230000000  0.5444120000000  0.5772360000000 1.0
C      1  0.5227260000000  0.4909720000000  0.5514220000000 1.0
C      1  0.4489500000000  0.5264250000000  0.4698380000000 1.0
C      1  0.6336060000000  0.4019810000000  0.4704880000000 1.0
C      1  0.5043040000000  0.6067060000000  0.5103250000000 1.0
C      1  0.4632560000000  0.4729880000000  0.5781100000000 1.0
C      1  0.4222850000000  0.4337720000000  0.6141210000000 1.0
C      1  0.4759660000000  0.5451190000000  0.5645800000000 1.0
C      1  0.4809240000000  0.5700100000000  0.5506500000000 1.0
C      1  0.5635100000000  0.4904190000000  0.4290460000000 1.0
C      1  0.4741730000000  0.5129740000000  0.4762610000000 1.0
C      1  0.3713930000000  0.4750930000000  0.5308900000000 1.0
C      1  0.4376810000000  0.5391160000000  0.4949020000000 1.0
C      1  0.5714540000000  0.5095150000000  0.4498300000000 1.0
C      1  0.4566720000000  0.4702760000000  0.4933450000000 1.0
C      1  0.4598030000000  0.5726260000000  0.5298250000000 1.0
C      1  0.4802820000000  0.4643220000000  0.5322170000000 1.0
C      1  0.4465040000000  0.4227670000000  0.6106240000000 1.0
C      1  0.4713820000000  0.4140440000000  0.4402890000000 1.0
C      1  0.4490200000000  0.4314760000000  0.4425480000000 1.0
C      1  0.5477380000000  0.5466150000000  0.4384540000000 1.0
C      1  0.4785370000000  0.5078780000000  0.5056670000000 1.0
C      1  0.5432600000000  0.5746880000000  0.5134830000000 1.0
C      1  0.5344450000000  0.4782900000000  0.5314290000000 1.0
C      1  0.4176100000000  0.4819260000000  0.4620800000000 1.0
C      1  0.5929640000000  0.5282880000000  0.5842400000000 1.0
C      1  0.6156720000000  0.4207410000000  0.4680240000000 1.0
C      1  0.4489910000000  0.5656030000000  0.5029950000000 1.0
C      1  0.5974700000000  0.4398470000000  0.4656880000000 1.0
C      1  0.4947500000000  0.4284180000000  0.4324600000000 1.0
C      1  0.5107520000000  0.5430720000000  0.5160270000000 1.0
C      1  0.4413720000000  0.4770710000000  0.4218140000000 1.0
C      1  0.4269890000000  0.5228610000000  0.5427620000000 1.0
C      1  0.4708040000000  0.3872100000000  0.4446660000000 1.0
C      1  0.4985980000000  0.4423480000000  0.5358680000000 1.0
C      1  0.3922440000000  0.4846990000000  0.5185570000000 1.0
C      1  0.5065070000000  0.5430930000000  0.4063520000000 1.0
C      1  0.5736380000000  0.4793180000000  0.4850270000000 1.0
C      1  0.4794670000000  0.4491830000000  0.5808330000000 1.0
C      1  0.5357740000000  0.5499160000000  0.5286430000000 1.0
C      1  0.5123420000000  0.5135350000000  0.5916800000000 1.0
C      1  0.4679290000000  0.4829930000000  0.5161300000000 1.0
C      1  0.5911730000000  0.5547120000000  0.4587750000000 1.0
C      1  0.4532480000000  0.5373700000000  0.5792140000000 1.0
C      1  0.5276050000000  0.4701800000000  0.5071020000000 1.0
C      1  0.5570970000000  0.4965330000000  0.5929920000000 1.0
C      1  0.5587320000000  0.5016750000000  0.4747890000000 1.0
C      1  0.6005750000000  0.4776460000000  0.5314740000000 1.0
C      1  0.5117280000000  0.4272950000000  0.4823800000000 1.0
C      1  0.4775550000000  0.4724040000000  0.4516680000000 1.0
C      1  0.4875330000000  0.5001900000000  0.4519900000000 1.0
C      1  0.4556470000000  0.4588180000000  0.4384890000000 1.0
C      1  0.5281860000000  0.5279670000000  0.4216730000000 1.0
C      1  0.4961650000000  0.5493140000000  0.4718810000000 1.0
C      1  0.4374660000000  0.5163350000000  0.5682870000000 1.0
C      1  0.5752450000000  0.5369540000000  0.4432400000000 1.0
C      1  0.4397460000000  0.4896280000000  0.5788430000000 1.0
C      1  0.5846180000000  0.5033580000000  0.5914030000000 1.0
C      1  0.5154700000000  0.4328300000000  0.4528550000000 1.0
C      1  0.4690930000000  0.4291230000000  0.5976990000000 1.0
C      1  0.5458720000000  0.4702880000000  0.5888530000000 1.0
C      1  0.5083930000000  0.4878760000000  0.4103620000000 1.0
C      1  0.5290910000000  0.5057180000000  0.4767040000000 1.0
C      1  0.4636660000000  0.5809450000000  0.4820560000000 1.0
C      1  0.4411690000000  0.5200350000000  0.4416060000000 1.0
C      1  0.5003550000000  0.5616970000000  0.4976210000000 1.0
C      1  0.5536320000000  0.5689460000000  0.4864580000000 1.0
C      1  0.4782990000000  0.5429790000000  0.4140970000000 1.0
C      1  0.5038930000000  0.5053600000000  0.5662890000000 1.0
C      1  0.5312770000000  0.5571960000000  0.5568410000000 1.0
C      1  0.5138810000000  0.4816660000000  0.4857030000000 1.0
C      1  0.5862600000000  0.4788170000000  0.5097280000000 1.0
END
