TITL C-612605-9286-141 0.0220269898140133 125000 -533.594003525674 0 0 89 (C1) n - 1
REM
REM in /home/nfs/bkarasulu/CARBON/AIRSS/Generating-Clusters/TERSOFF/Only-C1/FIRE-HFTN
REM
REM
REM
REM
REM
REM ./C.cell (11c1c37f851c82e70ff6c80c92926a4b)
REM AIRSS Version 0.9.1 bugfix July 2018 build 013d7b7c2542+ Fri, 06 Jul 2018 19:26:36 +0100
REM compiler GCC version 9.2.1 20190827 (Red Hat 9.2.1-1)
REM options -cpp -mtune=generic -march=x86-64 -g -O0 -fpre-include=/usr/include/finclude/math-vector-fortran.h
REM seed -131145707 -499693460 397903824 145925504 -2047490907 166192802 -2019775909 1526645839 591694452 -1070445372 -693527955 1420374738 1624377222 -881219720 337278632 2062022274 -1161599513 590754966 268857259 1870310940 1104886361 396178506 1107838673 1581182261 -330182974 937237663 -1622971778 1388231937 -1796797809 -2096315242 -559586665 1356311630 -1538825768
REM
CELL 1.54180   50.00000   50.00000   50.00000   90.00000   90.00000   90.00000
LATT -1
SFAC C  
C      1  0.5385920000000  0.5595210000000  0.5449330000000 1.0
C      1  0.4351940000000  0.4975250000000  0.5573960000000 1.0
C      1  0.4216140000000  0.5326400000000  0.5192540000000 1.0
C      1  0.5128390000000  0.4221460000000  0.5515060000000 1.0
C      1  0.4940420000000  0.5415790000000  0.5309140000000 1.0
C      1  0.4582220000000  0.5462790000000  0.5616310000000 1.0
C      1  0.5476180000000  0.5161200000000  0.4208400000000 1.0
C      1  0.5471410000000  0.4896920000000  0.4326210000000 1.0
C      1  0.4922010000000  0.4529150000000  0.5791310000000 1.0
C      1  0.5137200000000  0.4627510000000  0.4899600000000 1.0
C      1  0.5195580000000  0.5341220000000  0.5869470000000 1.0
C      1  0.4835080000000  0.5008970000000  0.5638670000000 1.0
C      1  0.5173020000000  0.4276710000000  0.4601660000000 1.0
C      1  0.4890810000000  0.4959310000000  0.4714350000000 1.0
C      1  0.5317390000000  0.5831530000000  0.5258170000000 1.0
C      1  0.5311420000000  0.4864590000000  0.5830300000000 1.0
C      1  0.5393540000000  0.5227060000000  0.3958110000000 1.0
C      1  0.5081290000000  0.5162360000000  0.5409100000000 1.0
C      1  0.4671710000000  0.5344220000000  0.4908490000000 1.0
C      1  0.5126740000000  0.5806900000000  0.5031620000000 1.0
C      1  0.5390670000000  0.4476910000000  0.4536910000000 1.0
C      1  0.5614010000000  0.5340320000000  0.4393170000000 1.0
C      1  0.5711020000000  0.4887690000000  0.5488030000000 1.0
C      1  0.4306850000000  0.5281350000000  0.4565320000000 1.0
C      1  0.4448720000000  0.5456060000000  0.5338440000000 1.0
C      1  0.5910040000000  0.5190480000000  0.4822010000000 1.0
C      1  0.4884640000000  0.5555520000000  0.5573880000000 1.0
C      1  0.5117410000000  0.5070080000000  0.5848020000000 1.0
C      1  0.4647540000000  0.5042940000000  0.4835300000000 1.0
C      1  0.5782070000000  0.5006160000000  0.5015060000000 1.0
C      1  0.5303260000000  0.4666550000000  0.4323000000000 1.0
C      1  0.4540270000000  0.5596800000000  0.4810030000000 1.0
C      1  0.4737200000000  0.4430660000000  0.5129900000000 1.0
C      1  0.4486350000000  0.5518220000000  0.4537150000000 1.0
C      1  0.5505060000000  0.5520700000000  0.4816820000000 1.0
C      1  0.5289700000000  0.4480850000000  0.5487190000000 1.0
C      1  0.5166940000000  0.5551320000000  0.5676680000000 1.0
C      1  0.4158200000000  0.4910710000000  0.4869220000000 1.0
C      1  0.4276060000000  0.4472400000000  0.5039150000000 1.0
C      1  0.4920070000000  0.4256550000000  0.5694000000000 1.0
C      1  0.4841580000000  0.5095730000000  0.4151440000000 1.0
C      1  0.5244190000000  0.5681840000000  0.4444990000000 1.0
C      1  0.4515540000000  0.4804080000000  0.4371500000000 1.0
C      1  0.4743250000000  0.4720600000000  0.5679300000000 1.0
C      1  0.5214180000000  0.4604360000000  0.5773370000000 1.0
C      1  0.4824070000000  0.5357380000000  0.4213810000000 1.0
C      1  0.4485580000000  0.4688780000000  0.5527350000000 1.0
C      1  0.4242110000000  0.4636660000000  0.4774590000000 1.0
C      1  0.5237350000000  0.3892220000000  0.4941490000000 1.0
C      1  0.5555860000000  0.5360610000000  0.5299470000000 1.0
C      1  0.4780090000000  0.4826420000000  0.4227150000000 1.0
C      1  0.5475900000000  0.4343180000000  0.5019050000000 1.0
C      1  0.4678690000000  0.5322870000000  0.5201880000000 1.0
C      1  0.5204250000000  0.4978290000000  0.5249830000000 1.0
C      1  0.5093840000000  0.5142340000000  0.4788350000000 1.0
C      1  0.5662770000000  0.4912560000000  0.4551360000000 1.0
C      1  0.4965450000000  0.5387700000000  0.4842520000000 1.0
C      1  0.5000960000000  0.4625900000000  0.4260550000000 1.0
C      1  0.4688050000000  0.5032810000000  0.5284180000000 1.0
C      1  0.4973590000000  0.5736010000000  0.4524760000000 1.0
C      1  0.5637180000000  0.4809640000000  0.4826100000000 1.0
C      1  0.5796150000000  0.5179660000000  0.4557740000000 1.0
C      1  0.5051670000000  0.5534360000000  0.5068180000000 1.0
C      1  0.5532660000000  0.4430360000000  0.5302500000000 1.0
C      1  0.4274130000000  0.4894940000000  0.5130780000000 1.0
C      1  0.4676780000000  0.4285520000000  0.4884700000000 1.0
C      1  0.4443730000000  0.4588700000000  0.4562100000000 1.0
C      1  0.5152220000000  0.4702050000000  0.5325750000000 1.0
C      1  0.4992040000000  0.4565460000000  0.5135850000000 1.0
C      1  0.4663110000000  0.5847480000000  0.4864440000000 1.0
C      1  0.5471630000000  0.5541550000000  0.4536070000000 1.0
C      1  0.5573150000000  0.4919590000000  0.5733660000000 1.0
C      1  0.4179610000000  0.5211680000000  0.4835750000000 1.0
C      1  0.5452980000000  0.5341450000000  0.5026210000000 1.0
C      1  0.4968620000000  0.4698870000000  0.4701110000000 1.0
C      1  0.4483580000000  0.4509330000000  0.5269690000000 1.0
C      1  0.4650410000000  0.4386080000000  0.4615840000000 1.0
C      1  0.4363870000000  0.5050670000000  0.4398210000000 1.0
C      1  0.4945960000000  0.5874250000000  0.4797100000000 1.0
C      1  0.5721710000000  0.5102110000000  0.5296470000000 1.0
C      1  0.4561460000000  0.5171190000000  0.5698910000000 1.0
C      1  0.4556860000000  0.4908970000000  0.5077250000000 1.0
C      1  0.5736460000000  0.4619600000000  0.5382370000000 1.0
C      1  0.5438560000000  0.4586210000000  0.4833480000000 1.0
C      1  0.4750260000000  0.5563630000000  0.4398810000000 1.0
C      1  0.4195620000000  0.5068470000000  0.5339880000000 1.0
C      1  0.5290070000000  0.4146220000000  0.4863760000000 1.0
C      1  0.5286150000000  0.5103240000000  0.4995700000000 1.0
C      1  0.4921550000000  0.4461560000000  0.4513530000000 1.0
END
