TITL C-612605-9286-855 0.168272788380453 125000 -408.694686829343 0 0 68 (C1) n - 1
REM
REM in /home/nfs/bkarasulu/CARBON/AIRSS/Generating-Clusters/TERSOFF/Only-C1/FIRE-HFTN
REM
REM
REM
REM
REM
REM ./C.cell (11c1c37f851c82e70ff6c80c92926a4b)
REM AIRSS Version 0.9.1 bugfix July 2018 build 013d7b7c2542+ Fri, 06 Jul 2018 19:26:36 +0100
REM compiler GCC version 9.2.1 20190827 (Red Hat 9.2.1-1)
REM options -cpp -mtune=generic -march=x86-64 -g -O0 -fpre-include=/usr/include/finclude/math-vector-fortran.h
REM seed -882300170 -1130070847 1501151203 -436143266 -1422737464 1728606905 183033347 1367044356 -1669131507 1253792527 2083122936 640304182 749552778 602108427 709217441 564188728 1378356848 1879476973 -728948652 1431578152 1680392005 476700315 -1218601090 -906356519 -1604678297 413198866 625721811 -288987909 308600923 -518821392 1783675719 1169876503 -892317517
REM
CELL 1.54180   50.00000   50.00000   50.00000   90.00000   90.00000   90.00000
LATT -1
SFAC C  
C      1  0.4553600000000  0.4782580000000  0.4143480000000 1.0
C      1  0.4486190000000  0.5415870000000  0.4487350000000 1.0
C      1  0.5588840000000  0.4559670000000  0.5580800000000 1.0
C      1  0.4892480000000  0.6159280000000  0.5071320000000 1.0
C      1  0.4417070000000  0.4324460000000  0.4204110000000 1.0
C      1  0.5316950000000  0.4281720000000  0.4993910000000 1.0
C      1  0.5561170000000  0.4832280000000  0.5513800000000 1.0
C      1  0.5131780000000  0.4466770000000  0.4574510000000 1.0
C      1  0.5553010000000  0.5162990000000  0.4714720000000 1.0
C      1  0.4860790000000  0.4433720000000  0.4665710000000 1.0
C      1  0.4615980000000  0.4561390000000  0.4576770000000 1.0
C      1  0.5303330000000  0.4924200000000  0.5447950000000 1.0
C      1  0.5867800000000  0.4721320000000  0.4973980000000 1.0
C      1  0.4451530000000  0.5209700000000  0.5140640000000 1.0
C      1  0.4961720000000  0.5062160000000  0.4185860000000 1.0
C      1  0.5046010000000  0.5574970000000  0.5461830000000 1.0
C      1  0.4372230000000  0.5488510000000  0.5155240000000 1.0
C      1  0.4706500000000  0.4996420000000  0.4087300000000 1.0
C      1  0.4443640000000  0.4677270000000  0.4775670000000 1.0
C      1  0.5271700000000  0.5216890000000  0.4750500000000 1.0
C      1  0.5034160000000  0.5296460000000  0.4325300000000 1.0
C      1  0.5621200000000  0.4970460000000  0.4519660000000 1.0
C      1  0.4577170000000  0.4272220000000  0.5033040000000 1.0
C      1  0.5085930000000  0.5379360000000  0.4591320000000 1.0
C      1  0.5536530000000  0.4716650000000  0.4432880000000 1.0
C      1  0.4942500000000  0.5632290000000  0.5204090000000 1.0
C      1  0.5328810000000  0.4295000000000  0.4707180000000 1.0
C      1  0.4597950000000  0.5596430000000  0.4677730000000 1.0
C      1  0.4585230000000  0.5614370000000  0.5604870000000 1.0
C      1  0.4731320000000  0.4513650000000  0.5396540000000 1.0
C      1  0.5675670000000  0.5430680000000  0.5110230000000 1.0
C      1  0.5685270000000  0.4475820000000  0.4441440000000 1.0
C      1  0.4530440000000  0.5152480000000  0.4539990000000 1.0
C      1  0.4835000000000  0.4282280000000  0.4912050000000 1.0
C      1  0.5558580000000  0.4335420000000  0.5136260000000 1.0
C      1  0.5015730000000  0.5479920000000  0.6185350000000 1.0
C      1  0.4522510000000  0.4498360000000  0.5204250000000 1.0
C      1  0.4924190000000  0.5903770000000  0.5133600000000 1.0
C      1  0.4882560000000  0.5527050000000  0.4737660000000 1.0
C      1  0.4868290000000  0.5436230000000  0.5015840000000 1.0
C      1  0.5818730000000  0.4971560000000  0.5092910000000 1.0
C      1  0.5082090000000  0.4244410000000  0.5596190000000 1.0
C      1  0.5170060000000  0.5070510000000  0.4971870000000 1.0
C      1  0.4856280000000  0.5571810000000  0.5674360000000 1.0
C      1  0.5572040000000  0.4260480000000  0.4564190000000 1.0
C      1  0.4855870000000  0.6409010000000  0.5006130000000 1.0
C      1  0.5714170000000  0.5199280000000  0.4952370000000 1.0
C      1  0.5767280000000  0.4474130000000  0.5003530000000 1.0
C      1  0.4313300000000  0.4961520000000  0.5177220000000 1.0
C      1  0.5098680000000  0.5432850000000  0.6427970000000 1.0
C      1  0.5053650000000  0.4289890000000  0.5104090000000 1.0
C      1  0.4079870000000  0.4954400000000  0.5330450000000 1.0
C      1  0.5573810000000  0.4345170000000  0.5417780000000 1.0
C      1  0.4527200000000  0.4553590000000  0.4305450000000 1.0
C      1  0.5544050000000  0.5531710000000  0.5320120000000 1.0
C      1  0.5251560000000  0.4670870000000  0.4409440000000 1.0
C      1  0.4426640000000  0.5638760000000  0.4911590000000 1.0
C      1  0.4972690000000  0.4358930000000  0.5373480000000 1.0
C      1  0.4702980000000  0.5194410000000  0.5007770000000 1.0
C      1  0.5170840000000  0.4985760000000  0.5224460000000 1.0
C      1  0.4399490000000  0.5604280000000  0.5411020000000 1.0
C      1  0.5325560000000  0.5553920000000  0.5473030000000 1.0
C      1  0.3864200000000  0.4953330000000  0.5476720000000 1.0
C      1  0.4679230000000  0.5067520000000  0.4752260000000 1.0
C      1  0.5772840000000  0.4958950000000  0.5374110000000 1.0
C      1  0.4411130000000  0.4717570000000  0.5058000000000 1.0
C      1  0.5121530000000  0.4837270000000  0.4230620000000 1.0
C      1  0.4932900000000  0.5527060000000  0.5938150000000 1.0
END
