TITL C-612607-4507-835 0.00353302529971905 125000 -75.5610832414255 0 0 14 (Cs) n - 1
REM
REM in /home/nfs/bkarasulu/CARBON/AIRSS/Generating-Clusters/TERSOFF/Only-C1/FIRE-HFTN
REM
REM
REM
REM
REM
REM ./C.cell (11c1c37f851c82e70ff6c80c92926a4b)
REM AIRSS Version 0.9.1 bugfix July 2018 build 013d7b7c2542+ Fri, 06 Jul 2018 19:26:36 +0100
REM compiler GCC version 9.2.1 20190827 (Red Hat 9.2.1-1)
REM options -cpp -mtune=generic -march=x86-64 -g -O0 -fpre-include=/usr/include/finclude/math-vector-fortran.h
REM seed 1718880781 1498740409 717380154 1601196210 379943632 -953618477 516313408 -1538449241 -1867252906 1695985841 1855266507 1304719877 236196590 25289650 -664083858 -1460387948 -763262282 -851471188 -1829297014 279489928 -386552018 280619323 -495589244 -2127255621 1278883037 1569304383 680977141 120385716 40657864 1368092149 795781149 1203930928 -109032167
REM
CELL 1.54180   50.00000   50.00000   50.00000   90.00000   90.00000   90.00000
LATT -1
SFAC C  
C      1  0.4991310000000  0.4871910000000  0.4985230000000 1.0
C      1  0.5075500000000  0.4803690000000  0.4727750000000 1.0
C      1  0.4991700000000  0.5147180000000  0.5068360000000 1.0
C      1  0.4904080000000  0.5202230000000  0.5331450000000 1.0
C      1  0.4822090000000  0.4752880000000  0.5424350000000 1.0
C      1  0.4733360000000  0.5083280000000  0.5774810000000 1.0
C      1  0.5236580000000  0.5713690000000  0.4553540000000 1.0
C      1  0.5157310000000  0.4750260000000  0.4481500000000 1.0
C      1  0.5074460000000  0.5351630000000  0.4898360000000 1.0
C      1  0.4900140000000  0.4403220000000  0.5098010000000 1.0
C      1  0.4904170000000  0.4667360000000  0.5167510000000 1.0
C      1  0.5155850000000  0.5535550000000  0.4725900000000 1.0
C      1  0.5238270000000  0.4700530000000  0.4238740000000 1.0
C      1  0.4815180000000  0.5016600000000  0.5524480000000 1.0
END
