TITL C-612601-4209-972 1.77503957881414e-05 125000 -968.363073443817 0 0 155 (C1) n - 1
REM
REM in /home/nfs/bkarasulu/CARBON/AIRSS/Generating-Clusters/TERSOFF/Only-C1/FIRE-HFTN
REM
REM
REM
REM
REM
REM ./C.cell (11c1c37f851c82e70ff6c80c92926a4b)
REM AIRSS Version 0.9.1 bugfix July 2018 build 013d7b7c2542+ Fri, 06 Jul 2018 19:26:36 +0100
REM compiler GCC version 9.2.1 20190827 (Red Hat 9.2.1-1)
REM options -cpp -mtune=generic -march=x86-64 -g -O0 -fpre-include=/usr/include/finclude/math-vector-fortran.h
REM seed 1528232037 1044029210 -964095653 1294115334 -1856968664 1399270457 -1648844601 -413259978 1598953594 -358943968 -1344987241 -1740665938 1505062559 -1491866243 -352779912 -1504581511 -2065791054 1416714433 1013809995 -1801394634 -1927862974 1966672012 -1704460414 325020509 -1646406665 840858177 596862548 -1793133195 849332350 -1855263316 -1171416923 -1304360958 1084753319
REM
CELL 1.54180   50.00000   50.00000   50.00000   90.00000   90.00000   90.00000
LATT -1
SFAC C  
C      1  0.4871450000000  0.5653750000000  0.3942540000000 1.0
C      1  0.5048670000000  0.5810840000000  0.4095770000000 1.0
C      1  0.3918020000000  0.4933320000000  0.4698730000000 1.0
C      1  0.5413530000000  0.4810990000000  0.4737200000000 1.0
C      1  0.5227320000000  0.5449570000000  0.5023430000000 1.0
C      1  0.4660620000000  0.4754040000000  0.3668840000000 1.0
C      1  0.4280800000000  0.5203880000000  0.4157300000000 1.0
C      1  0.5268610000000  0.5747330000000  0.5608080000000 1.0
C      1  0.4839070000000  0.6067270000000  0.5169410000000 1.0
C      1  0.4331760000000  0.4432350000000  0.5679850000000 1.0
C      1  0.5563210000000  0.3738210000000  0.5269050000000 1.0
C      1  0.4613180000000  0.4030390000000  0.5476650000000 1.0
C      1  0.4654880000000  0.5869630000000  0.4776130000000 1.0
C      1  0.4684130000000  0.4369170000000  0.4517510000000 1.0
C      1  0.4024940000000  0.5564420000000  0.5329110000000 1.0
C      1  0.5331400000000  0.5253950000000  0.5537170000000 1.0
C      1  0.4290790000000  0.4312700000000  0.5200460000000 1.0
C      1  0.5797890000000  0.4671180000000  0.4325050000000 1.0
C      1  0.4865050000000  0.4393980000000  0.4986420000000 1.0
C      1  0.5761270000000  0.4264500000000  0.4830430000000 1.0
C      1  0.4946810000000  0.5966860000000  0.4315310000000 1.0
C      1  0.5362320000000  0.4599450000000  0.5783740000000 1.0
C      1  0.4566320000000  0.4589450000000  0.3860760000000 1.0
C      1  0.4513600000000  0.5652440000000  0.4624260000000 1.0
C      1  0.4475700000000  0.5421770000000  0.4129310000000 1.0
C      1  0.5586010000000  0.5802450000000  0.4662530000000 1.0
C      1  0.4588450000000  0.5977290000000  0.5049930000000 1.0
C      1  0.5734450000000  0.5017390000000  0.5419190000000 1.0
C      1  0.4072670000000  0.4497140000000  0.5276380000000 1.0
C      1  0.5398550000000  0.5123370000000  0.4096130000000 1.0
C      1  0.4549890000000  0.4588990000000  0.4369990000000 1.0
C      1  0.5349310000000  0.4472850000000  0.4139800000000 1.0
C      1  0.5458150000000  0.5280170000000  0.5052660000000 1.0
C      1  0.4481340000000  0.5305350000000  0.5590510000000 1.0
C      1  0.4771920000000  0.4507190000000  0.5222030000000 1.0
C      1  0.4013400000000  0.5281020000000  0.5311570000000 1.0
C      1  0.4641810000000  0.4345030000000  0.4805970000000 1.0
C      1  0.5333750000000  0.5768750000000  0.4176170000000 1.0
C      1  0.4691240000000  0.5016000000000  0.3620340000000 1.0
C      1  0.6478820000000  0.5356860000000  0.5025260000000 1.0
C      1  0.5404710000000  0.5498740000000  0.5700850000000 1.0
C      1  0.4413590000000  0.4233560000000  0.5459530000000 1.0
C      1  0.4660510000000  0.5463030000000  0.3909470000000 1.0
C      1  0.4587390000000  0.5505050000000  0.4386880000000 1.0
C      1  0.5830630000000  0.4895390000000  0.4496670000000 1.0
C      1  0.4763380000000  0.5743130000000  0.5810910000000 1.0
C      1  0.4822510000000  0.4717420000000  0.5635380000000 1.0
C      1  0.6215430000000  0.5388730000000  0.4962650000000 1.0
C      1  0.5235100000000  0.4708990000000  0.5316130000000 1.0
C      1  0.4377550000000  0.4291670000000  0.4920890000000 1.0
C      1  0.4158500000000  0.5161870000000  0.5095300000000 1.0
C      1  0.4503440000000  0.4902290000000  0.5327620000000 1.0
C      1  0.6039570000000  0.4938510000000  0.4699810000000 1.0
C      1  0.5069920000000  0.4709410000000  0.4426070000000 1.0
C      1  0.5287010000000  0.4671420000000  0.3938090000000 1.0
C      1  0.4594590000000  0.5167560000000  0.5378610000000 1.0
C      1  0.5157120000000  0.4357060000000  0.4978360000000 1.0
C      1  0.5142350000000  0.3762570000000  0.5030370000000 1.0
C      1  0.4065550000000  0.5168620000000  0.4633600000000 1.0
C      1  0.4944390000000  0.4248030000000  0.4441190000000 1.0
C      1  0.4399880000000  0.5090330000000  0.6013780000000 1.0
C      1  0.5975830000000  0.4947720000000  0.5299300000000 1.0
C      1  0.5090600000000  0.4365840000000  0.5813370000000 1.0
C      1  0.5620320000000  0.4744010000000  0.5840980000000 1.0
C      1  0.4984950000000  0.5100970000000  0.5854770000000 1.0
C      1  0.4221620000000  0.5283880000000  0.4846320000000 1.0
C      1  0.6054400000000  0.5603700000000  0.5068540000000 1.0
C      1  0.4110810000000  0.4590530000000  0.5552820000000 1.0
C      1  0.5271490000000  0.4180770000000  0.4782490000000 1.0
C      1  0.5181380000000  0.5434840000000  0.6137460000000 1.0
C      1  0.5601400000000  0.3907410000000  0.4554070000000 1.0
C      1  0.3899300000000  0.4673690000000  0.4807360000000 1.0
C      1  0.5588890000000  0.5852480000000  0.4951250000000 1.0
C      1  0.4763840000000  0.5037240000000  0.4339980000000 1.0
C      1  0.5609010000000  0.5227370000000  0.4813750000000 1.0
C      1  0.4777090000000  0.4920970000000  0.5828080000000 1.0
C      1  0.5056380000000  0.4096350000000  0.5709780000000 1.0
C      1  0.5428230000000  0.5163540000000  0.4377480000000 1.0
C      1  0.4315340000000  0.4926200000000  0.4087930000000 1.0
C      1  0.4971780000000  0.5828760000000  0.4793240000000 1.0
C      1  0.4525950000000  0.4835140000000  0.5965650000000 1.0
C      1  0.4365170000000  0.5900570000000  0.5209260000000 1.0
C      1  0.5194980000000  0.5046630000000  0.5670660000000 1.0
C      1  0.4346350000000  0.5874330000000  0.5505400000000 1.0
C      1  0.5702980000000  0.5710190000000  0.5403300000000 1.0
C      1  0.5836350000000  0.5370900000000  0.4714430000000 1.0
C      1  0.5488890000000  0.5602860000000  0.4010050000000 1.0
C      1  0.5801430000000  0.5273820000000  0.5806970000000 1.0
C      1  0.5356590000000  0.5925880000000  0.5124700000000 1.0
C      1  0.4000940000000  0.4845960000000  0.5612080000000 1.0
C      1  0.5375790000000  0.5847780000000  0.4468410000000 1.0
C      1  0.4686100000000  0.4702370000000  0.5393720000000 1.0
C      1  0.4451610000000  0.5457520000000  0.4834990000000 1.0
C      1  0.4739230000000  0.3906870000000  0.5251890000000 1.0
C      1  0.5807340000000  0.5732050000000  0.5130580000000 1.0
C      1  0.4596340000000  0.4852090000000  0.4481300000000 1.0
C      1  0.4702260000000  0.5448700000000  0.4987090000000 1.0
C      1  0.4952380000000  0.3846150000000  0.4813040000000 1.0
C      1  0.4776790000000  0.4016190000000  0.5711530000000 1.0
C      1  0.5409430000000  0.3674400000000  0.5053190000000 1.0
C      1  0.5028340000000  0.3857880000000  0.5285410000000 1.0
C      1  0.4990700000000  0.4905310000000  0.4225500000000 1.0
C      1  0.4719370000000  0.5491020000000  0.5948640000000 1.0
C      1  0.5618850000000  0.4491800000000  0.4230220000000 1.0
C      1  0.6228170000000  0.4880040000000  0.5309320000000 1.0
C      1  0.6075800000000  0.5221200000000  0.4773500000000 1.0
C      1  0.5544770000000  0.4113770000000  0.4726140000000 1.0
C      1  0.5431790000000  0.5846790000000  0.5395980000000 1.0
C      1  0.4137420000000  0.5737080000000  0.5117880000000 1.0
C      1  0.4093770000000  0.5244470000000  0.4366130000000 1.0
C      1  0.3978320000000  0.4449450000000  0.4653930000000 1.0
C      1  0.4751370000000  0.5244260000000  0.5163070000000 1.0
C      1  0.5425560000000  0.5453870000000  0.6002090000000 1.0
C      1  0.5529150000000  0.4652210000000  0.4941170000000 1.0
C      1  0.4115250000000  0.5707420000000  0.5564050000000 1.0
C      1  0.5336330000000  0.4535220000000  0.5117990000000 1.0
C      1  0.5489190000000  0.5341360000000  0.3943530000000 1.0
C      1  0.5253920000000  0.5356490000000  0.4482780000000 1.0
C      1  0.4492280000000  0.5327930000000  0.5872080000000 1.0
C      1  0.4921020000000  0.5054070000000  0.5043210000000 1.0
C      1  0.4815340000000  0.4486900000000  0.5809180000000 1.0
C      1  0.4782610000000  0.5300750000000  0.4439360000000 1.0
C      1  0.5004380000000  0.5326510000000  0.4629940000000 1.0
C      1  0.4700630000000  0.3863510000000  0.4965660000000 1.0
C      1  0.5466510000000  0.3877800000000  0.5482160000000 1.0
C      1  0.5083380000000  0.5970910000000  0.5044350000000 1.0
C      1  0.5786740000000  0.4534860000000  0.4904240000000 1.0
C      1  0.5000530000000  0.5053640000000  0.4774440000000 1.0
C      1  0.4521110000000  0.4525370000000  0.5892320000000 1.0
C      1  0.5571820000000  0.5014750000000  0.4593140000000 1.0
C      1  0.5105140000000  0.5927080000000  0.4549440000000 1.0
C      1  0.4442040000000  0.4661980000000  0.4104020000000 1.0
C      1  0.3946860000000  0.5095190000000  0.5518710000000 1.0
C      1  0.5714400000000  0.5508700000000  0.5624760000000 1.0
C      1  0.5741210000000  0.4994670000000  0.5713280000000 1.0
C      1  0.4289670000000  0.4916320000000  0.5149570000000 1.0
C      1  0.5054630000000  0.4053260000000  0.4632820000000 1.0
C      1  0.5195010000000  0.3953990000000  0.5504960000000 1.0
C      1  0.5130020000000  0.4444240000000  0.4331240000000 1.0
C      1  0.5258460000000  0.4774820000000  0.5587360000000 1.0
C      1  0.6015760000000  0.4702360000000  0.4864710000000 1.0
C      1  0.3901200000000  0.4617040000000  0.5086280000000 1.0
C      1  0.5022200000000  0.5811130000000  0.5720640000000 1.0
C      1  0.4676940000000  0.5268780000000  0.3706340000000 1.0
C      1  0.5683360000000  0.5343510000000  0.6066320000000 1.0
C      1  0.5140720000000  0.4826380000000  0.4670880000000 1.0
C      1  0.4550400000000  0.5885020000000  0.5694720000000 1.0
C      1  0.4169140000000  0.4273800000000  0.4728120000000 1.0
C      1  0.5796350000000  0.5311100000000  0.6310410000000 1.0
C      1  0.4951220000000  0.5336050000000  0.6012260000000 1.0
C      1  0.5199340000000  0.4929120000000  0.4028980000000 1.0
C      1  0.5513670000000  0.5177950000000  0.5318230000000 1.0
C      1  0.5065210000000  0.4893360000000  0.5203460000000 1.0
C      1  0.4980550000000  0.5529940000000  0.4855670000000 1.0
C      1  0.5788280000000  0.5616230000000  0.4589160000000 1.0
END
