TITL C-612601-4209-141 0.00647460778974141 125000 -555.155200414059 0 0 89 (C1) n - 1
REM
REM in /home/nfs/bkarasulu/CARBON/AIRSS/Generating-Clusters/TERSOFF/Only-C1/FIRE-HFTN
REM
REM
REM
REM
REM
REM ./C.cell (11c1c37f851c82e70ff6c80c92926a4b)
REM AIRSS Version 0.9.1 bugfix July 2018 build 013d7b7c2542+ Fri, 06 Jul 2018 19:26:36 +0100
REM compiler GCC version 9.2.1 20190827 (Red Hat 9.2.1-1)
REM options -cpp -mtune=generic -march=x86-64 -g -O0 -fpre-include=/usr/include/finclude/math-vector-fortran.h
REM seed -195228233 -1736332508 1503531489 1150437378 85982887 -651530875 1488086698 965095667 1541609405 1521244713 1489033335 970039061 579115081 -1517557617 -1957651265 1949360479 -841117543 983799094 -1373146546 -471172928 698131041 -1083884969 1473071713 104991504 1403111478 1587262146 -1241454498 252771746 170144424 -1719257365 -633754518 1305570411 1030579648
REM
CELL 1.54180   50.00000   50.00000   50.00000   90.00000   90.00000   90.00000
LATT -1
SFAC C  
C      1  0.5884240000000  0.4948950000000  0.4933640000000 1.0
C      1  0.5046170000000  0.5010140000000  0.5202710000000 1.0
C      1  0.5100810000000  0.4524420000000  0.5772760000000 1.0
C      1  0.4646980000000  0.5153310000000  0.5404090000000 1.0
C      1  0.4839960000000  0.4975140000000  0.6251200000000 1.0
C      1  0.5294360000000  0.6097440000000  0.5077500000000 1.0
C      1  0.4824160000000  0.4078080000000  0.5241780000000 1.0
C      1  0.5271750000000  0.5670000000000  0.4533220000000 1.0
C      1  0.5060730000000  0.5540070000000  0.4401580000000 1.0
C      1  0.5622720000000  0.5619070000000  0.5529120000000 1.0
C      1  0.4413150000000  0.4532200000000  0.5675770000000 1.0
C      1  0.5714780000000  0.5771530000000  0.4589780000000 1.0
C      1  0.5043460000000  0.5074870000000  0.5753530000000 1.0
C      1  0.5265300000000  0.4249610000000  0.4751570000000 1.0
C      1  0.4543470000000  0.5087520000000  0.4344090000000 1.0
C      1  0.4110320000000  0.5029200000000  0.4937830000000 1.0
C      1  0.4824220000000  0.5866050000000  0.5183480000000 1.0
C      1  0.5033770000000  0.4508380000000  0.4359590000000 1.0
C      1  0.4720170000000  0.4901280000000  0.4206320000000 1.0
C      1  0.4469560000000  0.4380560000000  0.4646200000000 1.0
C      1  0.5512300000000  0.4371150000000  0.5172950000000 1.0
C      1  0.5265790000000  0.4241420000000  0.5045160000000 1.0
C      1  0.4496470000000  0.4517240000000  0.4395750000000 1.0
C      1  0.4997770000000  0.5480860000000  0.5472760000000 1.0
C      1  0.5209970000000  0.5232980000000  0.5119950000000 1.0
C      1  0.4867420000000  0.5717540000000  0.5401540000000 1.0
C      1  0.4276690000000  0.4693700000000  0.4339570000000 1.0
C      1  0.4222550000000  0.4365560000000  0.4781220000000 1.0
C      1  0.5005950000000  0.4530890000000  0.5315490000000 1.0
C      1  0.4696590000000  0.4404930000000  0.4807110000000 1.0
C      1  0.4875210000000  0.4603650000000  0.4807680000000 1.0
C      1  0.4796600000000  0.5546650000000  0.4514350000000 1.0
C      1  0.5026380000000  0.4273600000000  0.5189180000000 1.0
C      1  0.5312950000000  0.4950690000000  0.5689920000000 1.0
C      1  0.5285930000000  0.5948990000000  0.4622150000000 1.0
C      1  0.5137670000000  0.5361800000000  0.4196140000000 1.0
C      1  0.5476510000000  0.5382750000000  0.5494750000000 1.0
C      1  0.5304430000000  0.5202190000000  0.4851660000000 1.0
C      1  0.5665090000000  0.4471750000000  0.4928490000000 1.0
C      1  0.4894660000000  0.4511110000000  0.5581520000000 1.0
C      1  0.4727560000000  0.4911630000000  0.6477680000000 1.0
C      1  0.5788990000000  0.5177730000000  0.4796480000000 1.0
C      1  0.4579140000000  0.5234070000000  0.4782730000000 1.0
C      1  0.5527050000000  0.4561000000000  0.4459650000000 1.0
C      1  0.5072680000000  0.4279810000000  0.4540010000000 1.0
C      1  0.5241380000000  0.5415180000000  0.5334940000000 1.0
C      1  0.5546050000000  0.5309490000000  0.4744110000000 1.0
C      1  0.5763440000000  0.4710050000000  0.4528040000000 1.0
C      1  0.5147050000000  0.5015110000000  0.4703510000000 1.0
C      1  0.5521510000000  0.5106450000000  0.5557000000000 1.0
C      1  0.4907530000000  0.4876000000000  0.4764660000000 1.0
C      1  0.5533260000000  0.5545440000000  0.4593200000000 1.0
C      1  0.4865850000000  0.5246610000000  0.5582760000000 1.0
C      1  0.4757500000000  0.4624540000000  0.4303060000000 1.0
C      1  0.5310700000000  0.4892460000000  0.4171460000000 1.0
C      1  0.4249910000000  0.5227100000000  0.5105400000000 1.0
C      1  0.4407510000000  0.5401240000000  0.4937390000000 1.0
C      1  0.5598730000000  0.5869050000000  0.5433190000000 1.0
C      1  0.4772160000000  0.5041620000000  0.5176110000000 1.0
C      1  0.4712130000000  0.5027980000000  0.4904630000000 1.0
C      1  0.5140420000000  0.6011130000000  0.4855090000000 1.0
C      1  0.4949790000000  0.5032910000000  0.6017160000000 1.0
C      1  0.5161980000000  0.4758300000000  0.5231730000000 1.0
C      1  0.4219850000000  0.4990240000000  0.5549770000000 1.0
C      1  0.5509850000000  0.4378860000000  0.4685810000000 1.0
C      1  0.4257570000000  0.4748580000000  0.5659190000000 1.0
C      1  0.4461640000000  0.5668160000000  0.4861010000000 1.0
C      1  0.4887490000000  0.5889030000000  0.4906980000000 1.0
C      1  0.5638990000000  0.4953770000000  0.5347050000000 1.0
C      1  0.4888710000000  0.5006860000000  0.4009380000000 1.0
C      1  0.5141330000000  0.5102100000000  0.4089490000000 1.0
C      1  0.5467590000000  0.6038210000000  0.5272620000000 1.0
C      1  0.5294070000000  0.4646680000000  0.4311700000000 1.0
C      1  0.5494580000000  0.4465630000000  0.5470370000000 1.0
C      1  0.4073390000000  0.4518680000000  0.4943630000000 1.0
C      1  0.4139530000000  0.5050250000000  0.4650260000000 1.0
C      1  0.4034480000000  0.4771810000000  0.5024350000000 1.0
C      1  0.4639450000000  0.5300080000000  0.4513540000000 1.0
C      1  0.4630320000000  0.4153720000000  0.5436130000000 1.0
C      1  0.4638510000000  0.4390190000000  0.5592360000000 1.0
C      1  0.4358470000000  0.5159450000000  0.5372060000000 1.0
C      1  0.4816990000000  0.3835720000000  0.5116880000000 1.0
C      1  0.5822590000000  0.4698310000000  0.4814510000000 1.0
C      1  0.5570350000000  0.6008470000000  0.4598020000000 1.0
C      1  0.5345520000000  0.4646760000000  0.5676580000000 1.0
C      1  0.5884500000000  0.4969830000000  0.5215100000000 1.0
C      1  0.5441140000000  0.4803460000000  0.5206530000000 1.0
C      1  0.4288080000000  0.4967010000000  0.4421340000000 1.0
C      1  0.4715710000000  0.5735950000000  0.4732260000000 1.0
END
