TITL C-612605-9286-617 0.000110576907776089 125000 -391.288912510838 0 0 66 (C1) n - 1
REM
REM in /home/nfs/bkarasulu/CARBON/AIRSS/Generating-Clusters/TERSOFF/Only-C1/FIRE-HFTN
REM
REM
REM
REM
REM
REM ./C.cell (11c1c37f851c82e70ff6c80c92926a4b)
REM AIRSS Version 0.9.1 bugfix July 2018 build 013d7b7c2542+ Fri, 06 Jul 2018 19:26:36 +0100
REM compiler GCC version 9.2.1 20190827 (Red Hat 9.2.1-1)
REM options -cpp -mtune=generic -march=x86-64 -g -O0 -fpre-include=/usr/include/finclude/math-vector-fortran.h
REM seed 624626100 1299816854 -201982531 447591174 -1925368278 1922725899 -1352052923 1872837712 -1388676913 -268033296 -195762505 -763774190 1840184449 -774153696 -1494467176 665735838 -1334066008 165409484 1308617426 -859149036 681779340 1256188148 1928658180 583620435 820616626 647047463 -1318496871 155680942 -1664288532 1002049421 -1275704308 -1613407204 -177834809
REM
CELL 1.54180   50.00000   50.00000   50.00000   90.00000   90.00000   90.00000
LATT -1
SFAC C  
C      1  0.4506440000000  0.5411680000000  0.5440100000000 1.0
C      1  0.4886500000000  0.4792300000000  0.4937450000000 1.0
C      1  0.5650330000000  0.4447870000000  0.5463230000000 1.0
C      1  0.5022860000000  0.4367890000000  0.4706630000000 1.0
C      1  0.5706780000000  0.4783110000000  0.4433570000000 1.0
C      1  0.5673780000000  0.5292160000000  0.4479300000000 1.0
C      1  0.4780780000000  0.4377450000000  0.5091530000000 1.0
C      1  0.3833990000000  0.5635860000000  0.5320040000000 1.0
C      1  0.4698420000000  0.4275980000000  0.5558680000000 1.0
C      1  0.5069210000000  0.5717970000000  0.4417600000000 1.0
C      1  0.5656520000000  0.4295200000000  0.5226740000000 1.0
C      1  0.5525250000000  0.4575520000000  0.4490610000000 1.0
C      1  0.4757970000000  0.5505260000000  0.5466140000000 1.0
C      1  0.5035210000000  0.4709340000000  0.4271310000000 1.0
C      1  0.5429440000000  0.5559710000000  0.5116800000000 1.0
C      1  0.5547110000000  0.5443500000000  0.4673760000000 1.0
C      1  0.4370210000000  0.4676150000000  0.4939540000000 1.0
C      1  0.4413080000000  0.5380090000000  0.4579500000000 1.0
C      1  0.4954540000000  0.5236730000000  0.4393540000000 1.0
C      1  0.5755280000000  0.4708370000000  0.5448210000000 1.0
C      1  0.5282940000000  0.4586730000000  0.4341470000000 1.0
C      1  0.5027270000000  0.5004060000000  0.4237250000000 1.0
C      1  0.4840730000000  0.5204060000000  0.5138980000000 1.0
C      1  0.4567950000000  0.4444200000000  0.4883780000000 1.0
C      1  0.5150750000000  0.5622250000000  0.5166890000000 1.0
C      1  0.4305330000000  0.5140180000000  0.4653110000000 1.0
C      1  0.4845440000000  0.5325710000000  0.4892700000000 1.0
C      1  0.5149930000000  0.4452370000000  0.5394800000000 1.0
C      1  0.4781520000000  0.4584860000000  0.4369060000000 1.0
C      1  0.4260640000000  0.5304570000000  0.5345160000000 1.0
C      1  0.5436530000000  0.5475230000000  0.5689150000000 1.0
C      1  0.5023200000000  0.5733380000000  0.4910830000000 1.0
C      1  0.5336970000000  0.4845340000000  0.5615410000000 1.0
C      1  0.4842850000000  0.4932100000000  0.5182410000000 1.0
C      1  0.4485530000000  0.4443900000000  0.5576100000000 1.0
C      1  0.5477810000000  0.5327470000000  0.4935740000000 1.0
C      1  0.5420510000000  0.5056790000000  0.4975050000000 1.0
C      1  0.4484600000000  0.4682190000000  0.5426850000000 1.0
C      1  0.5194620000000  0.5782040000000  0.4668280000000 1.0
C      1  0.4796670000000  0.4911090000000  0.4702500000000 1.0
C      1  0.4638600000000  0.5560580000000  0.4572330000000 1.0
C      1  0.5173860000000  0.5071220000000  0.5689090000000 1.0
C      1  0.5021220000000  0.4526920000000  0.4955250000000 1.0
C      1  0.4039020000000  0.5475700000000  0.5335200000000 1.0
C      1  0.5581370000000  0.4402550000000  0.4710070000000 1.0
C      1  0.5535120000000  0.4885340000000  0.5403660000000 1.0
C      1  0.5475900000000  0.5730010000000  0.4701280000000 1.0
C      1  0.4730590000000  0.4822890000000  0.5413850000000 1.0
C      1  0.4896840000000  0.5165190000000  0.4667180000000 1.0
C      1  0.5401620000000  0.4838280000000  0.5149110000000 1.0
C      1  0.4779080000000  0.5596310000000  0.4832730000000 1.0
C      1  0.5562860000000  0.5782430000000  0.4977600000000 1.0
C      1  0.4225000000000  0.5036880000000  0.5256900000000 1.0
C      1  0.5313350000000  0.4546420000000  0.5603600000000 1.0
C      1  0.5237190000000  0.4590710000000  0.5145360000000 1.0
C      1  0.4980970000000  0.5034000000000  0.5882260000000 1.0
C      1  0.5637270000000  0.4306330000000  0.4956400000000 1.0
C      1  0.4648100000000  0.4804990000000  0.4488880000000 1.0
C      1  0.5038840000000  0.5502250000000  0.5413380000000 1.0
C      1  0.4772180000000  0.4388950000000  0.4581730000000 1.0
C      1  0.4892000000000  0.4322100000000  0.5358730000000 1.0
C      1  0.4291880000000  0.4884420000000  0.4749760000000 1.0
C      1  0.4867030000000  0.5517360000000  0.4381340000000 1.0
C      1  0.4315320000000  0.4768410000000  0.5215950000000 1.0
C      1  0.5213880000000  0.5343680000000  0.5589660000000 1.0
C      1  0.5745420000000  0.5045450000000  0.4408880000000 1.0
END
