TITL C-612605-9286-781 14.8944349731055 125000 -748.929766332252 0 0 124 (C1) n - 1
REM
REM in /home/nfs/bkarasulu/CARBON/AIRSS/Generating-Clusters/TERSOFF/Only-C1/FIRE-HFTN
REM
REM
REM
REM
REM
REM ./C.cell (11c1c37f851c82e70ff6c80c92926a4b)
REM AIRSS Version 0.9.1 bugfix July 2018 build 013d7b7c2542+ Fri, 06 Jul 2018 19:26:36 +0100
REM compiler GCC version 9.2.1 20190827 (Red Hat 9.2.1-1)
REM options -cpp -mtune=generic -march=x86-64 -g -O0 -fpre-include=/usr/include/finclude/math-vector-fortran.h
REM seed -1179265598 -1980925570 -1333721718 -328093424 -876670465 2137451207 443695737 -1800120059 309164108 1091997143 247832320 -1377464989 -720534094 -1786034092 1354842292 -604962354 -1573355690 -1334472398 -624045869 2121654401 366428235 -477365370 -257985217 -830099622 1240332904 660126804 -315032272 1316163328 -1268003693 -1529095705 937174990 -420333284 1306717309
REM
CELL 1.54180   50.00000   50.00000   50.00000   90.00000   90.00000   90.00000
LATT -1
SFAC C  
C      1  0.5066510000000  0.5426430000000  0.4655240000000 1.0
C      1  0.5273260000000  0.7063340000000  0.3091900000000 1.0
C      1  0.4839540000000  0.4731570000000  0.5444280000000 1.0
C      1  0.4257060000000  0.4613090000000  0.5478760000000 1.0
C      1  0.4659210000000  0.4326100000000  0.5080100000000 1.0
C      1  0.5460240000000  0.5922210000000  0.4430860000000 1.0
C      1  0.4238880000000  0.5075770000000  0.4845930000000 1.0
C      1  0.5049420000000  0.5246780000000  0.5367620000000 1.0
C      1  0.5803250000000  0.5263240000000  0.4309970000000 1.0
C      1  0.5048850000000  0.4409930000000  0.4605580000000 1.0
C      1  0.4938830000000  0.4405090000000  0.5090560000000 1.0
C      1  0.5494570000000  0.4409050000000  0.5250280000000 1.0
C      1  0.5186430000000  0.5651250000000  0.5617490000000 1.0
C      1  0.4379950000000  0.4901320000000  0.5877580000000 1.0
C      1  0.4532480000000  0.5624410000000  0.5529570000000 1.0
C      1  0.5321870000000  0.5308840000000  0.4672260000000 1.0
C      1  0.5293640000000  0.6520110000000  0.4498130000000 1.0
C      1  0.5858490000000  0.4102160000000  0.6894820000000 1.0
C      1  0.4632390000000  0.6277170000000  0.4365340000000 1.0
C      1  0.4620040000000  0.3836230000000  0.5171960000000 1.0
C      1  0.5244030000000  0.4113530000000  0.6036640000000 1.0
C      1  0.3990300000000  0.4563600000000  0.5070030000000 1.0
C      1  0.4421750000000  0.6045330000000  0.5298340000000 1.0
C      1  0.5241370000000  0.7324180000000  0.2636510000000 1.0
C      1  0.4692260000000  0.5666550000000  0.5777060000000 1.0
C      1  0.5261310000000  0.4353460000000  0.5430340000000 1.0
C      1  0.5546150000000  0.4708260000000  0.5299450000000 1.0
C      1  0.4561770000000  0.4437910000000  0.4533480000000 1.0
C      1  0.4745120000000  0.4922290000000  0.5245900000000 1.0
C      1  0.4607360000000  0.5158110000000  0.4468850000000 1.0
C      1  0.5422280000000  0.6127650000000  0.4265430000000 1.0
C      1  0.4630490000000  0.3997040000000  0.5621470000000 1.0
C      1  0.4734290000000  0.4828400000000  0.4772140000000 1.0
C      1  0.5257180000000  0.7194840000000  0.2862310000000 1.0
C      1  0.4224530000000  0.4350100000000  0.5586910000000 1.0
C      1  0.5173360000000  0.4913340000000  0.4978620000000 1.0
C      1  0.5362680000000  0.5804640000000  0.5161630000000 1.0
C      1  0.5351100000000  0.6399280000000  0.4250470000000 1.0
C      1  0.4601250000000  0.5838920000000  0.5351050000000 1.0
C      1  0.4795540000000  0.4074620000000  0.5836140000000 1.0
C      1  0.4772680000000  0.3862060000000  0.5407130000000 1.0
C      1  0.5284810000000  0.6438200000000  0.4752740000000 1.0
C      1  0.4854050000000  0.5775730000000  0.4949930000000 1.0
C      1  0.5611280000000  0.4405500000000  0.4478550000000 1.0
C      1  0.5557330000000  0.5512890000000  0.4704740000000 1.0
C      1  0.4366140000000  0.4086700000000  0.5571070000000 1.0
C      1  0.5449870000000  0.5518620000000  0.5660400000000 1.0
C      1  0.5774460000000  0.4257810000000  0.4307080000000 1.0
C      1  0.5319110000000  0.6219340000000  0.4901200000000 1.0
C      1  0.4808040000000  0.4004010000000  0.4459960000000 1.0
C      1  0.5581620000000  0.5621380000000  0.5201270000000 1.0
C      1  0.4884600000000  0.4919060000000  0.4986550000000 1.0
C      1  0.5337300000000  0.6537500000000  0.4009890000000 1.0
C      1  0.5177820000000  0.3862870000000  0.5109230000000 1.0
C      1  0.5321470000000  0.6668930000000  0.3780460000000 1.0
C      1  0.5562530000000  0.4816850000000  0.4230800000000 1.0
C      1  0.3943060000000  0.4269730000000  0.5610900000000 1.0
C      1  0.4573220000000  0.4062000000000  0.5034240000000 1.0
C      1  0.5305400000000  0.6800400000000  0.3550940000000 1.0
C      1  0.4259190000000  0.6239620000000  0.5237210000000 1.0
C      1  0.5138210000000  0.5797290000000  0.5353910000000 1.0
C      1  0.5714800000000  0.4956370000000  0.5193380000000 1.0
C      1  0.5585290000000  0.4764080000000  0.5623150000000 1.0
C      1  0.3792690000000  0.4111990000000  0.5187610000000 1.0
C      1  0.5762790000000  0.5445070000000  0.4501180000000 1.0
C      1  0.4155720000000  0.3904320000000  0.5469850000000 1.0
C      1  0.5058080000000  0.4563470000000  0.5326170000000 1.0
C      1  0.4860310000000  0.5312570000000  0.5561560000000 1.0
C      1  0.4550200000000  0.4621120000000  0.4752540000000 1.0
C      1  0.4469390000000  0.4527030000000  0.5011280000000 1.0
C      1  0.5669830000000  0.5041310000000  0.5663800000000 1.0
C      1  0.5055410000000  0.3914410000000  0.5365960000000 1.0
C      1  0.4021690000000  0.4957650000000  0.4706750000000 1.0
C      1  0.5162050000000  0.4615580000000  0.4437680000000 1.0
C      1  0.5465340000000  0.5799860000000  0.4684360000000 1.0
C      1  0.4299480000000  0.4986560000000  0.5119020000000 1.0
C      1  0.5713300000000  0.5034490000000  0.4207670000000 1.0
C      1  0.4331720000000  0.4436540000000  0.4372550000000 1.0
C      1  0.4917760000000  0.3829970000000  0.4652580000000 1.0
C      1  0.5394840000000  0.4105950000000  0.6254270000000 1.0
C      1  0.5607700000000  0.4351230000000  0.4753430000000 1.0
C      1  0.3981710000000  0.4773110000000  0.4515740000000 1.0
C      1  0.4253270000000  0.4675630000000  0.5175970000000 1.0
C      1  0.4809910000000  0.4755830000000  0.5721320000000 1.0
C      1  0.4517550000000  0.5106530000000  0.5281070000000 1.0
C      1  0.5219410000000  0.5037620000000  0.5421900000000 1.0
C      1  0.4711790000000  0.3907160000000  0.4223090000000 1.0
C      1  0.3899450000000  0.4039380000000  0.5437720000000 1.0
C      1  0.4946000000000  0.5516230000000  0.4891660000000 1.0
C      1  0.4757220000000  0.5952990000000  0.4759550000000 1.0
C      1  0.4642650000000  0.4850840000000  0.5907960000000 1.0
C      1  0.5169180000000  0.4112410000000  0.5545090000000 1.0
C      1  0.3837060000000  0.4343390000000  0.5055020000000 1.0
C      1  0.4583680000000  0.5337110000000  0.5453770000000 1.0
C      1  0.5644720000000  0.5433310000000  0.4993170000000 1.0
C      1  0.5013210000000  0.5364070000000  0.5117960000000 1.0
C      1  0.5833180000000  0.5082350000000  0.5427880000000 1.0
C      1  0.4865820000000  0.5835450000000  0.5232910000000 1.0
C      1  0.5257820000000  0.4800760000000  0.5248280000000 1.0
C      1  0.5376460000000  0.5945910000000  0.4916650000000 1.0
C      1  0.5647680000000  0.5601830000000  0.5472110000000 1.0
C      1  0.5572190000000  0.4576960000000  0.5818140000000 1.0
C      1  0.5034340000000  0.3768760000000  0.4885120000000 1.0
C      1  0.5664220000000  0.3840220000000  0.5043550000000 1.0
C      1  0.4803630000000  0.4283610000000  0.4515520000000 1.0
C      1  0.5549800000000  0.4104090000000  0.6469220000000 1.0
C      1  0.5705420000000  0.4103110000000  0.6683790000000 1.0
C      1  0.4688210000000  0.6116080000000  0.4562540000000 1.0
C      1  0.5366430000000  0.5078700000000  0.4848760000000 1.0
C      1  0.4945640000000  0.5535780000000  0.5729990000000 1.0
C      1  0.5440940000000  0.4609940000000  0.4375270000000 1.0
C      1  0.4101410000000  0.4575320000000  0.4379750000000 1.0
C      1  0.4230390000000  0.4821600000000  0.5668790000000 1.0
C      1  0.4431940000000  0.5194600000000  0.4671660000000 1.0
C      1  0.5076440000000  0.4105780000000  0.5815750000000 1.0
C      1  0.5430250000000  0.3981110000000  0.5043380000000 1.0
C      1  0.4805890000000  0.5019210000000  0.4348750000000 1.0
C      1  0.4996820000000  0.4828560000000  0.4343880000000 1.0
C      1  0.5423420000000  0.4278980000000  0.4973970000000 1.0
C      1  0.5289330000000  0.6931870000000  0.3321420000000 1.0
C      1  0.5925850000000  0.4121710000000  0.4144380000000 1.0
C      1  0.5606420000000  0.5139450000000  0.5005520000000 1.0
C      1  0.5134070000000  0.4359210000000  0.4879110000000 1.0
C      1  0.5519570000000  0.5261230000000  0.5768900000000 1.0
END
