TITL C-612604-1799-912 731.610753087316 125000 -855.953957473656 0 0 142 (C1) n - 1
REM
REM in /home/nfs/bkarasulu/CARBON/AIRSS/Generating-Clusters/TERSOFF/Only-C1/FIRE-HFTN
REM
REM
REM
REM
REM
REM ./C.cell (11c1c37f851c82e70ff6c80c92926a4b)
REM AIRSS Version 0.9.1 bugfix July 2018 build 013d7b7c2542+ Fri, 06 Jul 2018 19:26:36 +0100
REM compiler GCC version 9.2.1 20190827 (Red Hat 9.2.1-1)
REM options -cpp -mtune=generic -march=x86-64 -g -O0 -fpre-include=/usr/include/finclude/math-vector-fortran.h
REM seed -1059598278 1723503031 -107108926 -1985278960 802721606 -429067446 1882509951 -1543262194 -1051996706 433223810 -427757507 -1971144857 1413414799 199084720 -99319016 -814390696 -1266771365 -138686424 -37375120 -1693306804 -421175587 1302971708 991892145 -827229300 -604916183 -85931884 -1385009745 -1079347981 762675434 464734526 1199825073 1656506781 1391211356
REM
CELL 1.54180   50.00000   50.00000   50.00000   90.00000   90.00000   90.00000
LATT -1
SFAC C  
C      1  0.5597390000000  0.5399850000000  0.5623850000000 1.0
C      1  0.5661170000000  0.4473910000000  0.5590700000000 1.0
C      1  0.4730520000000  0.5982610000000  0.5448230000000 1.0
C      1  0.4508590000000  0.4262770000000  0.4792340000000 1.0
C      1  0.5146080000000  0.5775520000000  0.6084000000000 1.0
C      1  0.5255480000000  0.5920410000000  0.5311460000000 1.0
C      1  0.6033520000000  0.4533980000000  0.4519320000000 1.0
C      1  0.5410950000000  0.5621170000000  0.4191570000000 1.0
C      1  0.5146450000000  0.5413370000000  0.5026020000000 1.0
C      1  0.4685950000000  0.6004620000000  0.5165370000000 1.0
C      1  0.4430000000000  0.4410990000000  0.5498480000000 1.0
C      1  0.5854930000000  0.5321370000000  0.4326470000000 1.0
C      1  0.5661550000000  0.5556690000000  0.4375910000000 1.0
C      1  0.4056390000000  0.4723910000000  0.4704860000000 1.0
C      1  0.4648210000000  0.4799480000000  0.5700100000000 1.0
C      1  0.5086660000000  0.4038920000000  0.4620830000000 1.0
C      1  0.4986860000000  0.5004110000000  0.5349760000000 1.0
C      1  0.4452070000000  0.5909340000000  0.5040370000000 1.0
C      1  0.4748420000000  0.4899430000000  0.5941970000000 1.0
C      1  0.4403610000000  0.5650010000000  0.4350460000000 1.0
C      1  0.4188400000000  0.5498180000000  0.4918650000000 1.0
C      1  0.5710930000000  0.4729230000000  0.4290010000000 1.0
C      1  0.3638070000000  0.4504030000000  0.5266810000000 1.0
C      1  0.4412470000000  0.5147560000000  0.4268050000000 1.0
C      1  0.4521270000000  0.5760470000000  0.4582500000000 1.0
C      1  0.4906760000000  0.6068090000000  0.4995500000000 1.0
C      1  0.4620640000000  0.4953130000000  0.4360060000000 1.0
C      1  0.4941520000000  0.5715380000000  0.4316150000000 1.0
C      1  0.4304770000000  0.5082100000000  0.5292180000000 1.0
C      1  0.6153360000000  0.5126970000000  0.4705830000000 1.0
C      1  0.4891360000000  0.3957380000000  0.4820190000000 1.0
C      1  0.4099330000000  0.5014890000000  0.4632130000000 1.0
C      1  0.5249460000000  0.4283510000000  0.5334360000000 1.0
C      1  0.5512560000000  0.5113070000000  0.4080620000000 1.0
C      1  0.5339530000000  0.5024430000000  0.5645980000000 1.0
C      1  0.5806060000000  0.5068190000000  0.5892370000000 1.0
C      1  0.5373340000000  0.6128160000000  0.4922320000000 1.0
C      1  0.5451880000000  0.5756810000000  0.5180450000000 1.0
C      1  0.5027440000000  0.3961300000000  0.5579580000000 1.0
C      1  0.5967110000000  0.4793550000000  0.4400470000000 1.0
C      1  0.3983860000000  0.4998310000000  0.5690050000000 1.0
C      1  0.4741360000000  0.4902900000000  0.5448060000000 1.0
C      1  0.4810920000000  0.5540580000000  0.5624600000000 1.0
C      1  0.4380540000000  0.3221070000000  0.5814300000000 1.0
C      1  0.5162990000000  0.4972360000000  0.4876280000000 1.0
C      1  0.5820340000000  0.5324790000000  0.5174620000000 1.0
C      1  0.5859520000000  0.4320180000000  0.4556240000000 1.0
C      1  0.4644020000000  0.5375480000000  0.4941400000000 1.0
C      1  0.5498260000000  0.4809230000000  0.4492370000000 1.0
C      1  0.4191650000000  0.4097300000000  0.5081410000000 1.0
C      1  0.5074000000000  0.5430410000000  0.4757040000000 1.0
C      1  0.5368680000000  0.4097870000000  0.4645610000000 1.0
C      1  0.4293170000000  0.4370960000000  0.4993230000000 1.0
C      1  0.4067730000000  0.4559300000000  0.4935070000000 1.0
C      1  0.5007740000000  0.5076680000000  0.3936610000000 1.0
C      1  0.4620610000000  0.4008480000000  0.4905150000000 1.0
C      1  0.4235890000000  0.5229260000000  0.4772250000000 1.0
C      1  0.4225700000000  0.4718250000000  0.4263240000000 1.0
C      1  0.5763810000000  0.5236700000000  0.4063080000000 1.0
C      1  0.4803790000000  0.5840760000000  0.4540480000000 1.0
C      1  0.4429130000000  0.3931700000000  0.5125460000000 1.0
C      1  0.5883120000000  0.5091820000000  0.5341400000000 1.0
C      1  0.4170590000000  0.5004150000000  0.4339760000000 1.0
C      1  0.4122130000000  0.5486810000000  0.5213830000000 1.0
C      1  0.4076340000000  0.4573990000000  0.4456900000000 1.0
C      1  0.4828690000000  0.5826640000000  0.5665900000000 1.0
C      1  0.4409480000000  0.5419010000000  0.4217500000000 1.0
C      1  0.5322750000000  0.5311850000000  0.5653330000000 1.0
C      1  0.4516670000000  0.4696050000000  0.4251910000000 1.0
C      1  0.6168230000000  0.5019160000000  0.4953540000000 1.0
C      1  0.4746290000000  0.5383740000000  0.5193890000000 1.0
C      1  0.4366150000000  0.5732520000000  0.4833000000000 1.0
C      1  0.5587270000000  0.5940970000000  0.4998220000000 1.0
C      1  0.5866200000000  0.4797140000000  0.5924460000000 1.0
C      1  0.5214030000000  0.5501690000000  0.6143640000000 1.0
C      1  0.4801210000000  0.4245490000000  0.4219940000000 1.0
C      1  0.5475200000000  0.5390160000000  0.6181320000000 1.0
C      1  0.4473060000000  0.3907340000000  0.5407260000000 1.0
C      1  0.5249990000000  0.4649780000000  0.4431470000000 1.0
C      1  0.3891250000000  0.5415420000000  0.5376400000000 1.0
C      1  0.4532870000000  0.4932300000000  0.5267040000000 1.0
C      1  0.4559300000000  0.4151200000000  0.5537680000000 1.0
C      1  0.4156190000000  0.4788260000000  0.5717640000000 1.0
C      1  0.5257180000000  0.4011430000000  0.5436950000000 1.0
C      1  0.3837760000000  0.4533910000000  0.5095240000000 1.0
C      1  0.4405990000000  0.3443700000000  0.5681080000000 1.0
C      1  0.5621090000000  0.4190580000000  0.4595870000000 1.0
C      1  0.4969830000000  0.4100850000000  0.4368780000000 1.0
C      1  0.5424440000000  0.5084000000000  0.4361480000000 1.0
C      1  0.5803310000000  0.4574520000000  0.5791360000000 1.0
C      1  0.5628370000000  0.4675530000000  0.4020380000000 1.0
C      1  0.4647810000000  0.4460760000000  0.4179670000000 1.0
C      1  0.4987090000000  0.5895350000000  0.5895230000000 1.0
C      1  0.5157650000000  0.6119170000000  0.5127030000000 1.0
C      1  0.4981840000000  0.5309590000000  0.4546420000000 1.0
C      1  0.5106990000000  0.4670800000000  0.4199500000000 1.0
C      1  0.6004090000000  0.5088820000000  0.4465360000000 1.0
C      1  0.5127820000000  0.5548360000000  0.4167230000000 1.0
C      1  0.5399380000000  0.5496900000000  0.5088810000000 1.0
C      1  0.5578150000000  0.5286610000000  0.5030400000000 1.0
C      1  0.3876090000000  0.5220920000000  0.5572460000000 1.0
C      1  0.4068400000000  0.4979830000000  0.5201490000000 1.0
C      1  0.5922810000000  0.4224940000000  0.5115720000000 1.0
C      1  0.5257270000000  0.6073860000000  0.4658890000000 1.0
C      1  0.4840420000000  0.4173340000000  0.5531800000000 1.0
C      1  0.4994680000000  0.5257430000000  0.5211510000000 1.0
C      1  0.5823670000000  0.4454060000000  0.5038880000000 1.0
C      1  0.4829270000000  0.4609400000000  0.4891940000000 1.0
C      1  0.5027070000000  0.5325570000000  0.6011970000000 1.0
C      1  0.5675000000000  0.5227410000000  0.6093870000000 1.0
C      1  0.4611790000000  0.5446410000000  0.5432960000000 1.0
C      1  0.5738890000000  0.5626720000000  0.5527050000000 1.0
C      1  0.5156570000000  0.4837520000000  0.3973860000000 1.0
C      1  0.4780520000000  0.4504410000000  0.5156580000000 1.0
C      1  0.5667070000000  0.5798650000000  0.4547190000000 1.0
C      1  0.4906580000000  0.4867060000000  0.4799490000000 1.0
C      1  0.3451570000000  0.4484500000000  0.5447880000000 1.0
C      1  0.4962640000000  0.4362740000000  0.5331440000000 1.0
C      1  0.5443240000000  0.5047010000000  0.4912620000000 1.0
C      1  0.5030510000000  0.5335680000000  0.4008370000000 1.0
C      1  0.4878380000000  0.5096430000000  0.6069290000000 1.0
C      1  0.4692620000000  0.4452570000000  0.4700910000000 1.0
C      1  0.5467120000000  0.4438360000000  0.5411940000000 1.0
C      1  0.5714460000000  0.4467710000000  0.3868090000000 1.0
C      1  0.5047000000000  0.5396120000000  0.5727490000000 1.0
C      1  0.5881980000000  0.5575250000000  0.5298280000000 1.0
C      1  0.4433220000000  0.3669940000000  0.5545970000000 1.0
C      1  0.4487670000000  0.4472260000000  0.5217330000000 1.0
C      1  0.4525850000000  0.5189280000000  0.4772960000000 1.0
C      1  0.4401400000000  0.4642740000000  0.5672200000000 1.0
C      1  0.4705370000000  0.5006530000000  0.4633830000000 1.0
C      1  0.5971460000000  0.4905870000000  0.5129600000000 1.0
C      1  0.5407260000000  0.5918530000000  0.4193980000000 1.0
C      1  0.5451890000000  0.5991190000000  0.4466440000000 1.0
C      1  0.5792510000000  0.4726260000000  0.4983480000000 1.0
C      1  0.4964700000000  0.6010410000000  0.4709790000000 1.0
C      1  0.5439660000000  0.4875890000000  0.3935710000000 1.0
C      1  0.4341650000000  0.5360520000000  0.5368840000000 1.0
C      1  0.5603150000000  0.4840010000000  0.4789980000000 1.0
C      1  0.5214940000000  0.4886710000000  0.5454960000000 1.0
C      1  0.5786800000000  0.5163650000000  0.5619400000000 1.0
C      1  0.5766290000000  0.5848470000000  0.4803910000000 1.0
END
