TITL C-612601-4209-462 4.5359163205409e-05 125000 -934.524869888793 0 0 150 (C1) n - 1
REM
REM in /home/nfs/bkarasulu/CARBON/AIRSS/Generating-Clusters/TERSOFF/Only-C1/FIRE-HFTN
REM
REM
REM
REM
REM
REM ./C.cell (11c1c37f851c82e70ff6c80c92926a4b)
REM AIRSS Version 0.9.1 bugfix July 2018 build 013d7b7c2542+ Fri, 06 Jul 2018 19:26:36 +0100
REM compiler GCC version 9.2.1 20190827 (Red Hat 9.2.1-1)
REM options -cpp -mtune=generic -march=x86-64 -g -O0 -fpre-include=/usr/include/finclude/math-vector-fortran.h
REM seed -2078398552 867142616 -1682400264 -461656467 -775239706 -184858861 1438752692 52267442 -2054184940 657460143 1162326390 -1065865901 -1605122769 572058458 -1501965197 -137074896 -703522217 -427295514 2078959331 1158045844 1659322405 -1401635521 -1019144016 -57822400 -1098798712 2002769750 742488513 1781129029 -2093369674 173257434 -981563402 1504894172 1399672991
REM
CELL 1.54180   50.00000   50.00000   50.00000   90.00000   90.00000   90.00000
LATT -1
SFAC C  
C      1  0.4479690000000  0.5721150000000  0.4252990000000 1.0
C      1  0.4994490000000  0.4541190000000  0.5010260000000 1.0
C      1  0.4710080000000  0.4513290000000  0.4444180000000 1.0
C      1  0.5038040000000  0.5582990000000  0.5146980000000 1.0
C      1  0.5018110000000  0.4063050000000  0.4160640000000 1.0
C      1  0.5347600000000  0.4990120000000  0.5633820000000 1.0
C      1  0.4766310000000  0.5677160000000  0.5125540000000 1.0
C      1  0.4702210000000  0.5072340000000  0.5234590000000 1.0
C      1  0.4462510000000  0.4508700000000  0.4873350000000 1.0
C      1  0.4269270000000  0.5701810000000  0.5174960000000 1.0
C      1  0.4470850000000  0.5154570000000  0.4036910000000 1.0
C      1  0.5577570000000  0.4453950000000  0.6006640000000 1.0
C      1  0.5292780000000  0.4406120000000  0.5985700000000 1.0
C      1  0.5510430000000  0.4769790000000  0.5574430000000 1.0
C      1  0.5455970000000  0.5161540000000  0.4788900000000 1.0
C      1  0.4219390000000  0.5604720000000  0.4296940000000 1.0
C      1  0.4547540000000  0.4806210000000  0.5821140000000 1.0
C      1  0.5120020000000  0.4506190000000  0.5545600000000 1.0
C      1  0.4077980000000  0.4757190000000  0.5688520000000 1.0
C      1  0.5498790000000  0.5964940000000  0.4320160000000 1.0
C      1  0.4608280000000  0.3991740000000  0.5199640000000 1.0
C      1  0.4704510000000  0.4606790000000  0.3931370000000 1.0
C      1  0.5399000000000  0.4519730000000  0.5518460000000 1.0
C      1  0.4594760000000  0.4795730000000  0.5180580000000 1.0
C      1  0.5310260000000  0.4050500000000  0.4547780000000 1.0
C      1  0.5513470000000  0.5719210000000  0.5050410000000 1.0
C      1  0.4948100000000  0.5114640000000  0.5057370000000 1.0
C      1  0.5236440000000  0.6074170000000  0.4888230000000 1.0
C      1  0.5360360000000  0.3893380000000  0.5065210000000 1.0
C      1  0.5577430000000  0.4005800000000  0.4471870000000 1.0
C      1  0.4927020000000  0.4367770000000  0.4545230000000 1.0
C      1  0.5988520000000  0.5213380000000  0.4815850000000 1.0
C      1  0.5226980000000  0.4714310000000  0.5014170000000 1.0
C      1  0.5100070000000  0.6084500000000  0.5423250000000 1.0
C      1  0.5134710000000  0.5533290000000  0.6013400000000 1.0
C      1  0.4852520000000  0.5026790000000  0.5504270000000 1.0
C      1  0.6347590000000  0.4701160000000  0.4423900000000 1.0
C      1  0.4625830000000  0.5243560000000  0.4648110000000 1.0
C      1  0.5166150000000  0.3937900000000  0.5304600000000 1.0
C      1  0.6092710000000  0.4786120000000  0.4540920000000 1.0
C      1  0.4951040000000  0.4337250000000  0.4823010000000 1.0
C      1  0.4355360000000  0.4843660000000  0.4608020000000 1.0
C      1  0.5124640000000  0.4642330000000  0.6053620000000 1.0
C      1  0.5136210000000  0.4239240000000  0.4371310000000 1.0
C      1  0.3846660000000  0.5047170000000  0.4640810000000 1.0
C      1  0.4316490000000  0.4640930000000  0.5786970000000 1.0
C      1  0.5189000000000  0.5889800000000  0.5622920000000 1.0
C      1  0.4069300000000  0.5652120000000  0.4744310000000 1.0
C      1  0.4538240000000  0.5572070000000  0.5307080000000 1.0
C      1  0.4504730000000  0.3999590000000  0.5460670000000 1.0
C      1  0.4859370000000  0.4566540000000  0.5490110000000 1.0
C      1  0.5300680000000  0.5660100000000  0.5230070000000 1.0
C      1  0.5705990000000  0.5855940000000  0.4482230000000 1.0
C      1  0.4665980000000  0.5578680000000  0.6057820000000 1.0
C      1  0.4127060000000  0.5213360000000  0.5771630000000 1.0
C      1  0.4923540000000  0.3898360000000  0.3982420000000 1.0
C      1  0.5630820000000  0.3988740000000  0.5083320000000 1.0
C      1  0.5216850000000  0.4749740000000  0.4167450000000 1.0
C      1  0.5716810000000  0.6000550000000  0.4727790000000 1.0
C      1  0.5457190000000  0.5437080000000  0.4363750000000 1.0
C      1  0.5857760000000  0.5400450000000  0.5218760000000 1.0
C      1  0.5968960000000  0.4660060000000  0.5717420000000 1.0
C      1  0.4716110000000  0.5584550000000  0.4348650000000 1.0
C      1  0.5115190000000  0.6041020000000  0.4620180000000 1.0
C      1  0.4421060000000  0.4055140000000  0.4981390000000 1.0
C      1  0.4889610000000  0.5410450000000  0.6097600000000 1.0
C      1  0.4358840000000  0.4697960000000  0.5065030000000 1.0
C      1  0.4744610000000  0.5094530000000  0.3992290000000 1.0
C      1  0.4182390000000  0.5533730000000  0.4967980000000 1.0
C      1  0.5486700000000  0.4642090000000  0.4898130000000 1.0
C      1  0.4115740000000  0.4668390000000  0.4547430000000 1.0
C      1  0.4216020000000  0.5073920000000  0.4067520000000 1.0
C      1  0.5253750000000  0.4490750000000  0.4237170000000 1.0
C      1  0.5367550000000  0.5708190000000  0.5498170000000 1.0
C      1  0.5898470000000  0.4338130000000  0.4584840000000 1.0
C      1  0.4691580000000  0.5691540000000  0.4844640000000 1.0
C      1  0.4312050000000  0.5270370000000  0.4975130000000 1.0
C      1  0.5238630000000  0.5879880000000  0.4405130000000 1.0
C      1  0.4384850000000  0.5259450000000  0.5871490000000 1.0
C      1  0.4838570000000  0.5117540000000  0.6070950000000 1.0
C      1  0.5122810000000  0.5790240000000  0.5881730000000 1.0
C      1  0.4649490000000  0.4504250000000  0.4171880000000 1.0
C      1  0.6142360000000  0.5059510000000  0.4642790000000 1.0
C      1  0.4498240000000  0.5280120000000  0.5207790000000 1.0
C      1  0.5810800000000  0.5472740000000  0.5483470000000 1.0
C      1  0.4754860000000  0.4786200000000  0.5634770000000 1.0
C      1  0.5515320000000  0.5000000000000  0.4568970000000 1.0
C      1  0.5810460000000  0.4542670000000  0.5901950000000 1.0
C      1  0.4313780000000  0.5893270000000  0.5589540000000 1.0
C      1  0.4313160000000  0.4272110000000  0.4825520000000 1.0
C      1  0.5819550000000  0.5446790000000  0.4742610000000 1.0
C      1  0.5649040000000  0.4469680000000  0.5052240000000 1.0
C      1  0.5789990000000  0.4622170000000  0.4201280000000 1.0
C      1  0.4687830000000  0.5514690000000  0.4622260000000 1.0
C      1  0.5609250000000  0.5608310000000  0.5597020000000 1.0
C      1  0.5818040000000  0.3949950000000  0.4875720000000 1.0
C      1  0.4508960000000  0.6002120000000  0.4247210000000 1.0
C      1  0.5692800000000  0.5561810000000  0.4505650000000 1.0
C      1  0.4396350000000  0.5104870000000  0.4739800000000 1.0
C      1  0.4962680000000  0.5478680000000  0.4238650000000 1.0
C      1  0.4665480000000  0.6171530000000  0.4384990000000 1.0
C      1  0.5988830000000  0.5169550000000  0.5108200000000 1.0
C      1  0.5048170000000  0.5359090000000  0.4973760000000 1.0
C      1  0.5294570000000  0.5076450000000  0.5898230000000 1.0
C      1  0.4559650000000  0.4644210000000  0.4638630000000 1.0
C      1  0.5643590000000  0.4240030000000  0.5215320000000 1.0
C      1  0.3885510000000  0.4974990000000  0.4928030000000 1.0
C      1  0.4497760000000  0.5517800000000  0.5842400000000 1.0
C      1  0.4411000000000  0.4135520000000  0.5669140000000 1.0
C      1  0.4979430000000  0.4072230000000  0.4903490000000 1.0
C      1  0.4567210000000  0.5051550000000  0.5965840000000 1.0
C      1  0.5732450000000  0.5548560000000  0.5006420000000 1.0
C      1  0.5803950000000  0.4077310000000  0.4623280000000 1.0
C      1  0.5502680000000  0.5964210000000  0.4909920000000 1.0
C      1  0.4492040000000  0.5663610000000  0.5601630000000 1.0
C      1  0.4880050000000  0.6177670000000  0.4544920000000 1.0
C      1  0.3852280000000  0.5309920000000  0.4528150000000 1.0
C      1  0.4099100000000  0.4800790000000  0.5020400000000 1.0
C      1  0.4025820000000  0.5532270000000  0.4494900000000 1.0
C      1  0.4779340000000  0.4851900000000  0.3850520000000 1.0
C      1  0.5204920000000  0.5034530000000  0.4191840000000 1.0
C      1  0.5340860000000  0.5343530000000  0.5978380000000 1.0
C      1  0.5208300000000  0.5599830000000  0.4332060000000 1.0
C      1  0.5223710000000  0.3956140000000  0.4809760000000 1.0
C      1  0.5601280000000  0.4740770000000  0.4648130000000 1.0
C      1  0.4343450000000  0.4362430000000  0.5790320000000 1.0
C      1  0.5117960000000  0.6136260000000  0.5150380000000 1.0
C      1  0.4004680000000  0.4954780000000  0.4185520000000 1.0
C      1  0.4972400000000  0.5206180000000  0.4130650000000 1.0
C      1  0.5426020000000  0.5147940000000  0.4337340000000 1.0
C      1  0.3810410000000  0.5079450000000  0.5417170000000 1.0
C      1  0.5291830000000  0.4069420000000  0.5540370000000 1.0
C      1  0.6047790000000  0.4951580000000  0.5276230000000 1.0
C      1  0.3927780000000  0.4852570000000  0.4441150000000 1.0
C      1  0.5077280000000  0.4933750000000  0.6034790000000 1.0
C      1  0.4896560000000  0.3983910000000  0.5166640000000 1.0
C      1  0.4180840000000  0.5905190000000  0.5349820000000 1.0
C      1  0.5166670000000  0.4952060000000  0.5162790000000 1.0
C      1  0.6041660000000  0.4795680000000  0.5495880000000 1.0
C      1  0.5498480000000  0.4263710000000  0.5453450000000 1.0
C      1  0.3984560000000  0.5017010000000  0.5630050000000 1.0
C      1  0.6532890000000  0.4907330000000  0.4438420000000 1.0
C      1  0.5222900000000  0.4163230000000  0.5820190000000 1.0
C      1  0.4115150000000  0.4383080000000  0.4634160000000 1.0
C      1  0.4797700000000  0.4592390000000  0.5215270000000 1.0
C      1  0.5142090000000  0.5020980000000  0.5445690000000 1.0
C      1  0.6415550000000  0.5124610000000  0.4564730000000 1.0
C      1  0.3753310000000  0.5087860000000  0.5152910000000 1.0
C      1  0.5843450000000  0.4621310000000  0.4504820000000 1.0
C      1  0.5266080000000  0.5344250000000  0.4809970000000 1.0
END
