TITL C-612604-1799-1293 -6608.58670076699 125000 -529.166857952605 0 0 89 (C1) n - 1
REM
REM in /home/nfs/bkarasulu/CARBON/AIRSS/Generating-Clusters/TERSOFF/Only-C1/FIRE-HFTN
REM
REM
REM
REM
REM
REM ./C.cell (11c1c37f851c82e70ff6c80c92926a4b)
REM AIRSS Version 0.9.1 bugfix July 2018 build 013d7b7c2542+ Fri, 06 Jul 2018 19:26:36 +0100
REM compiler GCC version 9.2.1 20190827 (Red Hat 9.2.1-1)
REM options -cpp -mtune=generic -march=x86-64 -g -O0 -fpre-include=/usr/include/finclude/math-vector-fortran.h
REM seed -1036214797 -652268998 2093711926 1759529084 827047339 -319972638 578956333 -1023091527 -1668923722 1675685803 -233714445 795293447 -1504631396 444587172 1893244054 1527598054 -1039727146 -1566908106 1413815234 -1452685276 -823780026 2044707860 -1483741319 -2066660942 -1072987162 52452160 -1398975465 -1529501385 100185850 -1348327998 2003902173 1829658558 150105007
REM
CELL 1.54180   50.00000   50.00000   50.00000   90.00000   90.00000   90.00000
LATT -1
SFAC C  
C      1  0.5017510000000  0.5208660000000  0.4985040000000 1.0
C      1  0.4930750000000  0.5627560000000  0.4400130000000 1.0
C      1  0.5369790000000  0.4888380000000  0.4523470000000 1.0
C      1  0.4705340000000  0.4972830000000  0.5188360000000 1.0
C      1  0.5453440000000  0.4485700000000  0.5707420000000 1.0
C      1  0.4647620000000  0.5846460000000  0.5241800000000 1.0
C      1  0.4898450000000  0.4670430000000  0.4602550000000 1.0
C      1  0.4442780000000  0.5434390000000  0.5470280000000 1.0
C      1  0.5423110000000  0.5128460000000  0.5180600000000 1.0
C      1  0.4825100000000  0.5161060000000  0.4217440000000 1.0
C      1  0.5691220000000  0.5372290000000  0.5423660000000 1.0
C      1  0.4684490000000  0.4413840000000  0.5185940000000 1.0
C      1  0.5668980000000  0.4400370000000  0.5529940000000 1.0
C      1  0.5165810000000  0.4474280000000  0.5783670000000 1.0
C      1  0.5808110000000  0.4839370000000  0.5208490000000 1.0
C      1  0.4875890000000  0.5623810000000  0.5610110000000 1.0
C      1  0.5249330000000  0.4995080000000  0.4981930000000 1.0
C      1  0.5630120000000  0.5646560000000  0.4939870000000 1.0
C      1  0.4085730000000  0.5234060000000  0.4846870000000 1.0
C      1  0.5585830000000  0.5605740000000  0.5249620000000 1.0
C      1  0.5211530000000  0.5854120000000  0.5103420000000 1.0
C      1  0.5209590000000  0.4017490000000  0.5260610000000 1.0
C      1  0.5232600000000  0.5402410000000  0.4162840000000 1.0
C      1  0.5256230000000  0.5098930000000  0.5416220000000 1.0
C      1  0.4662240000000  0.4184250000000  0.5042310000000 1.0
C      1  0.4693420000000  0.5109820000000  0.4465980000000 1.0
C      1  0.5482510000000  0.4768170000000  0.5668870000000 1.0
C      1  0.5333490000000  0.4392880000000  0.4170910000000 1.0
C      1  0.5298190000000  0.4817010000000  0.5455640000000 1.0
C      1  0.5445120000000  0.4965880000000  0.4263670000000 1.0
C      1  0.4853060000000  0.5335400000000  0.5657930000000 1.0
C      1  0.4685680000000  0.5607560000000  0.4559190000000 1.0
C      1  0.4809920000000  0.4784170000000  0.5375870000000 1.0
C      1  0.4351460000000  0.4827490000000  0.5423250000000 1.0
C      1  0.4247180000000  0.4760970000000  0.4001790000000 1.0
C      1  0.5376190000000  0.5079930000000  0.4724550000000 1.0
C      1  0.4155010000000  0.4747040000000  0.4753790000000 1.0
C      1  0.4759850000000  0.4486320000000  0.4441510000000 1.0
C      1  0.5194640000000  0.4694620000000  0.5193840000000 1.0
C      1  0.4203780000000  0.5444240000000  0.5004790000000 1.0
C      1  0.5007770000000  0.5219750000000  0.5448400000000 1.0
C      1  0.4233950000000  0.5017770000000  0.5230550000000 1.0
C      1  0.4280740000000  0.5319820000000  0.5261060000000 1.0
C      1  0.5697140000000  0.5118750000000  0.5260710000000 1.0
C      1  0.4568930000000  0.5239740000000  0.5655900000000 1.0
C      1  0.4995680000000  0.4975790000000  0.4079350000000 1.0
C      1  0.4273350000000  0.4750590000000  0.4488760000000 1.0
C      1  0.5362410000000  0.5202470000000  0.5851890000000 1.0
C      1  0.5695630000000  0.4884020000000  0.5794490000000 1.0
C      1  0.5021650000000  0.5710910000000  0.4953970000000 1.0
C      1  0.5326680000000  0.5361160000000  0.4716800000000 1.0
C      1  0.4859660000000  0.5201390000000  0.5207020000000 1.0
C      1  0.4143440000000  0.4965840000000  0.4943460000000 1.0
C      1  0.5178420000000  0.4995260000000  0.5907230000000 1.0
C      1  0.4035590000000  0.4510470000000  0.4830610000000 1.0
C      1  0.4565950000000  0.5347120000000  0.4544410000000 1.0
C      1  0.4666190000000  0.4608170000000  0.4199310000000 1.0
C      1  0.4394460000000  0.4707050000000  0.4227140000000 1.0
C      1  0.5554190000000  0.5333620000000  0.5691760000000 1.0
C      1  0.5263740000000  0.5112490000000  0.4103760000000 1.0
C      1  0.4518660000000  0.4952080000000  0.5655730000000 1.0
C      1  0.4755720000000  0.5805920000000  0.4984680000000 1.0
C      1  0.5500420000000  0.4350620000000  0.4378260000000 1.0
C      1  0.5467870000000  0.5588800000000  0.4638790000000 1.0
C      1  0.4937270000000  0.5425910000000  0.4196470000000 1.0
C      1  0.4912630000000  0.4700880000000  0.4057550000000 1.0
C      1  0.5126040000000  0.4509280000000  0.4043280000000 1.0
C      1  0.4317380000000  0.5666260000000  0.4874770000000 1.0
C      1  0.5749600000000  0.4570870000000  0.4752210000000 1.0
C      1  0.5175300000000  0.4691170000000  0.4574300000000 1.0
C      1  0.4742240000000  0.4903420000000  0.4662360000000 1.0
C      1  0.5587810000000  0.4361100000000  0.4648810000000 1.0
C      1  0.4775230000000  0.4803170000000  0.5658740000000 1.0
C      1  0.5309620000000  0.5661580000000  0.4403050000000 1.0
C      1  0.5347180000000  0.4065540000000  0.5036970000000 1.0
C      1  0.5478510000000  0.4177680000000  0.4833760000000 1.0
C      1  0.4444130000000  0.4557430000000  0.5312190000000 1.0
C      1  0.5087020000000  0.4067110000000  0.5493100000000 1.0
C      1  0.5143030000000  0.5716670000000  0.5549150000000 1.0
C      1  0.4635710000000  0.4911030000000  0.4922540000000 1.0
C      1  0.4930720000000  0.4572280000000  0.5230710000000 1.0
C      1  0.5802410000000  0.4597760000000  0.5380500000000 1.0
C      1  0.4574430000000  0.5746580000000  0.4779870000000 1.0
C      1  0.5041510000000  0.4235400000000  0.5697820000000 1.0
C      1  0.5824140000000  0.4757030000000  0.4932540000000 1.0
C      1  0.5019390000000  0.4749480000000  0.5821870000000 1.0
C      1  0.4622990000000  0.5674980000000  0.5462650000000 1.0
C      1  0.5091030000000  0.5446630000000  0.4861950000000 1.0
C      1  0.5335360000000  0.5743120000000  0.5334600000000 1.0
END
