TITL C-612600-6631-792 3.21403575522974 125000 -487.587373332239 0 0 80 (C1) n - 1
REM
REM in /home/nfs/bkarasulu/CARBON/AIRSS/Generating-Clusters/TERSOFF/Only-C1/FIRE-HFTN
REM
REM
REM
REM
REM
REM ./C.cell (11c1c37f851c82e70ff6c80c92926a4b)
REM AIRSS Version 0.9.1 bugfix July 2018 build 013d7b7c2542+ Fri, 06 Jul 2018 19:26:36 +0100
REM compiler GCC version 9.2.1 20190827 (Red Hat 9.2.1-1)
REM options -cpp -mtune=generic -march=x86-64 -g -O0 -fpre-include=/usr/include/finclude/math-vector-fortran.h
REM seed 834387560 192788655 846220908 1615819919 789945431 -1557978257 -744210494 -792105041 688216275 -1673960822 -729080467 1735445333 1989211099 -1790315746 1326835639 719314128 -2105011093 64443558 -1418493220 1213158385 610066248 -1375415567 -1568046611 1930464750 871839281 -2104365508 -1462408213 -1073189609 1105396154 -1691732992 2003992258 815075351 1627957447
REM
CELL 1.54180   50.00000   50.00000   50.00000   90.00000   90.00000   90.00000
LATT -1
SFAC C  
C      1  0.4328040000000  0.6074690000000  0.4339460000000 1.0
C      1  0.4933030000000  0.4845620000000  0.6070240000000 1.0
C      1  0.5475060000000  0.4910040000000  0.4312770000000 1.0
C      1  0.5470660000000  0.5249540000000  0.5881360000000 1.0
C      1  0.4600270000000  0.5206840000000  0.5908450000000 1.0
C      1  0.5861870000000  0.5434210000000  0.4681710000000 1.0
C      1  0.4636620000000  0.5249400000000  0.5271290000000 1.0
C      1  0.4310340000000  0.4684630000000  0.5534000000000 1.0
C      1  0.5415070000000  0.5370430000000  0.4449240000000 1.0
C      1  0.4856070000000  0.4026360000000  0.5114620000000 1.0
C      1  0.4520690000000  0.5420440000000  0.5470510000000 1.0
C      1  0.5141550000000  0.4023280000000  0.4470800000000 1.0
C      1  0.5403930000000  0.5428740000000  0.5675440000000 1.0
C      1  0.4652550000000  0.4117070000000  0.4944450000000 1.0
C      1  0.5416130000000  0.4695000000000  0.4484440000000 1.0
C      1  0.5139940000000  0.5189990000000  0.4099140000000 1.0
C      1  0.4088110000000  0.5721720000000  0.4935030000000 1.0
C      1  0.4719760000000  0.4998340000000  0.6024580000000 1.0
C      1  0.5148910000000  0.4287550000000  0.4454880000000 1.0
C      1  0.5014980000000  0.5914330000000  0.4480370000000 1.0
C      1  0.5589690000000  0.4632330000000  0.4696080000000 1.0
C      1  0.5012080000000  0.5152950000000  0.4975770000000 1.0
C      1  0.4401590000000  0.5191380000000  0.4214220000000 1.0
C      1  0.4116430000000  0.5755720000000  0.4659200000000 1.0
C      1  0.4482390000000  0.5022970000000  0.5181780000000 1.0
C      1  0.5415470000000  0.5400880000000  0.4925000000000 1.0
C      1  0.5151820000000  0.5452770000000  0.4554140000000 1.0
C      1  0.5041470000000  0.6165280000000  0.4545440000000 1.0
C      1  0.5111990000000  0.5457260000000  0.5319250000000 1.0
C      1  0.5152790000000  0.5328550000000  0.4809780000000 1.0
C      1  0.4552140000000  0.5644230000000  0.4205380000000 1.0
C      1  0.4590390000000  0.4310080000000  0.5356960000000 1.0
C      1  0.5067170000000  0.3244470000000  0.4609540000000 1.0
C      1  0.4907350000000  0.5293660000000  0.5199970000000 1.0
C      1  0.5730620000000  0.4655770000000  0.4921090000000 1.0
C      1  0.4945060000000  0.4636420000000  0.5096120000000 1.0
C      1  0.5587060000000  0.5401310000000  0.4687260000000 1.0
C      1  0.5134760000000  0.5503750000000  0.5604260000000 1.0
C      1  0.5123240000000  0.3761350000000  0.4506510000000 1.0
C      1  0.4539320000000  0.4359560000000  0.5062500000000 1.0
C      1  0.5762970000000  0.4713650000000  0.5433320000000 1.0
C      1  0.6120390000000  0.5464680000000  0.4669440000000 1.0
C      1  0.4431140000000  0.4444930000000  0.5541630000000 1.0
C      1  0.4993480000000  0.5642810000000  0.4423290000000 1.0
C      1  0.5285680000000  0.4469660000000  0.5415950000000 1.0
C      1  0.4316560000000  0.4901840000000  0.5377090000000 1.0
C      1  0.5847720000000  0.5070040000000  0.5170190000000 1.0
C      1  0.4310170000000  0.5584630000000  0.5387460000000 1.0
C      1  0.4488070000000  0.5917570000000  0.4190120000000 1.0
C      1  0.5038450000000  0.2990790000000  0.4662360000000 1.0
C      1  0.5741530000000  0.5177740000000  0.5415430000000 1.0
C      1  0.4926010000000  0.4717340000000  0.4431760000000 1.0
C      1  0.4873720000000  0.4219760000000  0.5336860000000 1.0
C      1  0.5064410000000  0.4877740000000  0.5011760000000 1.0
C      1  0.5796950000000  0.4395360000000  0.6190610000000 1.0
C      1  0.5632950000000  0.4578830000000  0.6104840000000 1.0
C      1  0.5048020000000  0.4443730000000  0.5285910000000 1.0
C      1  0.5096170000000  0.3502500000000  0.4556300000000 1.0
C      1  0.5704910000000  0.4945260000000  0.5598210000000 1.0
C      1  0.4664700000000  0.5084720000000  0.4233690000000 1.0
C      1  0.5812930000000  0.4782170000000  0.5154240000000 1.0
C      1  0.4562650000000  0.4931990000000  0.4681430000000 1.0
C      1  0.4816910000000  0.5540090000000  0.4225960000000 1.0
C      1  0.5388550000000  0.5448820000000  0.5201830000000 1.0
C      1  0.4162720000000  0.5538630000000  0.4483060000000 1.0
C      1  0.4160270000000  0.5677700000000  0.5187540000000 1.0
C      1  0.4898930000000  0.5542890000000  0.5746710000000 1.0
C      1  0.4343450000000  0.5459030000000  0.4282480000000 1.0
C      1  0.4166410000000  0.6010270000000  0.4545680000000 1.0
C      1  0.5559300000000  0.5392300000000  0.5428100000000 1.0
C      1  0.5462230000000  0.4774130000000  0.6002470000000 1.0
C      1  0.4667000000000  0.4611310000000  0.5011750000000 1.0
C      1  0.5380550000000  0.5167180000000  0.4252290000000 1.0
C      1  0.4714190000000  0.4900920000000  0.4444260000000 1.0
C      1  0.4647080000000  0.5415110000000  0.5726180000000 1.0
C      1  0.4542910000000  0.4860570000000  0.4951430000000 1.0
C      1  0.5562810000000  0.4983670000000  0.5840360000000 1.0
C      1  0.5187300000000  0.4768360000000  0.6059320000000 1.0
C      1  0.5162140000000  0.4566550000000  0.4457140000000 1.0
C      1  0.4871270000000  0.5265810000000  0.4148540000000 1.0
END
