TITL C-612606-7351-1074 0.622504588860744 125000 -566.83671543429 0 0 96 (C1) n - 1
REM
REM in /home/nfs/bkarasulu/CARBON/AIRSS/Generating-Clusters/TERSOFF/Only-C1/FIRE-HFTN
REM
REM
REM
REM
REM
REM ./C.cell (11c1c37f851c82e70ff6c80c92926a4b)
REM AIRSS Version 0.9.1 bugfix July 2018 build 013d7b7c2542+ Fri, 06 Jul 2018 19:26:36 +0100
REM compiler GCC version 9.2.1 20190827 (Red Hat 9.2.1-1)
REM options -cpp -mtune=generic -march=x86-64 -g -O0 -fpre-include=/usr/include/finclude/math-vector-fortran.h
REM seed 1107975656 463172505 479449136 -245795827 1155473104 1353545847 185058791 -1665615233 -186685513 70120455 -736487519 -1569856511 -694396050 431024016 -997013599 -1161187966 -2029159611 1942423219 -219410158 365557638 1406701995 160772719 -1246573254 1351583872 -558588334 1815597458 1692991568 -2033258744 38416212 1767589081 -2030505186 -2059205892 -1259393873
REM
CELL 1.54180   50.00000   50.00000   50.00000   90.00000   90.00000   90.00000
LATT -1
SFAC C  
C      1  0.4883330000000  0.5378640000000  0.5275050000000 1.0
C      1  0.4526230000000  0.4269290000000  0.4218980000000 1.0
C      1  0.5654550000000  0.4684290000000  0.4984910000000 1.0
C      1  0.4100290000000  0.4146400000000  0.4414680000000 1.0
C      1  0.5537850000000  0.4837780000000  0.4500960000000 1.0
C      1  0.4365610000000  0.4227840000000  0.4446520000000 1.0
C      1  0.5137560000000  0.4765620000000  0.6014820000000 1.0
C      1  0.6049010000000  0.6362500000000  0.5350640000000 1.0
C      1  0.3598430000000  0.3996420000000  0.4370750000000 1.0
C      1  0.4902650000000  0.4034400000000  0.4659050000000 1.0
C      1  0.4855440000000  0.4541570000000  0.3919780000000 1.0
C      1  0.4471760000000  0.4265590000000  0.4707840000000 1.0
C      1  0.4693500000000  0.4359850000000  0.4032130000000 1.0
C      1  0.5472960000000  0.4370470000000  0.4665800000000 1.0
C      1  0.5908810000000  0.6159400000000  0.5434630000000 1.0
C      1  0.5697570000000  0.4863290000000  0.4747070000000 1.0
C      1  0.4671710000000  0.5814600000000  0.5127350000000 1.0
C      1  0.4788790000000  0.5691930000000  0.4879620000000 1.0
C      1  0.5617570000000  0.5743500000000  0.5585480000000 1.0
C      1  0.6151070000000  0.5153910000000  0.4700200000000 1.0
C      1  0.4321000000000  0.5545760000000  0.4527100000000 1.0
C      1  0.5010780000000  0.5275480000000  0.4314850000000 1.0
C      1  0.4679030000000  0.4940560000000  0.4887780000000 1.0
C      1  0.4675320000000  0.5429250000000  0.4818710000000 1.0
C      1  0.4876240000000  0.5535790000000  0.4376870000000 1.0
C      1  0.4264530000000  0.5217320000000  0.4155320000000 1.0
C      1  0.5689430000000  0.4756460000000  0.5265440000000 1.0
C      1  0.5507920000000  0.5253860000000  0.5560690000000 1.0
C      1  0.5185270000000  0.4376520000000  0.5716050000000 1.0
C      1  0.4628090000000  0.5163680000000  0.4709690000000 1.0
C      1  0.3847440000000  0.4070660000000  0.4391860000000 1.0
C      1  0.5375360000000  0.3500510000000  0.4318910000000 1.0
C      1  0.4941330000000  0.4809570000000  0.3971620000000 1.0
C      1  0.4843010000000  0.4729030000000  0.4778210000000 1.0
C      1  0.4753130000000  0.4252030000000  0.4747870000000 1.0
C      1  0.4901720000000  0.5029480000000  0.4401990000000 1.0
C      1  0.5024670000000  0.4421090000000  0.5108510000000 1.0
C      1  0.5679440000000  0.5434330000000  0.5115440000000 1.0
C      1  0.4389950000000  0.4621040000000  0.5383520000000 1.0
C      1  0.5214500000000  0.3670500000000  0.4433750000000 1.0
C      1  0.4198000000000  0.5103030000000  0.5875690000000 1.0
C      1  0.4511650000000  0.5082900000000  0.4174100000000 1.0
C      1  0.5578890000000  0.4421560000000  0.4909230000000 1.0
C      1  0.4874680000000  0.4469110000000  0.4885890000000 1.0
C      1  0.4603450000000  0.4992630000000  0.5157520000000 1.0
C      1  0.4626260000000  0.5402970000000  0.5818140000000 1.0
C      1  0.5242660000000  0.5111020000000  0.5473600000000 1.0
C      1  0.4609340000000  0.5771590000000  0.5395630000000 1.0
C      1  0.5826150000000  0.5004910000000  0.5292070000000 1.0
C      1  0.5004120000000  0.4997740000000  0.5891300000000 1.0
C      1  0.5305490000000  0.5561710000000  0.5904670000000 1.0
C      1  0.5322470000000  0.5279200000000  0.4805360000000 1.0
C      1  0.5668840000000  0.5087430000000  0.5757590000000 1.0
C      1  0.4450350000000  0.5428660000000  0.5012440000000 1.0
C      1  0.4313430000000  0.4446650000000  0.5177380000000 1.0
C      1  0.4628830000000  0.5626340000000  0.5630390000000 1.0
C      1  0.5207200000000  0.5638070000000  0.6133780000000 1.0
C      1  0.4222320000000  0.4674970000000  0.5601390000000 1.0
C      1  0.5701980000000  0.5256050000000  0.5327820000000 1.0
C      1  0.4710160000000  0.4991110000000  0.3981870000000 1.0
C      1  0.5390100000000  0.4437780000000  0.5547800000000 1.0
C      1  0.4839450000000  0.5231970000000  0.5920670000000 1.0
C      1  0.4622700000000  0.5087140000000  0.4437880000000 1.0
C      1  0.5346280000000  0.5558640000000  0.4400220000000 1.0
C      1  0.4967070000000  0.4781920000000  0.4526500000000 1.0
C      1  0.5036320000000  0.5784530000000  0.4762840000000 1.0
C      1  0.4367960000000  0.5307910000000  0.5884630000000 1.0
C      1  0.5519990000000  0.5418980000000  0.4902950000000 1.0
C      1  0.5184960000000  0.5811840000000  0.5220150000000 1.0
C      1  0.5211730000000  0.5885130000000  0.4960190000000 1.0
C      1  0.5302680000000  0.5285440000000  0.4303160000000 1.0
C      1  0.4617420000000  0.4789020000000  0.5350040000000 1.0
C      1  0.5401220000000  0.4573510000000  0.4487560000000 1.0
C      1  0.4598440000000  0.5277320000000  0.5222930000000 1.0
C      1  0.5056200000000  0.4504800000000  0.5920630000000 1.0
C      1  0.5571940000000  0.4656420000000  0.5521100000000 1.0
C      1  0.5152520000000  0.4632830000000  0.4367790000000 1.0
C      1  0.4147160000000  0.4860940000000  0.5776820000000 1.0
C      1  0.4859540000000  0.4783850000000  0.5490290000000 1.0
C      1  0.5054530000000  0.4946430000000  0.5613400000000 1.0
C      1  0.5929480000000  0.5021110000000  0.4734710000000 1.0
C      1  0.5765530000000  0.5952550000000  0.5517860000000 1.0
C      1  0.4596180000000  0.5605530000000  0.4424030000000 1.0
C      1  0.5465470000000  0.5526770000000  0.5677790000000 1.0
C      1  0.4320950000000  0.4337410000000  0.4934020000000 1.0
C      1  0.5404280000000  0.5011670000000  0.4274850000000 1.0
C      1  0.5101260000000  0.5195190000000  0.5243340000000 1.0
C      1  0.5099840000000  0.5687950000000  0.4502580000000 1.0
C      1  0.4246740000000  0.5519570000000  0.4821250000000 1.0
C      1  0.5873660000000  0.5190830000000  0.5905380000000 1.0
C      1  0.4169170000000  0.5404020000000  0.4329360000000 1.0
C      1  0.5192920000000  0.4821150000000  0.4136160000000 1.0
C      1  0.5022850000000  0.5626630000000  0.5332580000000 1.0
C      1  0.5053130000000  0.3845910000000  0.4549670000000 1.0
C      1  0.5424420000000  0.4772020000000  0.6001930000000 1.0
C      1  0.5586760000000  0.4817360000000  0.5770600000000 1.0
END
