TITL C-612604-1799-35 -143.221544565346 125000 -679.655099832856 0 0 111 (C1) n - 1
REM
REM in /home/nfs/bkarasulu/CARBON/AIRSS/Generating-Clusters/TERSOFF/Only-C1/FIRE-HFTN
REM
REM
REM
REM
REM
REM ./C.cell (11c1c37f851c82e70ff6c80c92926a4b)
REM AIRSS Version 0.9.1 bugfix July 2018 build 013d7b7c2542+ Fri, 06 Jul 2018 19:26:36 +0100
REM compiler GCC version 9.2.1 20190827 (Red Hat 9.2.1-1)
REM options -cpp -mtune=generic -march=x86-64 -g -O0 -fpre-include=/usr/include/finclude/math-vector-fortran.h
REM seed -1351597055 -1209878019 207473882 2100553377 2084260535 -1520597745 -1896097506 -1416427240 -1320676910 -299349895 1143163369 -2127081422 1146700306 1420736751 -2036036587 1846591097 1217693702 2115837792 -28489672 -927797367 911549120 -857742762 -1911588220 316526624 1262440042 886888309 -657045276 601604321 -1138489417 1687385069 633043820 -137137726 -1778994501
REM
CELL 1.54180   50.00000   50.00000   50.00000   90.00000   90.00000   90.00000
LATT -1
SFAC C  
C      1  0.4943570000000  0.5742620000000  0.5119740000000 1.0
C      1  0.5468080000000  0.4265640000000  0.6016410000000 1.0
C      1  0.5004280000000  0.5836650000000  0.5372860000000 1.0
C      1  0.4234940000000  0.5622960000000  0.5739990000000 1.0
C      1  0.5893590000000  0.4559660000000  0.4603530000000 1.0
C      1  0.5555080000000  0.4431110000000  0.4296580000000 1.0
C      1  0.4300370000000  0.4947550000000  0.5777710000000 1.0
C      1  0.4336090000000  0.4147650000000  0.4821170000000 1.0
C      1  0.4647960000000  0.5416270000000  0.4979580000000 1.0
C      1  0.4557040000000  0.4785170000000  0.5349790000000 1.0
C      1  0.5314080000000  0.4314190000000  0.4221820000000 1.0
C      1  0.6175870000000  0.5353000000000  0.5483520000000 1.0
C      1  0.5674920000000  0.4992370000000  0.3846640000000 1.0
C      1  0.4055420000000  0.5519690000000  0.5022910000000 1.0
C      1  0.4652690000000  0.4144780000000  0.5562880000000 1.0
C      1  0.4616770000000  0.4635800000000  0.5090670000000 1.0
C      1  0.4037550000000  0.4291020000000  0.5231340000000 1.0
C      1  0.4914530000000  0.5469420000000  0.5051400000000 1.0
C      1  0.4029680000000  0.5464760000000  0.5672900000000 1.0
C      1  0.4685970000000  0.4352990000000  0.5139820000000 1.0
C      1  0.3661260000000  0.4596630000000  0.5191420000000 1.0
C      1  0.6051760000000  0.4171780000000  0.4785330000000 1.0
C      1  0.4553100000000  0.4164670000000  0.4350100000000 1.0
C      1  0.4434820000000  0.5318950000000  0.4277250000000 1.0
C      1  0.4683490000000  0.5397850000000  0.4177110000000 1.0
C      1  0.5241460000000  0.5935620000000  0.4852190000000 1.0
C      1  0.4984550000000  0.5547130000000  0.5746670000000 1.0
C      1  0.4500990000000  0.5636940000000  0.5715980000000 1.0
C      1  0.5056350000000  0.5683430000000  0.4084450000000 1.0
C      1  0.4548850000000  0.5000120000000  0.4622530000000 1.0
C      1  0.6086050000000  0.4459190000000  0.4790630000000 1.0
C      1  0.5035330000000  0.4458930000000  0.5471640000000 1.0
C      1  0.4370580000000  0.4138070000000  0.4543560000000 1.0
C      1  0.4019180000000  0.4993670000000  0.5561880000000 1.0
C      1  0.5593140000000  0.5248920000000  0.3785100000000 1.0
C      1  0.5743200000000  0.4327900000000  0.4486630000000 1.0
C      1  0.5213490000000  0.5150420000000  0.5446730000000 1.0
C      1  0.5733960000000  0.5041950000000  0.4617700000000 1.0
C      1  0.4391240000000  0.5068020000000  0.4397590000000 1.0
C      1  0.5784920000000  0.5511390000000  0.4721820000000 1.0
C      1  0.4157410000000  0.4153310000000  0.5447590000000 1.0
C      1  0.5380700000000  0.5335550000000  0.3963670000000 1.0
C      1  0.5679690000000  0.5138630000000  0.5456530000000 1.0
C      1  0.4521490000000  0.5182890000000  0.5073650000000 1.0
C      1  0.4811770000000  0.5647920000000  0.4216860000000 1.0
C      1  0.4202840000000  0.4889920000000  0.4295290000000 1.0
C      1  0.4955630000000  0.5894240000000  0.4876880000000 1.0
C      1  0.4374880000000  0.4728870000000  0.4938630000000 1.0
C      1  0.5486890000000  0.4625690000000  0.5321650000000 1.0
C      1  0.4245990000000  0.5649870000000  0.4882840000000 1.0
C      1  0.5887060000000  0.5277840000000  0.4629960000000 1.0
C      1  0.5763460000000  0.3832000000000  0.4554730000000 1.0
C      1  0.4102070000000  0.4201730000000  0.4969590000000 1.0
C      1  0.5938660000000  0.5235180000000  0.5483680000000 1.0
C      1  0.5449510000000  0.5306010000000  0.5479560000000 1.0
C      1  0.5055870000000  0.4249910000000  0.4210870000000 1.0
C      1  0.4808970000000  0.4878240000000  0.4663520000000 1.0
C      1  0.6632860000000  0.5612180000000  0.5464080000000 1.0
C      1  0.5062930000000  0.4505190000000  0.5752710000000 1.0
C      1  0.5843950000000  0.4085950000000  0.4602980000000 1.0
C      1  0.5199570000000  0.4613180000000  0.5290450000000 1.0
C      1  0.5065320000000  0.5484480000000  0.6007370000000 1.0
C      1  0.5034600000000  0.4915740000000  0.4492510000000 1.0
C      1  0.4593610000000  0.5075310000000  0.5332710000000 1.0
C      1  0.5465490000000  0.5073330000000  0.4715220000000 1.0
C      1  0.5508620000000  0.5798500000000  0.3983070000000 1.0
C      1  0.4848840000000  0.5178860000000  0.4117110000000 1.0
C      1  0.5525090000000  0.4889940000000  0.4071050000000 1.0
C      1  0.4854840000000  0.4760930000000  0.4937250000000 1.0
C      1  0.5314890000000  0.5606160000000  0.4008610000000 1.0
C      1  0.5278350000000  0.4886510000000  0.4627630000000 1.0
C      1  0.4740740000000  0.5811240000000  0.4433610000000 1.0
C      1  0.4876140000000  0.5062560000000  0.6175530000000 1.0
C      1  0.4813700000000  0.4297910000000  0.5387690000000 1.0
C      1  0.5528770000000  0.5543420000000  0.4836870000000 1.0
C      1  0.5075210000000  0.4807870000000  0.5118950000000 1.0
C      1  0.5267620000000  0.4379270000000  0.5894700000000 1.0
C      1  0.5445410000000  0.5772480000000  0.4981380000000 1.0
C      1  0.4720130000000  0.5467310000000  0.5663370000000 1.0
C      1  0.3966260000000  0.5353910000000  0.5215400000000 1.0
C      1  0.5617740000000  0.4712690000000  0.4263450000000 1.0
C      1  0.4795870000000  0.4204880000000  0.4247540000000 1.0
C      1  0.4525280000000  0.5639090000000  0.4842530000000 1.0
C      1  0.6406870000000  0.5482640000000  0.5474450000000 1.0
C      1  0.3976060000000  0.5261260000000  0.5483800000000 1.0
C      1  0.4336230000000  0.4702520000000  0.5500750000000 1.0
C      1  0.5060060000000  0.5040280000000  0.4234830000000 1.0
C      1  0.5126900000000  0.5074590000000  0.5191210000000 1.0
C      1  0.4559930000000  0.5034490000000  0.5806730000000 1.0
C      1  0.4757820000000  0.4911410000000  0.5970400000000 1.0
C      1  0.4407300000000  0.5006520000000  0.4872940000000 1.0
C      1  0.5148260000000  0.5681590000000  0.5558720000000 1.0
C      1  0.5624030000000  0.4865010000000  0.5393520000000 1.0
C      1  0.5725340000000  0.5938890000000  0.5344580000000 1.0
C      1  0.4883280000000  0.4675760000000  0.5884420000000 1.0
C      1  0.4722350000000  0.5820640000000  0.4713990000000 1.0
C      1  0.5363610000000  0.5309480000000  0.4844490000000 1.0
C      1  0.4387870000000  0.4097370000000  0.5572840000000 1.0
C      1  0.5013290000000  0.5292370000000  0.6186360000000 1.0
C      1  0.3915910000000  0.4546910000000  0.5277990000000 1.0
C      1  0.5127180000000  0.5288820000000  0.5006700000000 1.0
C      1  0.6260420000000  0.4600720000000  0.4941810000000 1.0
C      1  0.5525960000000  0.5769130000000  0.5261260000000 1.0
C      1  0.5789770000000  0.4799000000000  0.4486200000000 1.0
C      1  0.4034260000000  0.4708710000000  0.4213710000000 1.0
C      1  0.4064040000000  0.4743560000000  0.5414500000000 1.0
C      1  0.4574770000000  0.4161290000000  0.4971150000000 1.0
C      1  0.5632880000000  0.4397140000000  0.5278940000000 1.0
C      1  0.4648890000000  0.5200860000000  0.5586960000000 1.0
C      1  0.5312550000000  0.5087840000000  0.4114290000000 1.0
C      1  0.5403220000000  0.5589640000000  0.5455610000000 1.0
END
