TITL C-612606-7351-1295 0.0012572336083638 125000 -650.222709567899 0 0 107 (C1) n - 1
REM
REM in /home/nfs/bkarasulu/CARBON/AIRSS/Generating-Clusters/TERSOFF/Only-C1/FIRE-HFTN
REM
REM
REM
REM
REM
REM ./C.cell (11c1c37f851c82e70ff6c80c92926a4b)
REM AIRSS Version 0.9.1 bugfix July 2018 build 013d7b7c2542+ Fri, 06 Jul 2018 19:26:36 +0100
REM compiler GCC version 9.2.1 20190827 (Red Hat 9.2.1-1)
REM options -cpp -mtune=generic -march=x86-64 -g -O0 -fpre-include=/usr/include/finclude/math-vector-fortran.h
REM seed 653020563 1601530120 1565335616 -809861887 -2140724474 -1818077905 1798893102 1670125331 923064346 -185049507 -501994528 1475051327 1030813572 1251452445 -1640388610 761946070 -2089209527 459247519 1369271198 768262636 1356885283 371750272 -1562482699 -374239074 -1585889447 -845427524 -690242205 -1090205461 -158380124 -263466414 -1016394823 -1371199923 1075849327
REM
CELL 1.54180   50.00000   50.00000   50.00000   90.00000   90.00000   90.00000
LATT -1
SFAC C  
C      1  0.5074930000000  0.5224130000000  0.4974610000000 1.0
C      1  0.5572550000000  0.5483710000000  0.5354190000000 1.0
C      1  0.5465590000000  0.5062100000000  0.5139460000000 1.0
C      1  0.5508670000000  0.4088990000000  0.5076950000000 1.0
C      1  0.5527920000000  0.4360760000000  0.5167650000000 1.0
C      1  0.5374020000000  0.5318510000000  0.4154190000000 1.0
C      1  0.5796380000000  0.5509830000000  0.4773920000000 1.0
C      1  0.5695390000000  0.4863000000000  0.5506100000000 1.0
C      1  0.4407300000000  0.4134370000000  0.4977270000000 1.0
C      1  0.4932820000000  0.4705580000000  0.4021650000000 1.0
C      1  0.4447500000000  0.4408650000000  0.4572310000000 1.0
C      1  0.4924810000000  0.4135500000000  0.5477080000000 1.0
C      1  0.4660360000000  0.5940780000000  0.4589160000000 1.0
C      1  0.4517880000000  0.4400330000000  0.5705760000000 1.0
C      1  0.5496020000000  0.4830610000000  0.4969460000000 1.0
C      1  0.5077650000000  0.5210480000000  0.5924540000000 1.0
C      1  0.4818610000000  0.5460240000000  0.4513800000000 1.0
C      1  0.4241280000000  0.5261300000000  0.5068140000000 1.0
C      1  0.4438760000000  0.5322930000000  0.4266650000000 1.0
C      1  0.5318190000000  0.5125020000000  0.6043030000000 1.0
C      1  0.5852080000000  0.4601250000000  0.3859000000000 1.0
C      1  0.4812160000000  0.4572510000000  0.5400030000000 1.0
C      1  0.5111690000000  0.6135030000000  0.4583950000000 1.0
C      1  0.4358560000000  0.4641450000000  0.5707270000000 1.0
C      1  0.4456080000000  0.5334450000000  0.5839180000000 1.0
C      1  0.4830400000000  0.4145010000000  0.4450410000000 1.0
C      1  0.4391470000000  0.5877860000000  0.4643270000000 1.0
C      1  0.5220840000000  0.5934250000000  0.4408560000000 1.0
C      1  0.4664870000000  0.5608920000000  0.5101350000000 1.0
C      1  0.4847970000000  0.6142560000000  0.4664140000000 1.0
C      1  0.4839700000000  0.3974230000000  0.5244230000000 1.0
C      1  0.5269330000000  0.4974310000000  0.4586660000000 1.0
C      1  0.5440630000000  0.4387670000000  0.5447070000000 1.0
C      1  0.5466410000000  0.4661240000000  0.5540030000000 1.0
C      1  0.4829850000000  0.5083520000000  0.5980350000000 1.0
C      1  0.4662800000000  0.5151780000000  0.5236240000000 1.0
C      1  0.3979520000000  0.4712960000000  0.6597380000000 1.0
C      1  0.4970120000000  0.3979940000000  0.4607250000000 1.0
C      1  0.5673740000000  0.5095900000000  0.5690240000000 1.0
C      1  0.5426800000000  0.5736630000000  0.4490330000000 1.0
C      1  0.5980240000000  0.4882910000000  0.4756590000000 1.0
C      1  0.5082520000000  0.5209520000000  0.5444730000000 1.0
C      1  0.4732160000000  0.4807740000000  0.4821920000000 1.0
C      1  0.4743060000000  0.5276070000000  0.4255190000000 1.0
C      1  0.5212900000000  0.5161260000000  0.5203820000000 1.0
C      1  0.5099020000000  0.5361540000000  0.5679560000000 1.0
C      1  0.4941630000000  0.4625430000000  0.4809620000000 1.0
C      1  0.5660920000000  0.5369050000000  0.5598500000000 1.0
C      1  0.5115650000000  0.5721710000000  0.5361240000000 1.0
C      1  0.5767300000000  0.4846110000000  0.4569260000000 1.0
C      1  0.5416310000000  0.4772860000000  0.3964920000000 1.0
C      1  0.4944550000000  0.4794300000000  0.5486960000000 1.0
C      1  0.5845410000000  0.5299560000000  0.4965640000000 1.0
C      1  0.4596280000000  0.5314220000000  0.4714110000000 1.0
C      1  0.4535320000000  0.5342890000000  0.5023750000000 1.0
C      1  0.4145050000000  0.4755640000000  0.5210020000000 1.0
C      1  0.4222260000000  0.5650940000000  0.4604540000000 1.0
C      1  0.4247650000000  0.4795360000000  0.6152870000000 1.0
C      1  0.4677830000000  0.5019480000000  0.4647590000000 1.0
C      1  0.5071660000000  0.3886910000000  0.5100830000000 1.0
C      1  0.5159040000000  0.5181360000000  0.4009780000000 1.0
C      1  0.4789520000000  0.5743560000000  0.4433630000000 1.0
C      1  0.5512440000000  0.4882620000000  0.4687140000000 1.0
C      1  0.4109820000000  0.5034090000000  0.5142230000000 1.0
C      1  0.4558240000000  0.5580270000000  0.5795950000000 1.0
C      1  0.4391700000000  0.4839700000000  0.5915580000000 1.0
C      1  0.5307000000000  0.3970590000000  0.5260800000000 1.0
C      1  0.4811010000000  0.5005890000000  0.4388610000000 1.0
C      1  0.5888550000000  0.4897060000000  0.5270800000000 1.0
C      1  0.5389010000000  0.5690020000000  0.5258000000000 1.0
C      1  0.4187490000000  0.4688930000000  0.5484090000000 1.0
C      1  0.4348760000000  0.5402500000000  0.4538170000000 1.0
C      1  0.4999680000000  0.5814330000000  0.4245070000000 1.0
C      1  0.5635780000000  0.5290750000000  0.5153830000000 1.0
C      1  0.5413000000000  0.4564610000000  0.5010690000000 1.0
C      1  0.4891920000000  0.5731350000000  0.5182220000000 1.0
C      1  0.3950850000000  0.5670370000000  0.4628190000000 1.0
C      1  0.4337980000000  0.4374400000000  0.4842430000000 1.0
C      1  0.5577230000000  0.5704270000000  0.4741790000000 1.0
C      1  0.5205900000000  0.4766500000000  0.5594290000000 1.0
C      1  0.4301500000000  0.4605960000000  0.5014400000000 1.0
C      1  0.4745610000000  0.4344880000000  0.5546120000000 1.0
C      1  0.5332550000000  0.5484060000000  0.4383790000000 1.0
C      1  0.5109670000000  0.5406260000000  0.4546940000000 1.0
C      1  0.4769380000000  0.4543600000000  0.4174260000000 1.0
C      1  0.5963190000000  0.5029160000000  0.5003250000000 1.0
C      1  0.5777550000000  0.4782690000000  0.4297320000000 1.0
C      1  0.5071110000000  0.4885270000000  0.4408770000000 1.0
C      1  0.5036000000000  0.5635090000000  0.5628410000000 1.0
C      1  0.5227490000000  0.4167020000000  0.5475640000000 1.0
C      1  0.4542090000000  0.4751230000000  0.5008720000000 1.0
C      1  0.4846460000000  0.5049390000000  0.5419380000000 1.0
C      1  0.4785880000000  0.5713380000000  0.5737770000000 1.0
C      1  0.4984210000000  0.5641310000000  0.4016820000000 1.0
C      1  0.5455800000000  0.5783240000000  0.4992240000000 1.0
C      1  0.5162740000000  0.4509420000000  0.4896030000000 1.0
C      1  0.4670310000000  0.4372010000000  0.4388260000000 1.0
C      1  0.4555030000000  0.5077160000000  0.5907700000000 1.0
C      1  0.4927390000000  0.5355270000000  0.4029820000000 1.0
C      1  0.4587090000000  0.4000910000000  0.5124570000000 1.0
C      1  0.4112500000000  0.4753820000000  0.6376910000000 1.0
C      1  0.5140890000000  0.3916390000000  0.4818580000000 1.0
C      1  0.5420780000000  0.3998370000000  0.4818290000000 1.0
C      1  0.5560670000000  0.5058130000000  0.5947160000000 1.0
C      1  0.5169760000000  0.5202640000000  0.4719860000000 1.0
C      1  0.5682750000000  0.4718360000000  0.4039600000000 1.0
C      1  0.5157310000000  0.4890000000000  0.3971550000000 1.0
END
