TITL C-612603-7354-1016 0.389311261191035 125000 -404.665389871185 0 0 67 (C1) n - 1
REM
REM in /home/nfs/bkarasulu/CARBON/AIRSS/Generating-Clusters/TERSOFF/Only-C1/FIRE-HFTN
REM
REM
REM
REM
REM
REM ./C.cell (11c1c37f851c82e70ff6c80c92926a4b)
REM AIRSS Version 0.9.1 bugfix July 2018 build 013d7b7c2542+ Fri, 06 Jul 2018 19:26:36 +0100
REM compiler GCC version 9.2.1 20190827 (Red Hat 9.2.1-1)
REM options -cpp -mtune=generic -march=x86-64 -g -O0 -fpre-include=/usr/include/finclude/math-vector-fortran.h
REM seed 249357636 224919563 244041020 1224841249 -309520814 1569484364 691262338 -1032959350 1826032963 856352888 790145953 199938538 -1896535432 -723756343 2107834976 257772726 -938131690 -1468080111 286081029 706823684 244132089 -1120480472 -219890944 1844178345 398093282 240113140 1353800393 1247267630 -1754444746 -1417577415 1145108043 2117650445 -1550139151
REM
CELL 1.54180   50.00000   50.00000   50.00000   90.00000   90.00000   90.00000
LATT -1
SFAC C  
C      1  0.4603620000000  0.6078660000000  0.5951570000000 1.0
C      1  0.5196210000000  0.5213990000000  0.4746800000000 1.0
C      1  0.5374760000000  0.5927610000000  0.4103710000000 1.0
C      1  0.5201000000000  0.5658140000000  0.4519970000000 1.0
C      1  0.5342190000000  0.4243370000000  0.5421270000000 1.0
C      1  0.5550190000000  0.5549580000000  0.5017820000000 1.0
C      1  0.4440900000000  0.5208490000000  0.4636810000000 1.0
C      1  0.4394370000000  0.4739870000000  0.4752770000000 1.0
C      1  0.5162480000000  0.4869670000000  0.4125330000000 1.0
C      1  0.4785850000000  0.4268840000000  0.4665420000000 1.0
C      1  0.5839210000000  0.5320920000000  0.5346750000000 1.0
C      1  0.5271840000000  0.5620150000000  0.5003110000000 1.0
C      1  0.4410620000000  0.4941750000000  0.4557680000000 1.0
C      1  0.5679270000000  0.5403640000000  0.4806190000000 1.0
C      1  0.4614440000000  0.4729180000000  0.5186120000000 1.0
C      1  0.4980080000000  0.5055120000000  0.5172520000000 1.0
C      1  0.5119550000000  0.5742920000000  0.5206110000000 1.0
C      1  0.5782530000000  0.4966640000000  0.4992490000000 1.0
C      1  0.5565910000000  0.4989230000000  0.4553890000000 1.0
C      1  0.5284080000000  0.4297350000000  0.4626270000000 1.0
C      1  0.5307550000000  0.4531260000000  0.4441370000000 1.0
C      1  0.4615970000000  0.4325640000000  0.4895740000000 1.0
C      1  0.5321440000000  0.5128060000000  0.4506070000000 1.0
C      1  0.4822450000000  0.5520620000000  0.4791420000000 1.0
C      1  0.5337420000000  0.4798210000000  0.5061440000000 1.0
C      1  0.4235690000000  0.5047110000000  0.5212870000000 1.0
C      1  0.5515570000000  0.4149000000000  0.5597930000000 1.0
C      1  0.5687650000000  0.4056890000000  0.5770740000000 1.0
C      1  0.5889700000000  0.5086630000000  0.5222860000000 1.0
C      1  0.4648130000000  0.5912790000000  0.5749850000000 1.0
C      1  0.5540870000000  0.4701210000000  0.4536200000000 1.0
C      1  0.4641070000000  0.4712270000000  0.4159270000000 1.0
C      1  0.5609960000000  0.4739950000000  0.5000200000000 1.0
C      1  0.4510940000000  0.4992180000000  0.5599280000000 1.0
C      1  0.5020430000000  0.4186480000000  0.5053880000000 1.0
C      1  0.4467710000000  0.4866190000000  0.4293250000000 1.0
C      1  0.5140320000000  0.4626780000000  0.5189850000000 1.0
C      1  0.5114520000000  0.4618550000000  0.4246770000000 1.0
C      1  0.4756850000000  0.4316950000000  0.4394410000000 1.0
C      1  0.4173760000000  0.5792810000000  0.5247490000000 1.0
C      1  0.4588910000000  0.5409680000000  0.4728300000000 1.0
C      1  0.4624200000000  0.4646120000000  0.5995820000000 1.0
C      1  0.4520970000000  0.4587780000000  0.4952440000000 1.0
C      1  0.4908370000000  0.5771050000000  0.5367260000000 1.0
C      1  0.4842670000000  0.4530120000000  0.4234610000000 1.0
C      1  0.4437550000000  0.4894880000000  0.5338750000000 1.0
C      1  0.5053530000000  0.4212610000000  0.4763390000000 1.0
C      1  0.4524870000000  0.5273690000000  0.5627650000000 1.0
C      1  0.4563960000000  0.4819080000000  0.5810440000000 1.0
C      1  0.4686090000000  0.5735630000000  0.5536750000000 1.0
C      1  0.5728620000000  0.5125930000000  0.4755880000000 1.0
C      1  0.5173610000000  0.4349410000000  0.5227510000000 1.0
C      1  0.4892240000000  0.4780230000000  0.5215770000000 1.0
C      1  0.4735120000000  0.4169310000000  0.5113060000000 1.0
C      1  0.5640740000000  0.4562560000000  0.4779230000000 1.0
C      1  0.5286470000000  0.5796970000000  0.4311290000000 1.0
C      1  0.4497680000000  0.5524440000000  0.5499070000000 1.0
C      1  0.4961120000000  0.5248600000000  0.5361140000000 1.0
C      1  0.4558870000000  0.6241680000000  0.6150020000000 1.0
C      1  0.4180350000000  0.5309690000000  0.5205810000000 1.0
C      1  0.4280010000000  0.5550380000000  0.5314060000000 1.0
C      1  0.5210770000000  0.5102610000000  0.4250870000000 1.0
C      1  0.5119280000000  0.5508580000000  0.4764560000000 1.0
C      1  0.5195930000000  0.5047800000000  0.4980140000000 1.0
C      1  0.5685490000000  0.5528170000000  0.5265840000000 1.0
C      1  0.5534430000000  0.4299130000000  0.4771470000000 1.0
C      1  0.4611030000000  0.4039170000000  0.5315380000000 1.0
END
