TITL C-612602-9376-319 -0.00037957558174082 125000 -718.685529930263 0 0 117 (C1) n - 1
REM
REM in /home/nfs/bkarasulu/CARBON/AIRSS/Generating-Clusters/TERSOFF/Only-C1/FIRE-HFTN
REM
REM
REM
REM
REM
REM ./C.cell (11c1c37f851c82e70ff6c80c92926a4b)
REM AIRSS Version 0.9.1 bugfix July 2018 build 013d7b7c2542+ Fri, 06 Jul 2018 19:26:36 +0100
REM compiler GCC version 9.2.1 20190827 (Red Hat 9.2.1-1)
REM options -cpp -mtune=generic -march=x86-64 -g -O0 -fpre-include=/usr/include/finclude/math-vector-fortran.h
REM seed 2029631435 1376375284 -1312670087 -620857568 108888077 -512477650 -583120981 405493558 -1805144923 -2131971977 -160123046 483285815 1864703145 811376809 1360764450 -930187354 680961304 -245605917 1223297654 -72695197 -2129789685 1628815660 -1671499366 -232066544 440711725 -2051687448 131604970 1576696295 1564586958 -1171625342 -323265921 -670718567 -1011061299
REM
CELL 1.54180   50.00000   50.00000   50.00000   90.00000   90.00000   90.00000
LATT -1
SFAC C  
C      1  0.5214560000000  0.5682540000000  0.4620320000000 1.0
C      1  0.5218160000000  0.4926500000000  0.4176360000000 1.0
C      1  0.4893120000000  0.5450600000000  0.4937920000000 1.0
C      1  0.4308490000000  0.4722430000000  0.5167170000000 1.0
C      1  0.4328910000000  0.4972500000000  0.5038380000000 1.0
C      1  0.4684230000000  0.5877860000000  0.5164740000000 1.0
C      1  0.5168750000000  0.5625090000000  0.5566710000000 1.0
C      1  0.5079490000000  0.5427700000000  0.4028300000000 1.0
C      1  0.5752260000000  0.4164170000000  0.5149840000000 1.0
C      1  0.4537480000000  0.5514830000000  0.6395910000000 1.0
C      1  0.4409210000000  0.5420960000000  0.3909210000000 1.0
C      1  0.5299740000000  0.5240430000000  0.5125490000000 1.0
C      1  0.4919040000000  0.5215750000000  0.3962900000000 1.0
C      1  0.4463610000000  0.4671160000000  0.5404610000000 1.0
C      1  0.4451510000000  0.4868560000000  0.5845270000000 1.0
C      1  0.4119340000000  0.4511340000000  0.4747230000000 1.0
C      1  0.4652880000000  0.4280060000000  0.4722310000000 1.0
C      1  0.4913760000000  0.4597520000000  0.5905190000000 1.0
C      1  0.5380590000000  0.5135760000000  0.4241160000000 1.0
C      1  0.5772350000000  0.5336370000000  0.5446770000000 1.0
C      1  0.5260860000000  0.5923400000000  0.4764690000000 1.0
C      1  0.4431770000000  0.4405600000000  0.5500670000000 1.0
C      1  0.5501470000000  0.4621750000000  0.5511450000000 1.0
C      1  0.4256950000000  0.4714030000000  0.4262350000000 1.0
C      1  0.5130260000000  0.6037920000000  0.4972540000000 1.0
C      1  0.4326870000000  0.3998390000000  0.5197540000000 1.0
C      1  0.4924810000000  0.5556960000000  0.5693600000000 1.0
C      1  0.5362330000000  0.5109840000000  0.5365750000000 1.0
C      1  0.5294470000000  0.5406110000000  0.4215340000000 1.0
C      1  0.5596060000000  0.5987760000000  0.4191920000000 1.0
C      1  0.4982160000000  0.4882300000000  0.4749460000000 1.0
C      1  0.4369850000000  0.4160480000000  0.5407640000000 1.0
C      1  0.5610030000000  0.5756380000000  0.4337580000000 1.0
C      1  0.4807750000000  0.4922410000000  0.4962900000000 1.0
C      1  0.4405970000000  0.5144930000000  0.5755700000000 1.0
C      1  0.5175650000000  0.4418930000000  0.5148070000000 1.0
C      1  0.4300190000000  0.5721720000000  0.4859950000000 1.0
C      1  0.5856330000000  0.5660600000000  0.4428310000000 1.0
C      1  0.5228570000000  0.3805570000000  0.4866380000000 1.0
C      1  0.6103820000000  0.5598040000000  0.4480620000000 1.0
C      1  0.5602740000000  0.5118110000000  0.5485810000000 1.0
C      1  0.5422720000000  0.4720200000000  0.4689320000000 1.0
C      1  0.5406480000000  0.5370870000000  0.5906620000000 1.0
C      1  0.5118440000000  0.5452740000000  0.5116720000000 1.0
C      1  0.4223280000000  0.5280000000000  0.4545830000000 1.0
C      1  0.4348290000000  0.3956950000000  0.4932190000000 1.0
C      1  0.4245460000000  0.5539860000000  0.4665860000000 1.0
C      1  0.4599270000000  0.5294890000000  0.5910580000000 1.0
C      1  0.4134160000000  0.4662300000000  0.4022640000000 1.0
C      1  0.5248870000000  0.4301400000000  0.4902790000000 1.0
C      1  0.4710650000000  0.5738050000000  0.5633740000000 1.0
C      1  0.5910260000000  0.5667470000000  0.5164340000000 1.0
C      1  0.4831840000000  0.4512570000000  0.4255660000000 1.0
C      1  0.4850120000000  0.4758460000000  0.5190250000000 1.0
C      1  0.5628260000000  0.4115210000000  0.5408930000000 1.0
C      1  0.4732940000000  0.4335580000000  0.4991390000000 1.0
C      1  0.4400240000000  0.5182060000000  0.4334860000000 1.0
C      1  0.5902380000000  0.5378290000000  0.5186290000000 1.0
C      1  0.5723880000000  0.4272740000000  0.4665880000000 1.0
C      1  0.5309590000000  0.4857720000000  0.5991280000000 1.0
C      1  0.4948490000000  0.4959800000000  0.4084380000000 1.0
C      1  0.5570650000000  0.4281990000000  0.4417680000000 1.0
C      1  0.4059770000000  0.5271820000000  0.5417920000000 1.0
C      1  0.5693490000000  0.4754070000000  0.4784030000000 1.0
C      1  0.4979290000000  0.5906260000000  0.5172830000000 1.0
C      1  0.4837380000000  0.5054470000000  0.5574750000000 1.0
C      1  0.4657670000000  0.5934580000000  0.4669510000000 1.0
C      1  0.4476460000000  0.4901510000000  0.4268500000000 1.0
C      1  0.4166810000000  0.4585970000000  0.4495620000000 1.0
C      1  0.4740540000000  0.4788530000000  0.4182980000000 1.0
C      1  0.4491570000000  0.5397660000000  0.4168740000000 1.0
C      1  0.5094550000000  0.4399820000000  0.4179240000000 1.0
C      1  0.4714030000000  0.4833890000000  0.5428600000000 1.0
C      1  0.4982100000000  0.4610770000000  0.4656970000000 1.0
C      1  0.5425350000000  0.5131600000000  0.4898180000000 1.0
C      1  0.4638090000000  0.5599990000000  0.4298210000000 1.0
C      1  0.6176850000000  0.5116560000000  0.4890540000000 1.0
C      1  0.5482950000000  0.4192500000000  0.5634130000000 1.0
C      1  0.5778620000000  0.4669430000000  0.5495260000000 1.0
C      1  0.4904380000000  0.4485520000000  0.5153560000000 1.0
C      1  0.3944090000000  0.5205610000000  0.5183130000000 1.0
C      1  0.5364070000000  0.4045540000000  0.4884340000000 1.0
C      1  0.4527020000000  0.5888070000000  0.4919380000000 1.0
C      1  0.5367920000000  0.5119840000000  0.5995300000000 1.0
C      1  0.5775700000000  0.5788320000000  0.5374900000000 1.0
C      1  0.5829770000000  0.4506060000000  0.4821310000000 1.0
C      1  0.4582910000000  0.5714570000000  0.5381860000000 1.0
C      1  0.5952680000000  0.4585850000000  0.5307300000000 1.0
C      1  0.4751740000000  0.5706530000000  0.4528910000000 1.0
C      1  0.4779930000000  0.4452200000000  0.4534440000000 1.0
C      1  0.4660290000000  0.4700920000000  0.5913210000000 1.0
C      1  0.5354070000000  0.4590810000000  0.5276480000000 1.0
C      1  0.5927810000000  0.5175880000000  0.4988870000000 1.0
C      1  0.5202180000000  0.4611390000000  0.5889310000000 1.0
C      1  0.4078800000000  0.5087930000000  0.4966690000000 1.0
C      1  0.5372590000000  0.5609950000000  0.4394950000000 1.0
C      1  0.5702190000000  0.5029410000000  0.4894370000000 1.0
C      1  0.5258990000000  0.4962810000000  0.4739620000000 1.0
C      1  0.4332120000000  0.5283590000000  0.5501380000000 1.0
C      1  0.4564600000000  0.5405840000000  0.6160780000000 1.0
C      1  0.5348010000000  0.4323020000000  0.4259220000000 1.0
C      1  0.5893980000000  0.4416610000000  0.5091560000000 1.0
C      1  0.4169520000000  0.4534130000000  0.5009910000000 1.0
C      1  0.4043400000000  0.5119500000000  0.4690950000000 1.0
C      1  0.4644470000000  0.5349880000000  0.5064550000000 1.0
C      1  0.5417130000000  0.5562100000000  0.5694300000000 1.0
C      1  0.4468190000000  0.4067280000000  0.4715200000000 1.0
C      1  0.5388060000000  0.4457650000000  0.5721270000000 1.0
C      1  0.5645930000000  0.4081440000000  0.4885050000000 1.0
C      1  0.5078760000000  0.3593040000000  0.4849230000000 1.0
C      1  0.5125400000000  0.5680390000000  0.5289530000000 1.0
C      1  0.4835240000000  0.5291240000000  0.5746270000000 1.0
C      1  0.4510370000000  0.5442330000000  0.5312910000000 1.0
C      1  0.4953470000000  0.5568240000000  0.4675820000000 1.0
C      1  0.5663080000000  0.5591380000000  0.5553410000000 1.0
C      1  0.5242150000000  0.4496200000000  0.4699170000000 1.0
C      1  0.4580820000000  0.5086940000000  0.4984260000000 1.0
END
