TITL C-612605-9286-77 -0.0977905090820746 125000 -160.954672256854 0 0 29 (C1) n - 1
REM
REM in /home/nfs/bkarasulu/CARBON/AIRSS/Generating-Clusters/TERSOFF/Only-C1/FIRE-HFTN
REM
REM
REM
REM
REM
REM ./C.cell (11c1c37f851c82e70ff6c80c92926a4b)
REM AIRSS Version 0.9.1 bugfix July 2018 build 013d7b7c2542+ Fri, 06 Jul 2018 19:26:36 +0100
REM compiler GCC version 9.2.1 20190827 (Red Hat 9.2.1-1)
REM options -cpp -mtune=generic -march=x86-64 -g -O0 -fpre-include=/usr/include/finclude/math-vector-fortran.h
REM seed 796073195 1555112380 973775568 -1901705529 -1581521973 684838769 1718095326 1065900712 -1036440308 -1496807855 -1945468038 527099319 1381147600 -1199741847 1280054203 752696286 -1135095324 -1229047371 820785458 2134501651 1229290405 -350444831 1508315365 254096904 892618824 208925786 805883091 -301306119 -1269156430 -539389076 1766886358 344743171 1209543587
REM
CELL 1.54180   50.00000   50.00000   50.00000   90.00000   90.00000   90.00000
LATT -1
SFAC C  
C      1  0.5765500000000  0.4346160000000  0.5333170000000 1.0
C      1  0.4283940000000  0.4523210000000  0.4926170000000 1.0
C      1  0.5877260000000  0.5045650000000  0.5032750000000 1.0
C      1  0.4532390000000  0.4447890000000  0.4987280000000 1.0
C      1  0.4969880000000  0.4726650000000  0.4927110000000 1.0
C      1  0.4838390000000  0.5109850000000  0.5498520000000 1.0
C      1  0.5088230000000  0.5196330000000  0.5480860000000 1.0
C      1  0.6387440000000  0.5104960000000  0.4921120000000 1.0
C      1  0.5284220000000  0.5565970000000  0.4754480000000 1.0
C      1  0.5376440000000  0.5416250000000  0.4952620000000 1.0
C      1  0.4863080000000  0.4955980000000  0.4805000000000 1.0
C      1  0.5184180000000  0.5705660000000  0.4558420000000 1.0
C      1  0.4134540000000  0.4976390000000  0.4713530000000 1.0
C      1  0.5239390000000  0.4709600000000  0.4993600000000 1.0
C      1  0.5508310000000  0.5392310000000  0.5609450000000 1.0
C      1  0.5348860000000  0.5276950000000  0.5419540000000 1.0
C      1  0.5493080000000  0.4751190000000  0.5102660000000 1.0
C      1  0.4133250000000  0.4718560000000  0.4824900000000 1.0
C      1  0.3757620000000  0.5259410000000  0.4811620000000 1.0
C      1  0.4789020000000  0.4520510000000  0.4987660000000 1.0
C      1  0.4593640000000  0.5020160000000  0.5493370000000 1.0
C      1  0.4384570000000  0.5101360000000  0.4686450000000 1.0
C      1  0.3804260000000  0.5071200000000  0.4376300000000 1.0
C      1  0.4648460000000  0.5089420000000  0.4720900000000 1.0
C      1  0.6134280000000  0.5075870000000  0.4976140000000 1.0
C      1  0.5631200000000  0.4539620000000  0.5221580000000 1.0
C      1  0.3895070000000  0.5104330000000  0.4632550000000 1.0
C      1  0.5607720000000  0.5011270000000  0.5096850000000 1.0
C      1  0.5445790000000  0.5237290000000  0.5155380000000 1.0
END
