TITL C-612607-4507-1396 4.04660672359531e-07 125000 -286.402064879178 0 0 49 (C1) n - 1
REM
REM in /home/nfs/bkarasulu/CARBON/AIRSS/Generating-Clusters/TERSOFF/Only-C1/FIRE-HFTN
REM
REM
REM
REM
REM
REM ./C.cell (11c1c37f851c82e70ff6c80c92926a4b)
REM AIRSS Version 0.9.1 bugfix July 2018 build 013d7b7c2542+ Fri, 06 Jul 2018 19:26:36 +0100
REM compiler GCC version 9.2.1 20190827 (Red Hat 9.2.1-1)
REM options -cpp -mtune=generic -march=x86-64 -g -O0 -fpre-include=/usr/include/finclude/math-vector-fortran.h
REM seed -1160193144 -716501006 1948304121 1554197532 -1674066298 714330103 -1919951287 -1533368159 1850017403 980236477 1032588543 805808853 229498648 -1584681767 -92717834 1996662741 -1684442238 -267595564 711129823 -1987574649 -1932093299 -1058598315 819536480 113921160 1326429246 33270788 -1737039157 1137792390 -997824545 -304497281 -1084319540 -1857852384 -102365011
REM
CELL 1.54180   50.00000   50.00000   50.00000   90.00000   90.00000   90.00000
LATT -1
SFAC C  
C      1  0.4783260000000  0.5451410000000  0.5432060000000 1.0
C      1  0.5593400000000  0.5238570000000  0.4845300000000 1.0
C      1  0.4742660000000  0.5173120000000  0.4919800000000 1.0
C      1  0.5653490000000  0.5109520000000  0.5300850000000 1.0
C      1  0.4948420000000  0.4122290000000  0.4797780000000 1.0
C      1  0.5524960000000  0.4768520000000  0.4974380000000 1.0
C      1  0.4979740000000  0.5858000000000  0.4348070000000 1.0
C      1  0.4866100000000  0.5636520000000  0.5654840000000 1.0
C      1  0.4487750000000  0.4530040000000  0.5100980000000 1.0
C      1  0.4755110000000  0.4748170000000  0.5439280000000 1.0
C      1  0.4913440000000  0.4301170000000  0.4600940000000 1.0
C      1  0.4750000000000  0.5477190000000  0.4539510000000 1.0
C      1  0.4612490000000  0.5597050000000  0.5230280000000 1.0
C      1  0.5184390000000  0.4558730000000  0.5317620000000 1.0
C      1  0.5447340000000  0.4585440000000  0.5193930000000 1.0
C      1  0.5490590000000  0.5279450000000  0.5429270000000 1.0
C      1  0.4966590000000  0.4381120000000  0.5226220000000 1.0
C      1  0.4457800000000  0.5494710000000  0.5013660000000 1.0
C      1  0.4381860000000  0.4774420000000  0.5003890000000 1.0
C      1  0.4619910000000  0.5065190000000  0.4687290000000 1.0
C      1  0.4753210000000  0.5192820000000  0.4464810000000 1.0
C      1  0.5650170000000  0.4417470000000  0.5292570000000 1.0
C      1  0.5227150000000  0.5042520000000  0.4339900000000 1.0
C      1  0.5630310000000  0.5028330000000  0.5032670000000 1.0
C      1  0.4636100000000  0.5213240000000  0.5542930000000 1.0
C      1  0.4552610000000  0.5550930000000  0.4744000000000 1.0
C      1  0.5277670000000  0.5443090000000  0.5347680000000 1.0
C      1  0.5386150000000  0.4751340000000  0.4720570000000 1.0
C      1  0.4988570000000  0.4157700000000  0.5060740000000 1.0
C      1  0.5043370000000  0.4744460000000  0.5501700000000 1.0
C      1  0.4949190000000  0.4577860000000  0.4581960000000 1.0
C      1  0.5108320000000  0.4709740000000  0.4780370000000 1.0
C      1  0.4964020000000  0.5129920000000  0.5084660000000 1.0
C      1  0.4941960000000  0.5015990000000  0.4338780000000 1.0
C      1  0.5024380000000  0.5327780000000  0.5284440000000 1.0
C      1  0.5228130000000  0.5549040000000  0.4623050000000 1.0
C      1  0.4711240000000  0.4511430000000  0.5271750000000 1.0
C      1  0.5045540000000  0.4872120000000  0.5003030000000 1.0
C      1  0.5440080000000  0.5421970000000  0.4724650000000 1.0
C      1  0.4433440000000  0.4861040000000  0.4737660000000 1.0
C      1  0.4312560000000  0.5255970000000  0.5092250000000 1.0
C      1  0.5416290000000  0.4901550000000  0.4479820000000 1.0
C      1  0.5838490000000  0.4263360000000  0.5385800000000 1.0
C      1  0.4379770000000  0.4992680000000  0.5195370000000 1.0
C      1  0.4868490000000  0.4738820000000  0.4363330000000 1.0
C      1  0.4568960000000  0.4968350000000  0.5418850000000 1.0
C      1  0.4986660000000  0.5631850000000  0.4501930000000 1.0
C      1  0.5158300000000  0.4866390000000  0.5716540000000 1.0
C      1  0.5319570000000  0.5711620000000  0.5312260000000 1.0
END
