TITL C-612601-4209-478 -2986.51657284865 125000 -841.942216932408 0 0 138 (C1) n - 1
REM
REM in /home/nfs/bkarasulu/CARBON/AIRSS/Generating-Clusters/TERSOFF/Only-C1/FIRE-HFTN
REM
REM
REM
REM
REM
REM ./C.cell (11c1c37f851c82e70ff6c80c92926a4b)
REM AIRSS Version 0.9.1 bugfix July 2018 build 013d7b7c2542+ Fri, 06 Jul 2018 19:26:36 +0100
REM compiler GCC version 9.2.1 20190827 (Red Hat 9.2.1-1)
REM options -cpp -mtune=generic -march=x86-64 -g -O0 -fpre-include=/usr/include/finclude/math-vector-fortran.h
REM seed -991872081 1920766268 -909140523 1322626878 -1640223863 21511253 -514253961 -1666990798 1275694972 -1965196628 2016485529 -1318002091 -1357364662 -768634125 -773651365 386031116 -2074523104 1592965102 1831756334 -1910233466 -1892291393 -1932694511 587413155 1231808950 -389648509 -776751867 1043756191 1786391601 390612808 1947003274 -1638745878 380743974 554518480
REM
CELL 1.54180   50.00000   50.00000   50.00000   90.00000   90.00000   90.00000
LATT -1
SFAC C  
C      1  0.5617800000000  0.6211400000000  0.5153480000000 1.0
C      1  0.5685950000000  0.4699670000000  0.5337830000000 1.0
C      1  0.5599220000000  0.5904720000000  0.5515260000000 1.0
C      1  0.5387160000000  0.4682890000000  0.5917330000000 1.0
C      1  0.4904770000000  0.5278480000000  0.5392570000000 1.0
C      1  0.4421570000000  0.5350890000000  0.3988970000000 1.0
C      1  0.4194800000000  0.5690850000000  0.5040910000000 1.0
C      1  0.5015410000000  0.5798790000000  0.4926470000000 1.0
C      1  0.5205420000000  0.4871390000000  0.4647330000000 1.0
C      1  0.4719850000000  0.4231480000000  0.4375750000000 1.0
C      1  0.5302550000000  0.5250220000000  0.5595660000000 1.0
C      1  0.3992370000000  0.5353720000000  0.5692370000000 1.0
C      1  0.5357730000000  0.5150560000000  0.6074890000000 1.0
C      1  0.5555740000000  0.4479380000000  0.5817390000000 1.0
C      1  0.4757730000000  0.4921390000000  0.4951070000000 1.0
C      1  0.5782800000000  0.4651820000000  0.4142040000000 1.0
C      1  0.4707850000000  0.5018250000000  0.6002440000000 1.0
C      1  0.4832740000000  0.4413340000000  0.4175600000000 1.0
C      1  0.4832140000000  0.3885290000000  0.4714900000000 1.0
C      1  0.4022660000000  0.5274180000000  0.4891560000000 1.0
C      1  0.5298400000000  0.5515880000000  0.5480480000000 1.0
C      1  0.5144800000000  0.4675890000000  0.5415420000000 1.0
C      1  0.5367120000000  0.5025510000000  0.4466480000000 1.0
C      1  0.5654710000000  0.4496910000000  0.5544000000000 1.0
C      1  0.5012950000000  0.5548580000000  0.5430170000000 1.0
C      1  0.5518340000000  0.5746900000000  0.5065750000000 1.0
C      1  0.5041660000000  0.5111890000000  0.5574350000000 1.0
C      1  0.4478840000000  0.4865830000000  0.5934550000000 1.0
C      1  0.4583630000000  0.5952860000000  0.5054070000000 1.0
C      1  0.5451350000000  0.3930850000000  0.4297680000000 1.0
C      1  0.4757250000000  0.4913530000000  0.3967970000000 1.0
C      1  0.4147880000000  0.5717330000000  0.4746780000000 1.0
C      1  0.4662980000000  0.3984390000000  0.4918640000000 1.0
C      1  0.5074180000000  0.4201930000000  0.5520460000000 1.0
C      1  0.4580200000000  0.4123670000000  0.6081980000000 1.0
C      1  0.5399700000000  0.4197670000000  0.4699730000000 1.0
C      1  0.6330540000000  0.5197000000000  0.4542790000000 1.0
C      1  0.5382220000000  0.5398630000000  0.4005300000000 1.0
C      1  0.4290970000000  0.5006130000000  0.5534930000000 1.0
C      1  0.4897870000000  0.5154380000000  0.5116930000000 1.0
C      1  0.5015280000000  0.5522150000000  0.4902810000000 1.0
C      1  0.5589800000000  0.4113040000000  0.4894760000000 1.0
C      1  0.5156270000000  0.5330010000000  0.6098420000000 1.0
C      1  0.4225210000000  0.5409080000000  0.5056350000000 1.0
C      1  0.4700370000000  0.5304390000000  0.5909040000000 1.0
C      1  0.6450440000000  0.5211550000000  0.4781470000000 1.0
C      1  0.6354910000000  0.5282900000000  0.5021810000000 1.0
C      1  0.5064770000000  0.5999790000000  0.4731330000000 1.0
C      1  0.4884210000000  0.5730530000000  0.6060010000000 1.0
C      1  0.6112880000000  0.5368590000000  0.5096590000000 1.0
C      1  0.5410100000000  0.4174080000000  0.4415930000000 1.0
C      1  0.4103910000000  0.5068310000000  0.4310560000000 1.0
C      1  0.4464650000000  0.4181210000000  0.4814080000000 1.0
C      1  0.4933630000000  0.4838650000000  0.6042400000000 1.0
C      1  0.4991470000000  0.4370710000000  0.5834320000000 1.0
C      1  0.5592180000000  0.5213570000000  0.4522740000000 1.0
C      1  0.5380950000000  0.4923820000000  0.4192170000000 1.0
C      1  0.4453490000000  0.5669280000000  0.4373550000000 1.0
C      1  0.4080170000000  0.5358640000000  0.4353290000000 1.0
C      1  0.5223640000000  0.5240410000000  0.5017680000000 1.0
C      1  0.4506790000000  0.5071340000000  0.3995430000000 1.0
C      1  0.4473410000000  0.5440310000000  0.5669450000000 1.0
C      1  0.5491690000000  0.4652400000000  0.4164020000000 1.0
C      1  0.4244650000000  0.5267740000000  0.5631190000000 1.0
C      1  0.4542150000000  0.4263870000000  0.5267360000000 1.0
C      1  0.5553580000000  0.5478050000000  0.4632970000000 1.0
C      1  0.5487290000000  0.5137240000000  0.4018400000000 1.0
C      1  0.4569770000000  0.5228870000000  0.4482600000000 1.0
C      1  0.4487440000000  0.4296970000000  0.4547560000000 1.0
C      1  0.4561330000000  0.5990160000000  0.4757150000000 1.0
C      1  0.5773300000000  0.5120220000000  0.4071540000000 1.0
C      1  0.4927010000000  0.5537610000000  0.4356220000000 1.0
C      1  0.4398370000000  0.5064120000000  0.4641690000000 1.0
C      1  0.5839020000000  0.4648650000000  0.4635890000000 1.0
C      1  0.4105150000000  0.4660350000000  0.4583500000000 1.0
C      1  0.5464290000000  0.5657080000000  0.4430860000000 1.0
C      1  0.5326390000000  0.6099190000000  0.4761390000000 1.0
C      1  0.4914040000000  0.5461330000000  0.6021350000000 1.0
C      1  0.5639780000000  0.4665500000000  0.4832410000000 1.0
C      1  0.4372780000000  0.5828950000000  0.4600960000000 1.0
C      1  0.3975340000000  0.5008130000000  0.4983090000000 1.0
C      1  0.4634760000000  0.4685630000000  0.5083820000000 1.0
C      1  0.5503300000000  0.6025200000000  0.4972000000000 1.0
C      1  0.5578330000000  0.4961470000000  0.5361880000000 1.0
C      1  0.5653390000000  0.4269060000000  0.5123120000000 1.0
C      1  0.5871420000000  0.5433590000000  0.5006490000000 1.0
C      1  0.4457630000000  0.4816390000000  0.5657210000000 1.0
C      1  0.4026100000000  0.5452970000000  0.4637820000000 1.0
C      1  0.5399060000000  0.5611250000000  0.4171910000000 1.0
C      1  0.5458830000000  0.4204860000000  0.5834610000000 1.0
C      1  0.4908550000000  0.4859700000000  0.4667100000000 1.0
C      1  0.4359380000000  0.4329790000000  0.5040950000000 1.0
C      1  0.4754160000000  0.4786610000000  0.4418900000000 1.0
C      1  0.5479680000000  0.5698770000000  0.5356910000000 1.0
C      1  0.4472110000000  0.4740800000000  0.4353410000000 1.0
C      1  0.4346260000000  0.4617690000000  0.5037000000000 1.0
C      1  0.4669670000000  0.5484290000000  0.4419230000000 1.0
C      1  0.4326950000000  0.4928820000000  0.4169480000000 1.0
C      1  0.5019080000000  0.4426660000000  0.5315850000000 1.0
C      1  0.4117820000000  0.4785620000000  0.5051530000000 1.0
C      1  0.4850340000000  0.5901070000000  0.5138320000000 1.0
C      1  0.6094980000000  0.5223680000000  0.4422370000000 1.0
C      1  0.4697960000000  0.4721350000000  0.5541370000000 1.0
C      1  0.4355230000000  0.4021050000000  0.6177410000000 1.0
C      1  0.5910690000000  0.4587350000000  0.4385020000000 1.0
C      1  0.4490270000000  0.5325080000000  0.5010390000000 1.0
C      1  0.4808410000000  0.6088120000000  0.4636420000000 1.0
C      1  0.5703310000000  0.4558770000000  0.5086070000000 1.0
C      1  0.5238880000000  0.4408280000000  0.4807820000000 1.0
C      1  0.5363930000000  0.4129720000000  0.5567810000000 1.0
C      1  0.4901250000000  0.3979200000000  0.5406180000000 1.0
C      1  0.4454720000000  0.5675380000000  0.5477970000000 1.0
C      1  0.4912570000000  0.5803810000000  0.5390770000000 1.0
C      1  0.4717270000000  0.4510230000000  0.5323150000000 1.0
C      1  0.5661900000000  0.6149600000000  0.5414680000000 1.0
C      1  0.4332850000000  0.4523880000000  0.4481240000000 1.0
C      1  0.4864180000000  0.4705390000000  0.4156130000000 1.0
C      1  0.5828450000000  0.5195960000000  0.4345760000000 1.0
C      1  0.5384030000000  0.4408210000000  0.4256340000000 1.0
C      1  0.5512600000000  0.5062810000000  0.5624750000000 1.0
C      1  0.5102260000000  0.4620330000000  0.5944850000000 1.0
C      1  0.4767640000000  0.5399860000000  0.4977850000000 1.0
C      1  0.4278130000000  0.5509890000000  0.4197170000000 1.0
C      1  0.5090090000000  0.4362590000000  0.5037530000000 1.0
C      1  0.4795120000000  0.4235300000000  0.5974840000000 1.0
C      1  0.4963810000000  0.4845990000000  0.5551740000000 1.0
C      1  0.4697100000000  0.4021270000000  0.5210160000000 1.0
C      1  0.5435970000000  0.5099440000000  0.5141790000000 1.0
C      1  0.4139240000000  0.4944190000000  0.4568170000000 1.0
C      1  0.4385290000000  0.5816080000000  0.5214730000000 1.0
C      1  0.5468990000000  0.4956700000000  0.5894120000000 1.0
C      1  0.4497670000000  0.5067120000000  0.4895420000000 1.0
C      1  0.4132040000000  0.3922000000000  0.6268720000000 1.0
C      1  0.5641660000000  0.5552060000000  0.4896200000000 1.0
C      1  0.5885540000000  0.4871260000000  0.3994610000000 1.0
C      1  0.4854760000000  0.3997800000000  0.4467790000000 1.0
C      1  0.5574440000000  0.4241980000000  0.5396710000000 1.0
C      1  0.5356210000000  0.4664760000000  0.4771820000000 1.0
END
