TITL C-612605-9286-1271 0.607783808067295 125000 -649.908181699659 0 0 109 (C1) n - 1
REM
REM in /home/nfs/bkarasulu/CARBON/AIRSS/Generating-Clusters/TERSOFF/Only-C1/FIRE-HFTN
REM
REM
REM
REM
REM
REM ./C.cell (11c1c37f851c82e70ff6c80c92926a4b)
REM AIRSS Version 0.9.1 bugfix July 2018 build 013d7b7c2542+ Fri, 06 Jul 2018 19:26:36 +0100
REM compiler GCC version 9.2.1 20190827 (Red Hat 9.2.1-1)
REM options -cpp -mtune=generic -march=x86-64 -g -O0 -fpre-include=/usr/include/finclude/math-vector-fortran.h
REM seed 1473874075 2100369003 -50137023 -333747346 1847429958 -369278950 319026116 -1741167376 1393095346 498978862 -651202795 413496348 1536171508 -879568420 -547189331 -920455744 1117781050 -824654909 737126333 1917754548 -1323225446 1763633409 265088229 1853850154 382273458 70029412 -293093366 1069727263 1504710037 57623060 1643698561 871210239 -1691303833
REM
CELL 1.54180   50.00000   50.00000   50.00000   90.00000   90.00000   90.00000
LATT -1
SFAC C  
C      1  0.5193350000000  0.3820220000000  0.5428010000000 1.0
C      1  0.4568990000000  0.4962000000000  0.5118650000000 1.0
C      1  0.5902410000000  0.4808220000000  0.5013220000000 1.0
C      1  0.5750200000000  0.5684180000000  0.5423300000000 1.0
C      1  0.5157750000000  0.6015170000000  0.4849980000000 1.0
C      1  0.5612810000000  0.4210810000000  0.5044660000000 1.0
C      1  0.5705690000000  0.5566970000000  0.5661610000000 1.0
C      1  0.4329530000000  0.5544450000000  0.5170470000000 1.0
C      1  0.5940610000000  0.4861840000000  0.5298510000000 1.0
C      1  0.4503780000000  0.4940450000000  0.5396210000000 1.0
C      1  0.4564670000000  0.5494750000000  0.5618420000000 1.0
C      1  0.5244540000000  0.5133060000000  0.4070050000000 1.0
C      1  0.5665350000000  0.4804650000000  0.4505070000000 1.0
C      1  0.4092830000000  0.4871240000000  0.4557090000000 1.0
C      1  0.5555770000000  0.4853570000000  0.5841040000000 1.0
C      1  0.4753850000000  0.5375700000000  0.5814830000000 1.0
C      1  0.4963530000000  0.4757310000000  0.5093970000000 1.0
C      1  0.4712680000000  0.5747850000000  0.5551960000000 1.0
C      1  0.5183480000000  0.4889350000000  0.5479970000000 1.0
C      1  0.5368810000000  0.5559600000000  0.4267480000000 1.0
C      1  0.5722720000000  0.4386920000000  0.4859560000000 1.0
C      1  0.5160320000000  0.5169410000000  0.5487500000000 1.0
C      1  0.5656660000000  0.5088420000000  0.5709480000000 1.0
C      1  0.4051110000000  0.5191290000000  0.4951670000000 1.0
C      1  0.4196250000000  0.4646190000000  0.4721030000000 1.0
C      1  0.5094800000000  0.4913570000000  0.3655540000000 1.0
C      1  0.4879260000000  0.5765800000000  0.4417850000000 1.0
C      1  0.4685120000000  0.4662410000000  0.4113670000000 1.0
C      1  0.5606300000000  0.5721590000000  0.5183020000000 1.0
C      1  0.5630070000000  0.5103510000000  0.4397390000000 1.0
C      1  0.5334640000000  0.5099270000000  0.4341750000000 1.0
C      1  0.4409590000000  0.5368290000000  0.4268160000000 1.0
C      1  0.4716780000000  0.4877480000000  0.4697380000000 1.0
C      1  0.4989130000000  0.5735650000000  0.5643120000000 1.0
C      1  0.4773170000000  0.4196700000000  0.4473960000000 1.0
C      1  0.5524870000000  0.5161860000000  0.4999060000000 1.0
C      1  0.5178460000000  0.4375660000000  0.5835750000000 1.0
C      1  0.4115440000000  0.4994010000000  0.5159940000000 1.0
C      1  0.4593700000000  0.5250570000000  0.4437750000000 1.0
C      1  0.4178580000000  0.5623340000000  0.4718710000000 1.0
C      1  0.5148930000000  0.4607490000000  0.6009680000000 1.0
C      1  0.4588310000000  0.5151460000000  0.4707890000000 1.0
C      1  0.4939490000000  0.4773270000000  0.5393650000000 1.0
C      1  0.5105430000000  0.4711120000000  0.4359630000000 1.0
C      1  0.5794330000000  0.4664490000000  0.4783370000000 1.0
C      1  0.4633910000000  0.5881480000000  0.5318680000000 1.0
C      1  0.4543090000000  0.5730080000000  0.5099200000000 1.0
C      1  0.5132660000000  0.5622380000000  0.4433690000000 1.0
C      1  0.4513920000000  0.4254660000000  0.4513600000000 1.0
C      1  0.4621990000000  0.5219380000000  0.4988890000000 1.0
C      1  0.5058690000000  0.4316880000000  0.4856410000000 1.0
C      1  0.5407190000000  0.4240170000000  0.5252720000000 1.0
C      1  0.4367000000000  0.5754150000000  0.4569640000000 1.0
C      1  0.4180670000000  0.4670170000000  0.5040500000000 1.0
C      1  0.5704240000000  0.5661030000000  0.4919970000000 1.0
C      1  0.5341470000000  0.4516780000000  0.5224740000000 1.0
C      1  0.5217880000000  0.4103130000000  0.5436220000000 1.0
C      1  0.5313280000000  0.4747780000000  0.4788390000000 1.0
C      1  0.4377160000000  0.4499500000000  0.4516570000000 1.0
C      1  0.4817170000000  0.5109540000000  0.4327280000000 1.0
C      1  0.5022950000000  0.4248750000000  0.5617740000000 1.0
C      1  0.5107750000000  0.4919710000000  0.3928710000000 1.0
C      1  0.5630220000000  0.5203390000000  0.5237600000000 1.0
C      1  0.5368710000000  0.4687010000000  0.4506110000000 1.0
C      1  0.5171430000000  0.4573360000000  0.4983980000000 1.0
C      1  0.4906240000000  0.4878130000000  0.4488300000000 1.0
C      1  0.5335980000000  0.4812880000000  0.6027210000000 1.0
C      1  0.4706360000000  0.4742060000000  0.4959180000000 1.0
C      1  0.4910810000000  0.3841550000000  0.5058450000000 1.0
C      1  0.4903310000000  0.5309600000000  0.5079320000000 1.0
C      1  0.5005400000000  0.4280520000000  0.4581320000000 1.0
C      1  0.4985500000000  0.4709500000000  0.4091240000000 1.0
C      1  0.5032300000000  0.3695470000000  0.5250100000000 1.0
C      1  0.4368580000000  0.4457690000000  0.5166860000000 1.0
C      1  0.5200790000000  0.5816580000000  0.5474170000000 1.0
C      1  0.5024070000000  0.5504260000000  0.5824830000000 1.0
C      1  0.4589300000000  0.4480570000000  0.4980770000000 1.0
C      1  0.5374060000000  0.5031780000000  0.4806710000000 1.0
C      1  0.5290410000000  0.5410760000000  0.5874360000000 1.0
C      1  0.5726580000000  0.5550800000000  0.4672810000000 1.0
C      1  0.5120200000000  0.5437930000000  0.4655310000000 1.0
C      1  0.5548030000000  0.4627410000000  0.5659240000000 1.0
C      1  0.4650620000000  0.5765760000000  0.4600400000000 1.0
C      1  0.5028680000000  0.5045280000000  0.5039450000000 1.0
C      1  0.4987180000000  0.5545810000000  0.4907210000000 1.0
C      1  0.4262800000000  0.5449360000000  0.4068330000000 1.0
C      1  0.5557610000000  0.5354320000000  0.5778130000000 1.0
C      1  0.4493960000000  0.4298020000000  0.5388130000000 1.0
C      1  0.5766680000000  0.5053630000000  0.5433280000000 1.0
C      1  0.4949940000000  0.4100990000000  0.5002230000000 1.0
C      1  0.5465390000000  0.4380790000000  0.5774650000000 1.0
C      1  0.4354870000000  0.5393960000000  0.5424690000000 1.0
C      1  0.4996860000000  0.5346360000000  0.5357900000000 1.0
C      1  0.5239950000000  0.5185610000000  0.4604920000000 1.0
C      1  0.3978070000000  0.5082200000000  0.4700620000000 1.0
C      1  0.4270000000000  0.5108890000000  0.5400120000000 1.0
C      1  0.4726400000000  0.4320810000000  0.5582050000000 1.0
C      1  0.5163520000000  0.5780880000000  0.4995010000000 1.0
C      1  0.4661580000000  0.4575580000000  0.5709640000000 1.0
C      1  0.5327220000000  0.5775250000000  0.5224050000000 1.0
C      1  0.6141500000000  0.4735290000000  0.5435730000000 1.0
C      1  0.4435230000000  0.4669640000000  0.4273680000000 1.0
C      1  0.5649710000000  0.5411090000000  0.4437810000000 1.0
C      1  0.5394090000000  0.4701100000000  0.5430760000000 1.0
C      1  0.5304130000000  0.5412870000000  0.4026570000000 1.0
C      1  0.4718400000000  0.5695720000000  0.4871310000000 1.0
C      1  0.4156080000000  0.5461710000000  0.4955570000000 1.0
C      1  0.4695800000000  0.4795780000000  0.5538580000000 1.0
C      1  0.4220320000000  0.4865290000000  0.4297330000000 1.0
END
