TITL C-612603-7354-142 5.88272170472984e-06 125000 -961.992982137655 0 0 153 (C1) n - 1
REM
REM in /home/nfs/bkarasulu/CARBON/AIRSS/Generating-Clusters/TERSOFF/Only-C1/FIRE-HFTN
REM
REM
REM
REM
REM
REM ./C.cell (11c1c37f851c82e70ff6c80c92926a4b)
REM AIRSS Version 0.9.1 bugfix July 2018 build 013d7b7c2542+ Fri, 06 Jul 2018 19:26:36 +0100
REM compiler GCC version 9.2.1 20190827 (Red Hat 9.2.1-1)
REM options -cpp -mtune=generic -march=x86-64 -g -O0 -fpre-include=/usr/include/finclude/math-vector-fortran.h
REM seed 1126707852 858702938 -1109133033 66356965 1665508310 -1527817194 1629660873 917325707 -1970482620 -1213074422 -1547864069 -1812611637 -1585781577 -1670276026 1409225352 1514220548 1540906266 -696855494 558880076 1497186714 -1997783326 976409059 -1089746792 -1776999112 503551492 -1800490281 -258222825 -201629332 439134280 1844516437 1280299269 886136676 -1942272663
REM
CELL 1.54180   50.00000   50.00000   50.00000   90.00000   90.00000   90.00000
LATT -1
SFAC C  
C      1  0.5079250000000  0.4820440000000  0.5621530000000 1.0
C      1  0.4393810000000  0.4123790000000  0.5641850000000 1.0
C      1  0.4841880000000  0.5508260000000  0.4016530000000 1.0
C      1  0.4521850000000  0.4351290000000  0.5234770000000 1.0
C      1  0.5883020000000  0.5666570000000  0.4943150000000 1.0
C      1  0.4918310000000  0.5639690000000  0.5363970000000 1.0
C      1  0.4138300000000  0.4294730000000  0.4733980000000 1.0
C      1  0.5871800000000  0.4788130000000  0.4567460000000 1.0
C      1  0.5026360000000  0.5434110000000  0.4604580000000 1.0
C      1  0.5861600000000  0.5064060000000  0.4490410000000 1.0
C      1  0.5087460000000  0.5463940000000  0.5962320000000 1.0
C      1  0.4135440000000  0.5046760000000  0.4165250000000 1.0
C      1  0.4686070000000  0.5629320000000  0.5778540000000 1.0
C      1  0.5188730000000  0.5275690000000  0.4415900000000 1.0
C      1  0.5767960000000  0.4405060000000  0.5609830000000 1.0
C      1  0.4601250000000  0.4602320000000  0.4613860000000 1.0
C      1  0.6072030000000  0.4206780000000  0.5303060000000 1.0
C      1  0.5630860000000  0.4634190000000  0.4592640000000 1.0
C      1  0.4869650000000  0.5022180000000  0.4117960000000 1.0
C      1  0.3973450000000  0.4319830000000  0.4965230000000 1.0
C      1  0.5692690000000  0.4870790000000  0.5685630000000 1.0
C      1  0.6102400000000  0.5307720000000  0.5229720000000 1.0
C      1  0.5814500000000  0.5522000000000  0.4706280000000 1.0
C      1  0.6083430000000  0.4613210000000  0.5020130000000 1.0
C      1  0.4233540000000  0.4694160000000  0.5500300000000 1.0
C      1  0.4824160000000  0.5511170000000  0.5995520000000 1.0
C      1  0.5358820000000  0.6016290000000  0.4622500000000 1.0
C      1  0.4076280000000  0.5454020000000  0.4991380000000 1.0
C      1  0.5215610000000  0.4850600000000  0.5870990000000 1.0
C      1  0.4213610000000  0.5628210000000  0.4806760000000 1.0
C      1  0.5072100000000  0.5032180000000  0.4324920000000 1.0
C      1  0.5142550000000  0.5587470000000  0.4837490000000 1.0
C      1  0.5075830000000  0.4655610000000  0.6039130000000 1.0
C      1  0.4639130000000  0.4020410000000  0.4728270000000 1.0
C      1  0.4741470000000  0.4547540000000  0.4134450000000 1.0
C      1  0.4434980000000  0.4802290000000  0.5950000000000 1.0
C      1  0.4789020000000  0.4285550000000  0.5277290000000 1.0
C      1  0.5677640000000  0.5126460000000  0.4907610000000 1.0
C      1  0.4453620000000  0.3629880000000  0.5704630000000 1.0
C      1  0.6127830000000  0.4811260000000  0.5224910000000 1.0
C      1  0.4734950000000  0.5487170000000  0.5528740000000 1.0
C      1  0.5666510000000  0.4378290000000  0.4711400000000 1.0
C      1  0.4116760000000  0.5170370000000  0.4990240000000 1.0
C      1  0.4347200000000  0.5062320000000  0.5129440000000 1.0
C      1  0.5333490000000  0.5695350000000  0.5038250000000 1.0
C      1  0.4753620000000  0.3969320000000  0.4457010000000 1.0
C      1  0.5248790000000  0.5443380000000  0.5732130000000 1.0
C      1  0.4345460000000  0.4688140000000  0.4544210000000 1.0
C      1  0.4812800000000  0.5848230000000  0.5183610000000 1.0
C      1  0.4774510000000  0.4261890000000  0.5881330000000 1.0
C      1  0.5116930000000  0.4925650000000  0.5192390000000 1.0
C      1  0.5027690000000  0.4081060000000  0.4481860000000 1.0
C      1  0.4902460000000  0.4749900000000  0.4016350000000 1.0
C      1  0.6061480000000  0.5055350000000  0.5360360000000 1.0
C      1  0.5254080000000  0.4645200000000  0.5213830000000 1.0
C      1  0.5149420000000  0.4458130000000  0.4991630000000 1.0
C      1  0.4052790000000  0.5021400000000  0.4758720000000 1.0
C      1  0.5686760000000  0.5164890000000  0.4291050000000 1.0
C      1  0.4926340000000  0.6112130000000  0.5207340000000 1.0
C      1  0.5902470000000  0.5505910000000  0.5181910000000 1.0
C      1  0.4341420000000  0.5907430000000  0.5266720000000 1.0
C      1  0.5170080000000  0.6103200000000  0.5756630000000 1.0
C      1  0.5040560000000  0.4978250000000  0.4931370000000 1.0
C      1  0.5463430000000  0.4988000000000  0.5834450000000 1.0
C      1  0.4281050000000  0.4966770000000  0.4585420000000 1.0
C      1  0.5656670000000  0.4913630000000  0.5089260000000 1.0
C      1  0.5548890000000  0.4707980000000  0.5254320000000 1.0
C      1  0.4541190000000  0.5906760000000  0.4550170000000 1.0
C      1  0.4981980000000  0.5010920000000  0.5436790000000 1.0
C      1  0.4781170000000  0.4503180000000  0.4416020000000 1.0
C      1  0.4892720000000  0.6114920000000  0.5696740000000 1.0
C      1  0.5122070000000  0.3960690000000  0.4731510000000 1.0
C      1  0.4804080000000  0.3977680000000  0.5791350000000 1.0
C      1  0.4614280000000  0.5367600000000  0.4840290000000 1.0
C      1  0.5258120000000  0.4993770000000  0.4750620000000 1.0
C      1  0.5136120000000  0.5554620000000  0.4024530000000 1.0
C      1  0.4574630000000  0.5288330000000  0.4355460000000 1.0
C      1  0.4439420000000  0.5811120000000  0.4802480000000 1.0
C      1  0.5502390000000  0.5935360000000  0.5089440000000 1.0
C      1  0.4940540000000  0.6245200000000  0.4590080000000 1.0
C      1  0.4795660000000  0.6035460000000  0.4483130000000 1.0
C      1  0.5249260000000  0.4801690000000  0.4309210000000 1.0
C      1  0.4118210000000  0.4510120000000  0.4540720000000 1.0
C      1  0.3957240000000  0.4837770000000  0.4205280000000 1.0
C      1  0.3898920000000  0.4689080000000  0.4450030000000 1.0
C      1  0.5664340000000  0.5473370000000  0.5345890000000 1.0
C      1  0.5660120000000  0.4645920000000  0.5516860000000 1.0
C      1  0.5345260000000  0.4732310000000  0.4587170000000 1.0
C      1  0.4767010000000  0.4935340000000  0.4908240000000 1.0
C      1  0.5474750000000  0.6067780000000  0.5340060000000 1.0
C      1  0.5050880000000  0.3907930000000  0.5664000000000 1.0
C      1  0.5531580000000  0.5530590000000  0.4622780000000 1.0
C      1  0.5024780000000  0.4401090000000  0.5900240000000 1.0
C      1  0.5109200000000  0.6211570000000  0.5020400000000 1.0
C      1  0.5361660000000  0.5142990000000  0.3798760000000 1.0
C      1  0.4868800000000  0.4759620000000  0.6200760000000 1.0
C      1  0.5730260000000  0.4252530000000  0.4957690000000 1.0
C      1  0.5339620000000  0.5357400000000  0.3982280000000 1.0
C      1  0.5185820000000  0.5552660000000  0.5466650000000 1.0
C      1  0.4505870000000  0.4356770000000  0.5784740000000 1.0
C      1  0.4359820000000  0.4807420000000  0.5264240000000 1.0
C      1  0.4849040000000  0.6241440000000  0.5446150000000 1.0
C      1  0.4544920000000  0.5857940000000  0.5072350000000 1.0
C      1  0.4475970000000  0.5783360000000  0.4289200000000 1.0
C      1  0.5436650000000  0.5290430000000  0.4247750000000 1.0
C      1  0.5368880000000  0.3938430000000  0.4863450000000 1.0
C      1  0.5526470000000  0.4070420000000  0.5064850000000 1.0
C      1  0.4330220000000  0.5137720000000  0.4361620000000 1.0
C      1  0.4641710000000  0.3839510000000  0.4247470000000 1.0
C      1  0.3983990000000  0.5584840000000  0.5224590000000 1.0
C      1  0.5880340000000  0.5236660000000  0.4720610000000 1.0
C      1  0.3991110000000  0.4560610000000  0.5426780000000 1.0
C      1  0.4727560000000  0.5262520000000  0.4111420000000 1.0
C      1  0.5762050000000  0.5919240000000  0.4976470000000 1.0
C      1  0.5380720000000  0.5762930000000  0.4477190000000 1.0
C      1  0.4493190000000  0.4601550000000  0.5108800000000 1.0
C      1  0.4890800000000  0.4031810000000  0.4898330000000 1.0
C      1  0.3911950000000  0.4426710000000  0.5204790000000 1.0
C      1  0.5240600000000  0.4094040000000  0.5556860000000 1.0
C      1  0.4341910000000  0.4182300000000  0.5370940000000 1.0
C      1  0.5183690000000  0.4356370000000  0.5658580000000 1.0
C      1  0.5471480000000  0.5270120000000  0.5752270000000 1.0
C      1  0.4110290000000  0.5792370000000  0.5342580000000 1.0
C      1  0.4617520000000  0.4837070000000  0.6143820000000 1.0
C      1  0.5174980000000  0.4507310000000  0.4704720000000 1.0
C      1  0.6076200000000  0.4702850000000  0.4748940000000 1.0
C      1  0.5017930000000  0.4368370000000  0.4505380000000 1.0
C      1  0.5864900000000  0.5075780000000  0.5570120000000 1.0
C      1  0.4735120000000  0.5387120000000  0.4586420000000 1.0
C      1  0.5392940000000  0.5539160000000  0.5273180000000 1.0
C      1  0.5696910000000  0.5315090000000  0.5579650000000 1.0
C      1  0.4964110000000  0.4247620000000  0.5068960000000 1.0
C      1  0.5977400000000  0.4346730000000  0.5077380000000 1.0
C      1  0.4589220000000  0.5138290000000  0.4993760000000 1.0
C      1  0.5383140000000  0.6099280000000  0.5590460000000 1.0
C      1  0.3829120000000  0.4869440000000  0.4667810000000 1.0
C      1  0.4384750000000  0.4618260000000  0.5741780000000 1.0
C      1  0.4786030000000  0.5206410000000  0.5499390000000 1.0
C      1  0.5201330000000  0.4720630000000  0.4027940000000 1.0
C      1  0.4371010000000  0.4120940000000  0.4743950000000 1.0
C      1  0.4711220000000  0.5743040000000  0.4122920000000 1.0
C      1  0.5434940000000  0.5213840000000  0.4775610000000 1.0
C      1  0.5187650000000  0.5757260000000  0.4244580000000 1.0
C      1  0.4925910000000  0.5893740000000  0.4267930000000 1.0
C      1  0.4542560000000  0.3885790000000  0.5711080000000 1.0
C      1  0.5421160000000  0.4057980000000  0.5334840000000 1.0
C      1  0.4652820000000  0.4679350000000  0.4882170000000 1.0
C      1  0.5961460000000  0.4230270000000  0.5547520000000 1.0
C      1  0.5339110000000  0.4873040000000  0.3829810000000 1.0
C      1  0.5168240000000  0.6191500000000  0.4746650000000 1.0
C      1  0.4706590000000  0.5914920000000  0.5775630000000 1.0
C      1  0.5162170000000  0.4576960000000  0.5489860000000 1.0
C      1  0.4557330000000  0.4407760000000  0.3989360000000 1.0
END
