TITL C-612603-7354-242 3.91078027273069e-05 125000 -289.291335497034 0 0 47 (C1) n - 1
REM
REM in /home/nfs/bkarasulu/CARBON/AIRSS/Generating-Clusters/TERSOFF/Only-C1/FIRE-HFTN
REM
REM
REM
REM
REM
REM ./C.cell (11c1c37f851c82e70ff6c80c92926a4b)
REM AIRSS Version 0.9.1 bugfix July 2018 build 013d7b7c2542+ Fri, 06 Jul 2018 19:26:36 +0100
REM compiler GCC version 9.2.1 20190827 (Red Hat 9.2.1-1)
REM options -cpp -mtune=generic -march=x86-64 -g -O0 -fpre-include=/usr/include/finclude/math-vector-fortran.h
REM seed 1931519277 -149954870 -1305720394 1021555837 -2012729776 -259103998 -632236661 45690297 -1740644509 -580734837 813598469 356893690 -318016045 -2092936640 280601120 -955341048 -1705366860 1842888141 -1548195687 -1105802126 2008635326 595643189 1021386365 -503666452 -894755257 -222927337 -1734901752 -107550642 -241751584 1102348842 -502935018 1177667775 1895663714
REM
CELL 1.54180   50.00000   50.00000   50.00000   90.00000   90.00000   90.00000
LATT -1
SFAC C  
C      1  0.4603700000000  0.5423960000000  0.4672600000000 1.0
C      1  0.4881280000000  0.5267230000000  0.5606330000000 1.0
C      1  0.4363080000000  0.5420410000000  0.5134900000000 1.0
C      1  0.5399990000000  0.5024550000000  0.4591010000000 1.0
C      1  0.4482490000000  0.5288070000000  0.5355240000000 1.0
C      1  0.5545090000000  0.4481480000000  0.5620540000000 1.0
C      1  0.4567060000000  0.4243940000000  0.4418610000000 1.0
C      1  0.4717870000000  0.4927730000000  0.5562550000000 1.0
C      1  0.4185890000000  0.5625290000000  0.5162920000000 1.0
C      1  0.4559100000000  0.4954320000000  0.4602500000000 1.0
C      1  0.5440580000000  0.5735970000000  0.5099790000000 1.0
C      1  0.4637990000000  0.4512450000000  0.4780990000000 1.0
C      1  0.5693490000000  0.4607100000000  0.5436140000000 1.0
C      1  0.4541890000000  0.4872720000000  0.5092790000000 1.0
C      1  0.5908700000000  0.5160870000000  0.4957190000000 1.0
C      1  0.4538420000000  0.4513600000000  0.4317990000000 1.0
C      1  0.5397240000000  0.5711080000000  0.4837430000000 1.0
C      1  0.4949930000000  0.4774610000000  0.5595140000000 1.0
C      1  0.4973160000000  0.5223580000000  0.4445540000000 1.0
C      1  0.4442080000000  0.5318060000000  0.4885150000000 1.0
C      1  0.5053910000000  0.4551950000000  0.5728340000000 1.0
C      1  0.4540900000000  0.4998880000000  0.5351150000000 1.0
C      1  0.5202150000000  0.4795390000000  0.5192400000000 1.0
C      1  0.4666440000000  0.5420950000000  0.5527980000000 1.0
C      1  0.5332180000000  0.5393900000000  0.5464960000000 1.0
C      1  0.4485920000000  0.4589270000000  0.4063400000000 1.0
C      1  0.5888340000000  0.4959440000000  0.5133770000000 1.0
C      1  0.5449270000000  0.4785110000000  0.5058310000000 1.0
C      1  0.5333290000000  0.5507320000000  0.4654850000000 1.0
C      1  0.4828030000000  0.5603610000000  0.4666990000000 1.0
C      1  0.5170620000000  0.5025150000000  0.4427160000000 1.0
C      1  0.5066650000000  0.5479730000000  0.4560110000000 1.0
C      1  0.4663070000000  0.4016260000000  0.4855700000000 1.0
C      1  0.4981160000000  0.4656660000000  0.5086730000000 1.0
C      1  0.4626580000000  0.4235820000000  0.4701580000000 1.0
C      1  0.5514300000000  0.5283270000000  0.4644430000000 1.0
C      1  0.5691090000000  0.4774040000000  0.5210300000000 1.0
C      1  0.4455520000000  0.5028480000000  0.4867020000000 1.0
C      1  0.4710280000000  0.4650880000000  0.5016660000000 1.0
C      1  0.5426610000000  0.5602760000000  0.5330110000000 1.0
C      1  0.5302860000000  0.4448840000000  0.5731110000000 1.0
C      1  0.5768580000000  0.5286710000000  0.4766060000000 1.0
C      1  0.5137940000000  0.5201390000000  0.5512100000000 1.0
C      1  0.4693890000000  0.5188470000000  0.4505170000000 1.0
C      1  0.4579180000000  0.4681710000000  0.4548070000000 1.0
C      1  0.5450630000000  0.4823640000000  0.4779780000000 1.0
C      1  0.5151610000000  0.4923380000000  0.5440420000000 1.0
END
