TITL C-612601-4209-303 7471.2666303839 125000 -1063.74838991492 0 0 177 (C1) n - 1
REM
REM in /home/nfs/bkarasulu/CARBON/AIRSS/Generating-Clusters/TERSOFF/Only-C1/FIRE-HFTN
REM
REM
REM
REM
REM
REM ./C.cell (11c1c37f851c82e70ff6c80c92926a4b)
REM AIRSS Version 0.9.1 bugfix July 2018 build 013d7b7c2542+ Fri, 06 Jul 2018 19:26:36 +0100
REM compiler GCC version 9.2.1 20190827 (Red Hat 9.2.1-1)
REM options -cpp -mtune=generic -march=x86-64 -g -O0 -fpre-include=/usr/include/finclude/math-vector-fortran.h
REM seed 346634102 1384416449 1686229956 732939941 -640727830 -1299466269 -1198083616 341481960 96927450 -556487830 -581016238 -184179265 532208140 1849600572 -434775692 1415813750 1200592047 2132703493 1231777731 341943128 1731091353 1009632439 1554662521 -484144325 999249243 -1305353863 -107581688 1511156052 1013203126 -1296378985 244232952 -994982034 672741032
REM
CELL 1.54180   50.00000   50.00000   50.00000   90.00000   90.00000   90.00000
LATT -1
SFAC C  
C      1  0.4570480000000  0.5597430000000  0.4766900000000 1.0
C      1  0.4311970000000  0.5233960000000  0.5139740000000 1.0
C      1  0.6413150000000  0.5876090000000  0.5492040000000 1.0
C      1  0.6091050000000  0.5187100000000  0.4641760000000 1.0
C      1  0.4085010000000  0.4240760000000  0.5696440000000 1.0
C      1  0.5920630000000  0.5580760000000  0.4883280000000 1.0
C      1  0.3918690000000  0.3743790000000  0.5734800000000 1.0
C      1  0.5247500000000  0.3769220000000  0.4946940000000 1.0
C      1  0.5408150000000  0.4019130000000  0.5600540000000 1.0
C      1  0.4275290000000  0.4720250000000  0.5224740000000 1.0
C      1  0.4132150000000  0.5724370000000  0.4765110000000 1.0
C      1  0.6118260000000  0.5428780000000  0.5461570000000 1.0
C      1  0.4465310000000  0.4530740000000  0.4058550000000 1.0
C      1  0.3817710000000  0.5044210000000  0.5368220000000 1.0
C      1  0.4870790000000  0.4312810000000  0.6119060000000 1.0
C      1  0.5639930000000  0.4247980000000  0.4987810000000 1.0
C      1  0.4465830000000  0.5152850000000  0.5446170000000 1.0
C      1  0.4728720000000  0.3950520000000  0.4307560000000 1.0
C      1  0.5338510000000  0.5485520000000  0.4658290000000 1.0
C      1  0.5074970000000  0.5289710000000  0.3916730000000 1.0
C      1  0.5136250000000  0.4548610000000  0.4127000000000 1.0
C      1  0.4722030000000  0.4056520000000  0.5616180000000 1.0
C      1  0.4518310000000  0.5845440000000  0.5499810000000 1.0
C      1  0.3934830000000  0.5328380000000  0.5419790000000 1.0
C      1  0.5648680000000  0.4097340000000  0.5463750000000 1.0
C      1  0.5020330000000  0.4384740000000  0.4601910000000 1.0
C      1  0.4385420000000  0.5767750000000  0.4634550000000 1.0
C      1  0.6173750000000  0.5824570000000  0.4155450000000 1.0
C      1  0.4771030000000  0.4064310000000  0.4945310000000 1.0
C      1  0.5343720000000  0.5367730000000  0.3925440000000 1.0
C      1  0.5856830000000  0.5128020000000  0.5066820000000 1.0
C      1  0.4855970000000  0.5078130000000  0.5166850000000 1.0
C      1  0.5088160000000  0.6124840000000  0.5250930000000 1.0
C      1  0.5352030000000  0.4495580000000  0.5702320000000 1.0
C      1  0.5828360000000  0.4839830000000  0.5086320000000 1.0
C      1  0.5025530000000  0.4011140000000  0.3658310000000 1.0
C      1  0.4553980000000  0.5141490000000  0.4247150000000 1.0
C      1  0.5378090000000  0.3957000000000  0.4503990000000 1.0
C      1  0.4688900000000  0.4657200000000  0.3987880000000 1.0
C      1  0.4977110000000  0.4118750000000  0.4743050000000 1.0
C      1  0.5958400000000  0.5295260000000  0.4861990000000 1.0
C      1  0.5190570000000  0.4728250000000  0.5817050000000 1.0
C      1  0.4613890000000  0.6089210000000  0.5362280000000 1.0
C      1  0.4967410000000  0.4055380000000  0.3908470000000 1.0
C      1  0.3904450000000  0.4341530000000  0.4758490000000 1.0
C      1  0.4902130000000  0.4115060000000  0.4174450000000 1.0
C      1  0.5753140000000  0.4788850000000  0.5901980000000 1.0
C      1  0.6227420000000  0.5079670000000  0.4447420000000 1.0
C      1  0.4897010000000  0.3972890000000  0.5187470000000 1.0
C      1  0.3311570000000  0.5229840000000  0.4948590000000 1.0
C      1  0.3996900000000  0.3992020000000  0.5720050000000 1.0
C      1  0.3067420000000  0.5138600000000  0.4953220000000 1.0
C      1  0.4878290000000  0.4152370000000  0.5402780000000 1.0
C      1  0.5496380000000  0.4089240000000  0.4304470000000 1.0
C      1  0.4253270000000  0.4389260000000  0.4177680000000 1.0
C      1  0.4059260000000  0.4533550000000  0.4326600000000 1.0
C      1  0.5903040000000  0.4951860000000  0.5728360000000 1.0
C      1  0.4958280000000  0.4741520000000  0.4007330000000 1.0
C      1  0.4707470000000  0.5230050000000  0.4463580000000 1.0
C      1  0.4667270000000  0.4759170000000  0.4828650000000 1.0
C      1  0.4978560000000  0.5335310000000  0.5115920000000 1.0
C      1  0.4111310000000  0.4978890000000  0.5769390000000 1.0
C      1  0.5708640000000  0.4193350000000  0.3886550000000 1.0
C      1  0.5553300000000  0.5187390000000  0.6167480000000 1.0
C      1  0.5264190000000  0.3821410000000  0.5452990000000 1.0
C      1  0.5710280000000  0.5262910000000  0.5275100000000 1.0
C      1  0.5451920000000  0.5640030000000  0.5889340000000 1.0
C      1  0.5273920000000  0.5402050000000  0.5138760000000 1.0
C      1  0.5993140000000  0.5648960000000  0.4088440000000 1.0
C      1  0.5604600000000  0.5284650000000  0.3986190000000 1.0
C      1  0.5639230000000  0.4935380000000  0.6119470000000 1.0
C      1  0.4548340000000  0.5022590000000  0.5942130000000 1.0
C      1  0.6623730000000  0.5698050000000  0.4837240000000 1.0
C      1  0.4974150000000  0.5781340000000  0.4546430000000 1.0
C      1  0.5024730000000  0.5007520000000  0.3932820000000 1.0
C      1  0.5295340000000  0.4212660000000  0.5794020000000 1.0
C      1  0.5337460000000  0.6020140000000  0.5337460000000 1.0
C      1  0.5283950000000  0.4535170000000  0.4686000000000 1.0
C      1  0.4044000000000  0.4537860000000  0.4609410000000 1.0
C      1  0.4966930000000  0.5168930000000  0.5621060000000 1.0
C      1  0.4076580000000  0.4789910000000  0.5040510000000 1.0
C      1  0.4753590000000  0.5674190000000  0.5497600000000 1.0
C      1  0.4790420000000  0.4568630000000  0.4666030000000 1.0
C      1  0.4762030000000  0.4566370000000  0.6026540000000 1.0
C      1  0.5339350000000  0.4958160000000  0.5341940000000 1.0
C      1  0.4985400000000  0.5256720000000  0.4470720000000 1.0
C      1  0.4811030000000  0.5557820000000  0.5223590000000 1.0
C      1  0.5257710000000  0.5557200000000  0.5388270000000 1.0
C      1  0.5543400000000  0.4268500000000  0.4092040000000 1.0
C      1  0.5349370000000  0.6044450000000  0.4733010000000 1.0
C      1  0.4629040000000  0.3992660000000  0.5859620000000 1.0
C      1  0.4031120000000  0.4721840000000  0.5776010000000 1.0
C      1  0.5432580000000  0.5523400000000  0.4915700000000 1.0
C      1  0.6273090000000  0.5658620000000  0.5460220000000 1.0
C      1  0.4475220000000  0.5207610000000  0.3998920000000 1.0
C      1  0.4958400000000  0.5642750000000  0.5707380000000 1.0
C      1  0.4609240000000  0.5375490000000  0.3835390000000 1.0
C      1  0.6816140000000  0.5519750000000  0.4874330000000 1.0
C      1  0.4679790000000  0.4101100000000  0.6102830000000 1.0
C      1  0.6075800000000  0.4907900000000  0.5501960000000 1.0
C      1  0.4067840000000  0.5526920000000  0.5594210000000 1.0
C      1  0.3837680000000  0.4788370000000  0.5204540000000 1.0
C      1  0.5151400000000  0.5029810000000  0.4503070000000 1.0
C      1  0.5616070000000  0.5658760000000  0.5633720000000 1.0
C      1  0.4577560000000  0.5330120000000  0.4690200000000 1.0
C      1  0.3562540000000  0.5314710000000  0.4947030000000 1.0
C      1  0.3913950000000  0.4988740000000  0.4202540000000 1.0
C      1  0.4664030000000  0.4827670000000  0.6098580000000 1.0
C      1  0.4775440000000  0.5825010000000  0.4340290000000 1.0
C      1  0.4153320000000  0.4504710000000  0.5644090000000 1.0
C      1  0.5004090000000  0.4407780000000  0.5345620000000 1.0
C      1  0.4219760000000  0.4121370000000  0.4134410000000 1.0
C      1  0.5647090000000  0.5009340000000  0.4018180000000 1.0
C      1  0.6218040000000  0.5154650000000  0.5437100000000 1.0
C      1  0.3828100000000  0.5386760000000  0.4933910000000 1.0
C      1  0.4798780000000  0.4814080000000  0.5078060000000 1.0
C      1  0.5817760000000  0.5221860000000  0.5744820000000 1.0
C      1  0.5100430000000  0.5418060000000  0.5591910000000 1.0
C      1  0.4655670000000  0.6106990000000  0.5068450000000 1.0
C      1  0.5577740000000  0.4693010000000  0.5042250000000 1.0
C      1  0.4879810000000  0.6182860000000  0.5450260000000 1.0
C      1  0.4485470000000  0.4125200000000  0.4972070000000 1.0
C      1  0.4414040000000  0.4873880000000  0.4759910000000 1.0
C      1  0.5508890000000  0.4474430000000  0.4863580000000 1.0
C      1  0.4359800000000  0.5166020000000  0.4801610000000 1.0
C      1  0.5271970000000  0.4809940000000  0.4596040000000 1.0
C      1  0.5965630000000  0.4437810000000  0.5309300000000 1.0
C      1  0.4619270000000  0.4589690000000  0.5495540000000 1.0
C      1  0.5813730000000  0.5428840000000  0.5525600000000 1.0
C      1  0.5130050000000  0.4221680000000  0.6027430000000 1.0
C      1  0.5092540000000  0.5513720000000  0.4536640000000 1.0
C      1  0.5171370000000  0.5748140000000  0.5880130000000 1.0
C      1  0.5574130000000  0.4755510000000  0.4046040000000 1.0
C      1  0.5417680000000  0.4526390000000  0.4083970000000 1.0
C      1  0.4809890000000  0.4609720000000  0.5282870000000 1.0
C      1  0.6396190000000  0.5859020000000  0.4818710000000 1.0
C      1  0.4137750000000  0.5703760000000  0.5062980000000 1.0
C      1  0.5392390000000  0.4702490000000  0.5258510000000 1.0
C      1  0.3976310000000  0.5482250000000  0.4702500000000 1.0
C      1  0.5809990000000  0.5468930000000  0.4023310000000 1.0
C      1  0.3797210000000  0.4490400000000  0.5211770000000 1.0
C      1  0.5017640000000  0.4346700000000  0.4296940000000 1.0
C      1  0.3961460000000  0.4302800000000  0.5038340000000 1.0
C      1  0.4347130000000  0.4582350000000  0.5450560000000 1.0
C      1  0.4040770000000  0.5157420000000  0.4363850000000 1.0
C      1  0.4042760000000  0.5418630000000  0.5150170000000 1.0
C      1  0.4841510000000  0.5711810000000  0.4085660000000 1.0
C      1  0.4661110000000  0.5666040000000  0.5015710000000 1.0
C      1  0.5076530000000  0.4966340000000  0.5779600000000 1.0
C      1  0.5508470000000  0.5439540000000  0.6084050000000 1.0
C      1  0.4370720000000  0.6096460000000  0.4272840000000 1.0
C      1  0.4941470000000  0.6080140000000  0.4987720000000 1.0
C      1  0.4503950000000  0.5902370000000  0.4411690000000 1.0
C      1  0.5441990000000  0.5190200000000  0.5245800000000 1.0
C      1  0.5131340000000  0.3810360000000  0.5200810000000 1.0
C      1  0.5070080000000  0.5980700000000  0.4746290000000 1.0
C      1  0.5434580000000  0.5773910000000  0.5434480000000 1.0
C      1  0.3904850000000  0.4722340000000  0.4187230000000 1.0
C      1  0.4712920000000  0.4548030000000  0.5749600000000 1.0
C      1  0.4124020000000  0.5258980000000  0.4607810000000 1.0
C      1  0.4231690000000  0.4185600000000  0.5064580000000 1.0
C      1  0.6440160000000  0.6382790000000  0.4695900000000 1.0
C      1  0.4751730000000  0.5120000000000  0.5434070000000 1.0
C      1  0.4268400000000  0.5719700000000  0.5580140000000 1.0
C      1  0.4162950000000  0.4737110000000  0.4772760000000 1.0
C      1  0.5267670000000  0.4499620000000  0.5409430000000 1.0
C      1  0.5769900000000  0.4236910000000  0.5248240000000 1.0
C      1  0.5627740000000  0.4565760000000  0.5790210000000 1.0
C      1  0.5588910000000  0.5955410000000  0.4822530000000 1.0
C      1  0.5199370000000  0.3931680000000  0.4719040000000 1.0
C      1  0.4369160000000  0.5084500000000  0.5720620000000 1.0
C      1  0.5992410000000  0.4720600000000  0.5296400000000 1.0
C      1  0.5660710000000  0.5695250000000  0.4911930000000 1.0
C      1  0.6144190000000  0.5746960000000  0.4861830000000 1.0
C      1  0.6420500000000  0.6130370000000  0.4757650000000 1.0
C      1  0.6996580000000  0.5336590000000  0.4917410000000 1.0
C      1  0.4859300000000  0.5482050000000  0.3917660000000 1.0
END
