TITL C-612600-6631-1400 -0.000896750792657861 125000 -728.219442546441 0 0 118 (C1) n - 1
REM
REM in /home/nfs/bkarasulu/CARBON/AIRSS/Generating-Clusters/TERSOFF/Only-C1/FIRE-HFTN
REM
REM
REM
REM
REM
REM ./C.cell (11c1c37f851c82e70ff6c80c92926a4b)
REM AIRSS Version 0.9.1 bugfix July 2018 build 013d7b7c2542+ Fri, 06 Jul 2018 19:26:36 +0100
REM compiler GCC version 9.2.1 20190827 (Red Hat 9.2.1-1)
REM options -cpp -mtune=generic -march=x86-64 -g -O0 -fpre-include=/usr/include/finclude/math-vector-fortran.h
REM seed -1687547943 -368623604 -1886071260 1655577333 -500201568 1083843775 -186617477 1302210579 1090135539 1931451446 955158654 740152662 -633344037 -1860532235 -488292517 1997492972 1805790460 -409155149 -1053860475 1906569479 162306826 231507300 -1249754161 -1066551428 -2026362519 -65420123 637890478 -166346904 -343860142 1780385071 686737918 -1577770638 -1499059042
REM
CELL 1.54180   50.00000   50.00000   50.00000   90.00000   90.00000   90.00000
LATT -1
SFAC C  
C      1  0.4883670000000  0.5444080000000  0.5064330000000 1.0
C      1  0.5307140000000  0.4751260000000  0.4566720000000 1.0
C      1  0.4548790000000  0.4274290000000  0.4618930000000 1.0
C      1  0.5167440000000  0.3555830000000  0.5015300000000 1.0
C      1  0.5062600000000  0.5118750000000  0.5743830000000 1.0
C      1  0.5248710000000  0.5529540000000  0.5806700000000 1.0
C      1  0.5528200000000  0.4852540000000  0.4417360000000 1.0
C      1  0.5494460000000  0.4904690000000  0.5813590000000 1.0
C      1  0.5323810000000  0.4617040000000  0.5384280000000 1.0
C      1  0.4426290000000  0.4660410000000  0.4390590000000 1.0
C      1  0.5922670000000  0.4404360000000  0.4629800000000 1.0
C      1  0.4398590000000  0.5057470000000  0.5816980000000 1.0
C      1  0.5636340000000  0.4274340000000  0.5366330000000 1.0
C      1  0.4149200000000  0.5151410000000  0.5357680000000 1.0
C      1  0.4957780000000  0.4887880000000  0.5333920000000 1.0
C      1  0.4287590000000  0.4264940000000  0.5221640000000 1.0
C      1  0.4872200000000  0.5354840000000  0.4533620000000 1.0
C      1  0.5382370000000  0.5950900000000  0.4872030000000 1.0
C      1  0.4844120000000  0.4454720000000  0.5481780000000 1.0
C      1  0.4799460000000  0.5350410000000  0.4811570000000 1.0
C      1  0.4245250000000  0.4484590000000  0.5392020000000 1.0
C      1  0.5015160000000  0.5370710000000  0.5876930000000 1.0
C      1  0.4803930000000  0.4588330000000  0.5934020000000 1.0
C      1  0.3755770000000  0.4995730000000  0.4677110000000 1.0
C      1  0.5303720000000  0.5311420000000  0.5387580000000 1.0
C      1  0.4549190000000  0.5282870000000  0.5728110000000 1.0
C      1  0.5575540000000  0.4652890000000  0.3429590000000 1.0
C      1  0.4082570000000  0.4702380000000  0.5269760000000 1.0
C      1  0.4092920000000  0.5314750000000  0.4827710000000 1.0
C      1  0.4671630000000  0.6123160000000  0.5253490000000 1.0
C      1  0.4552960000000  0.4018700000000  0.4733670000000 1.0
C      1  0.5956310000000  0.4181950000000  0.4487410000000 1.0
C      1  0.5472460000000  0.4984210000000  0.5019580000000 1.0
C      1  0.5778540000000  0.4536690000000  0.4831910000000 1.0
C      1  0.5093420000000  0.4939110000000  0.4597470000000 1.0
C      1  0.4421040000000  0.5150510000000  0.5269990000000 1.0
C      1  0.5579340000000  0.5588230000000  0.4612880000000 1.0
C      1  0.5267500000000  0.5720320000000  0.4217200000000 1.0
C      1  0.5045550000000  0.5152600000000  0.5438460000000 1.0
C      1  0.4025060000000  0.5493150000000  0.5051020000000 1.0
C      1  0.5846270000000  0.5155240000000  0.5545590000000 1.0
C      1  0.5040010000000  0.4711200000000  0.5987710000000 1.0
C      1  0.5207390000000  0.4909210000000  0.5872200000000 1.0
C      1  0.5513810000000  0.4425470000000  0.4890540000000 1.0
C      1  0.5398680000000  0.3977410000000  0.5052740000000 1.0
C      1  0.5119830000000  0.5837290000000  0.4909650000000 1.0
C      1  0.5468270000000  0.5249500000000  0.4939090000000 1.0
C      1  0.4086950000000  0.4907010000000  0.5472760000000 1.0
C      1  0.5969500000000  0.4971690000000  0.5111100000000 1.0
C      1  0.4329360000000  0.4478000000000  0.4597410000000 1.0
C      1  0.4860140000000  0.5771280000000  0.3962010000000 1.0
C      1  0.5708480000000  0.3740780000000  0.4532320000000 1.0
C      1  0.4850020000000  0.5913500000000  0.4824310000000 1.0
C      1  0.5127810000000  0.5587050000000  0.5044310000000 1.0
C      1  0.5790960000000  0.5675350000000  0.5037000000000 1.0
C      1  0.4278740000000  0.4829690000000  0.4238480000000 1.0
C      1  0.5604610000000  0.5765800000000  0.4838290000000 1.0
C      1  0.4129000000000  0.4281790000000  0.4984550000000 1.0
C      1  0.3977550000000  0.5358420000000  0.5291060000000 1.0
C      1  0.4584490000000  0.3963390000000  0.4996160000000 1.0
C      1  0.5927420000000  0.5201070000000  0.5275730000000 1.0
C      1  0.5033280000000  0.5096170000000  0.4138720000000 1.0
C      1  0.4842070000000  0.4530440000000  0.5018070000000 1.0
C      1  0.5419360000000  0.4787490000000  0.5185080000000 1.0
C      1  0.5905560000000  0.5465420000000  0.5165970000000 1.0
C      1  0.5527390000000  0.4485580000000  0.5525130000000 1.0
C      1  0.5430410000000  0.5370150000000  0.5640510000000 1.0
C      1  0.4759200000000  0.4353720000000  0.5231390000000 1.0
C      1  0.4711790000000  0.4614210000000  0.4371050000000 1.0
C      1  0.4151540000000  0.5748750000000  0.5060830000000 1.0
C      1  0.5571430000000  0.5312990000000  0.4681290000000 1.0
C      1  0.4996870000000  0.5131820000000  0.4413380000000 1.0
C      1  0.4552530000000  0.4163520000000  0.5192470000000 1.0
C      1  0.3986010000000  0.5026550000000  0.4832940000000 1.0
C      1  0.5275620000000  0.4515350000000  0.4736740000000 1.0
C      1  0.4879540000000  0.6060350000000  0.5432200000000 1.0
C      1  0.4632700000000  0.5971680000000  0.5017940000000 1.0
C      1  0.4545230000000  0.4978090000000  0.5067440000000 1.0
C      1  0.5848800000000  0.4124070000000  0.5450170000000 1.0
C      1  0.5519690000000  0.3669730000000  0.4705820000000 1.0
C      1  0.4506600000000  0.6335070000000  0.5307290000000 1.0
C      1  0.5450890000000  0.6485440000000  0.4870640000000 1.0
C      1  0.4436080000000  0.5696590000000  0.4681370000000 1.0
C      1  0.4274940000000  0.5457100000000  0.4647290000000 1.0
C      1  0.4388310000000  0.5836700000000  0.4936050000000 1.0
C      1  0.5511870000000  0.4228790000000  0.5105400000000 1.0
C      1  0.4070010000000  0.4761130000000  0.4972120000000 1.0
C      1  0.5414120000000  0.4831580000000  0.3911200000000 1.0
C      1  0.4977900000000  0.4944610000000  0.4850230000000 1.0
C      1  0.5357820000000  0.3730290000000  0.4926710000000 1.0
C      1  0.5180680000000  0.4984790000000  0.3945950000000 1.0
C      1  0.5905280000000  0.4747050000000  0.4976240000000 1.0
C      1  0.5340650000000  0.5420850000000  0.5127160000000 1.0
C      1  0.4986880000000  0.4450680000000  0.4775700000000 1.0
C      1  0.5557160000000  0.4778700000000  0.4148240000000 1.0
C      1  0.5483760000000  0.5677650000000  0.4366410000000 1.0
C      1  0.4804160000000  0.4410240000000  0.4556130000000 1.0
C      1  0.5054630000000  0.4645550000000  0.5446300000000 1.0
C      1  0.5607320000000  0.4646670000000  0.5746970000000 1.0
C      1  0.5206240000000  0.5801110000000  0.5749980000000 1.0
C      1  0.4988350000000  0.5703950000000  0.4193350000000 1.0
C      1  0.4268680000000  0.4837740000000  0.5692940000000 1.0
C      1  0.4837380000000  0.5342160000000  0.5326760000000 1.0
C      1  0.5633670000000  0.5098840000000  0.4509430000000 1.0
C      1  0.4587130000000  0.5300220000000  0.5441740000000 1.0
C      1  0.4663640000000  0.4512590000000  0.5698030000000 1.0
C      1  0.4148570000000  0.4516680000000  0.4817320000000 1.0
C      1  0.4705390000000  0.5782120000000  0.4597250000000 1.0
C      1  0.5062540000000  0.5973410000000  0.5605060000000 1.0
C      1  0.5497370000000  0.4739390000000  0.3662680000000 1.0
C      1  0.4391860000000  0.4579440000000  0.5630330000000 1.0
C      1  0.4846240000000  0.5612980000000  0.4419940000000 1.0
C      1  0.4737730000000  0.5420220000000  0.5893050000000 1.0
C      1  0.4451970000000  0.4989940000000  0.4807660000000 1.0
C      1  0.5422590000000  0.6226400000000  0.4869450000000 1.0
C      1  0.5874840000000  0.3931270000000  0.4448800000000 1.0
C      1  0.4815930000000  0.4838880000000  0.5076590000000 1.0
C      1  0.5613250000000  0.5154930000000  0.5709160000000 1.0
END
