TITL C-612602-9376-474 0.0439775081407578 125000 -947.615061778564 0 0 156 (C1) n - 1
REM
REM in /home/nfs/bkarasulu/CARBON/AIRSS/Generating-Clusters/TERSOFF/Only-C1/FIRE-HFTN
REM
REM
REM
REM
REM
REM ./C.cell (11c1c37f851c82e70ff6c80c92926a4b)
REM AIRSS Version 0.9.1 bugfix July 2018 build 013d7b7c2542+ Fri, 06 Jul 2018 19:26:36 +0100
REM compiler GCC version 9.2.1 20190827 (Red Hat 9.2.1-1)
REM options -cpp -mtune=generic -march=x86-64 -g -O0 -fpre-include=/usr/include/finclude/math-vector-fortran.h
REM seed -1407965434 750404739 245759909 -462009538 -1328636383 -768436197 -672044284 1212617524 -2121472511 1521557077 1652320700 766591494 257057380 453054538 259143476 1085861851 -970947660 2135764383 -366685123 -62409355 -1863674772 1922079225 -522225242 1737695495 1178500089 466229236 49635214 1322432548 1694075400 859064407 -1903876008 864174938 -1420119005
REM
CELL 1.54180   50.00000   50.00000   50.00000   90.00000   90.00000   90.00000
LATT -1
SFAC C  
C      1  0.5360280000000  0.5247780000000  0.3986940000000 1.0
C      1  0.4338390000000  0.4215440000000  0.4713200000000 1.0
C      1  0.5355200000000  0.4732480000000  0.5489690000000 1.0
C      1  0.4401210000000  0.4901990000000  0.4184540000000 1.0
C      1  0.5676470000000  0.4643170000000  0.4821800000000 1.0
C      1  0.5828390000000  0.5962140000000  0.4710740000000 1.0
C      1  0.6023940000000  0.4951700000000  0.4369610000000 1.0
C      1  0.4542630000000  0.4740460000000  0.3982660000000 1.0
C      1  0.5144080000000  0.4917900000000  0.6029250000000 1.0
C      1  0.4880750000000  0.5486920000000  0.4269130000000 1.0
C      1  0.4759810000000  0.5324030000000  0.5638660000000 1.0
C      1  0.5524040000000  0.5552030000000  0.5743470000000 1.0
C      1  0.4648130000000  0.6064420000000  0.4585860000000 1.0
C      1  0.5081700000000  0.4487790000000  0.4587040000000 1.0
C      1  0.6088720000000  0.4910690000000  0.5353030000000 1.0
C      1  0.5502530000000  0.4241650000000  0.5658270000000 1.0
C      1  0.5142020000000  0.5193020000000  0.5956400000000 1.0
C      1  0.5938220000000  0.4660890000000  0.4708900000000 1.0
C      1  0.5489220000000  0.4561370000000  0.5016940000000 1.0
C      1  0.4291300000000  0.5884510000000  0.5078030000000 1.0
C      1  0.6048120000000  0.4936100000000  0.4660840000000 1.0
C      1  0.4755440000000  0.6094810000000  0.5282540000000 1.0
C      1  0.4771950000000  0.4160260000000  0.5513000000000 1.0
C      1  0.4975190000000  0.4258720000000  0.5678060000000 1.0
C      1  0.4159500000000  0.5689040000000  0.4595180000000 1.0
C      1  0.4247940000000  0.5390310000000  0.4946230000000 1.0
C      1  0.5201370000000  0.4159740000000  0.4257150000000 1.0
C      1  0.5321500000000  0.5630550000000  0.4860690000000 1.0
C      1  0.3949290000000  0.5016100000000  0.4864250000000 1.0
C      1  0.5731970000000  0.5863760000000  0.4964600000000 1.0
C      1  0.5050080000000  0.5541600000000  0.4759910000000 1.0
C      1  0.5235070000000  0.4186470000000  0.5726900000000 1.0
C      1  0.5644510000000  0.4306870000000  0.5414150000000 1.0
C      1  0.4234720000000  0.5722870000000  0.5311170000000 1.0
C      1  0.5631660000000  0.4699120000000  0.5651050000000 1.0
C      1  0.5356390000000  0.5306570000000  0.5797060000000 1.0
C      1  0.4706380000000  0.4947180000000  0.3842220000000 1.0
C      1  0.4525370000000  0.5486660000000  0.5608790000000 1.0
C      1  0.5391970000000  0.4974380000000  0.4611310000000 1.0
C      1  0.4578430000000  0.4595440000000  0.4836790000000 1.0
C      1  0.4276420000000  0.4373010000000  0.5421280000000 1.0
C      1  0.4558430000000  0.4075060000000  0.4836910000000 1.0
C      1  0.4861210000000  0.5389960000000  0.3993780000000 1.0
C      1  0.5317520000000  0.4472570000000  0.5995150000000 1.0
C      1  0.5056060000000  0.5627500000000  0.4445170000000 1.0
C      1  0.4817560000000  0.4471570000000  0.4950300000000 1.0
C      1  0.5500430000000  0.4715640000000  0.4599530000000 1.0
C      1  0.4423450000000  0.5070050000000  0.4632470000000 1.0
C      1  0.5551950000000  0.4472840000000  0.5847330000000 1.0
C      1  0.4688600000000  0.5624330000000  0.5132790000000 1.0
C      1  0.4870640000000  0.4602370000000  0.4449030000000 1.0
C      1  0.4089410000000  0.5426560000000  0.4492510000000 1.0
C      1  0.4288340000000  0.4224440000000  0.4435830000000 1.0
C      1  0.4255370000000  0.5685560000000  0.4866410000000 1.0
C      1  0.4864040000000  0.5604020000000  0.5996820000000 1.0
C      1  0.4649160000000  0.5102680000000  0.6049550000000 1.0
C      1  0.5244780000000  0.4727090000000  0.4976370000000 1.0
C      1  0.4869130000000  0.5223210000000  0.5399780000000 1.0
C      1  0.5214090000000  0.4986610000000  0.4832840000000 1.0
C      1  0.4861400000000  0.5304390000000  0.5930040000000 1.0
C      1  0.5429740000000  0.5867210000000  0.4993420000000 1.0
C      1  0.5769330000000  0.5000430000000  0.6026270000000 1.0
C      1  0.5883450000000  0.5502740000000  0.4587980000000 1.0
C      1  0.5092400000000  0.5231590000000  0.3893390000000 1.0
C      1  0.5342400000000  0.4516690000000  0.4491020000000 1.0
C      1  0.3979880000000  0.4869540000000  0.5371530000000 1.0
C      1  0.5117550000000  0.4770850000000  0.4026760000000 1.0
C      1  0.5041490000000  0.6021840000000  0.5328410000000 1.0
C      1  0.5358780000000  0.4409010000000  0.4222850000000 1.0
C      1  0.5043130000000  0.5208180000000  0.4892920000000 1.0
C      1  0.5024110000000  0.4608910000000  0.5105870000000 1.0
C      1  0.6088040000000  0.5147410000000  0.4863710000000 1.0
C      1  0.4887460000000  0.4542310000000  0.5786270000000 1.0
C      1  0.6050240000000  0.4627870000000  0.5342000000000 1.0
C      1  0.5505920000000  0.5414450000000  0.4865890000000 1.0
C      1  0.3921600000000  0.4734500000000  0.4819940000000 1.0
C      1  0.4376740000000  0.5183560000000  0.4100190000000 1.0
C      1  0.4815280000000  0.4207120000000  0.4796950000000 1.0
C      1  0.4444050000000  0.5022430000000  0.5377690000000 1.0
C      1  0.6237450000000  0.4458650000000  0.5238770000000 1.0
C      1  0.4455560000000  0.4863590000000  0.4459740000000 1.0
C      1  0.4502990000000  0.5614030000000  0.5359280000000 1.0
C      1  0.4509620000000  0.6071210000000  0.5151420000000 1.0
C      1  0.5330410000000  0.5335750000000  0.5314660000000 1.0
C      1  0.5047200000000  0.6129610000000  0.4865720000000 1.0
C      1  0.5900990000000  0.5623720000000  0.5057380000000 1.0
C      1  0.4904080000000  0.5191130000000  0.5135190000000 1.0
C      1  0.4645850000000  0.4859390000000  0.6203690000000 1.0
C      1  0.4543490000000  0.4622090000000  0.6107920000000 1.0
C      1  0.5786840000000  0.4925770000000  0.5764110000000 1.0
C      1  0.4594860000000  0.4491210000000  0.5859900000000 1.0
C      1  0.4420500000000  0.5071750000000  0.5882890000000 1.0
C      1  0.4825140000000  0.5972790000000  0.4779720000000 1.0
C      1  0.5630980000000  0.5370350000000  0.4607310000000 1.0
C      1  0.5552240000000  0.4086640000000  0.4566650000000 1.0
C      1  0.4772080000000  0.4288430000000  0.3984820000000 1.0
C      1  0.5776360000000  0.5480990000000  0.5274820000000 1.0
C      1  0.4865370000000  0.4709840000000  0.5537670000000 1.0
C      1  0.5383620000000  0.5801530000000  0.5703650000000 1.0
C      1  0.4514670000000  0.6172080000000  0.4389570000000 1.0
C      1  0.5226490000000  0.5819900000000  0.4355430000000 1.0
C      1  0.4028970000000  0.5372600000000  0.5610140000000 1.0
C      1  0.4322350000000  0.4465620000000  0.4862770000000 1.0
C      1  0.4349540000000  0.4334910000000  0.4197790000000 1.0
C      1  0.5213750000000  0.6043950000000  0.5084910000000 1.0
C      1  0.4932600000000  0.5042490000000  0.4388930000000 1.0
C      1  0.4924160000000  0.5772280000000  0.5770590000000 1.0
C      1  0.5524570000000  0.5104010000000  0.4170090000000 1.0
C      1  0.4537070000000  0.4017000000000  0.5118740000000 1.0
C      1  0.4311700000000  0.4130180000000  0.5257830000000 1.0
C      1  0.5086670000000  0.3990210000000  0.5063800000000 1.0
C      1  0.4057260000000  0.5255990000000  0.4732970000000 1.0
C      1  0.4649650000000  0.4830090000000  0.5400380000000 1.0
C      1  0.4031490000000  0.5035940000000  0.5138550000000 1.0
C      1  0.3750060000000  0.4626070000000  0.4637990000000 1.0
C      1  0.4824520000000  0.5702370000000  0.4888980000000 1.0
C      1  0.6153860000000  0.5055130000000  0.5123240000000 1.0
C      1  0.6015360000000  0.5435070000000  0.4842060000000 1.0
C      1  0.5498850000000  0.4311880000000  0.5171650000000 1.0
C      1  0.4275060000000  0.5466520000000  0.5752510000000 1.0
C      1  0.5169590000000  0.5566650000000  0.5360230000000 1.0
C      1  0.4307920000000  0.5022620000000  0.5636280000000 1.0
C      1  0.5746840000000  0.5521310000000  0.5556420000000 1.0
C      1  0.4027540000000  0.5071780000000  0.5589250000000 1.0
C      1  0.4098450000000  0.4592710000000  0.5294260000000 1.0
C      1  0.5099600000000  0.4643750000000  0.5973640000000 1.0
C      1  0.5765210000000  0.4245340000000  0.4485010000000 1.0
C      1  0.4292320000000  0.5175460000000  0.5159250000000 1.0
C      1  0.4190520000000  0.5341220000000  0.4242000000000 1.0
C      1  0.5809220000000  0.4538140000000  0.5455440000000 1.0
C      1  0.5606860000000  0.4823300000000  0.4115430000000 1.0
C      1  0.4814200000000  0.5697160000000  0.6247830000000 1.0
C      1  0.5377440000000  0.4643890000000  0.4055230000000 1.0
C      1  0.5856830000000  0.4736260000000  0.4247630000000 1.0
C      1  0.5122010000000  0.5811600000000  0.5542370000000 1.0
C      1  0.5357700000000  0.5175920000000  0.5541170000000 1.0
C      1  0.4095340000000  0.4573610000000  0.4991830000000 1.0
C      1  0.5092430000000  0.4672420000000  0.5380520000000 1.0
C      1  0.4545740000000  0.4454320000000  0.4026760000000 1.0
C      1  0.4488320000000  0.4352970000000  0.5625300000000 1.0
C      1  0.4624350000000  0.4667790000000  0.4565400000000 1.0
C      1  0.5052450000000  0.4046310000000  0.4777230000000 1.0
C      1  0.5894110000000  0.4505350000000  0.4447990000000 1.0
C      1  0.5896900000000  0.5778020000000  0.4519930000000 1.0
C      1  0.4794680000000  0.4026110000000  0.5259870000000 1.0
C      1  0.4005750000000  0.5578970000000  0.5407480000000 1.0
C      1  0.5987060000000  0.5025610000000  0.5589860000000 1.0
C      1  0.4999720000000  0.4955280000000  0.3842630000000 1.0
C      1  0.5329110000000  0.4089980000000  0.5151410000000 1.0
C      1  0.4614540000000  0.5227280000000  0.3931710000000 1.0
C      1  0.5513030000000  0.5170970000000  0.4450020000000 1.0
C      1  0.5254870000000  0.4049670000000  0.4540210000000 1.0
C      1  0.5552970000000  0.5346470000000  0.5142270000000 1.0
C      1  0.4972010000000  0.4144340000000  0.4093470000000 1.0
C      1  0.4969450000000  0.4794990000000  0.4272830000000 1.0
C      1  0.4797170000000  0.5266670000000  0.4424640000000 1.0
END
