TITL C-612604-1799-1432 0.976953679017967 125000 -964.430516083763 0 0 156 (C1) n - 1
REM
REM in /home/nfs/bkarasulu/CARBON/AIRSS/Generating-Clusters/TERSOFF/Only-C1/FIRE-HFTN
REM
REM
REM
REM
REM
REM ./C.cell (11c1c37f851c82e70ff6c80c92926a4b)
REM AIRSS Version 0.9.1 bugfix July 2018 build 013d7b7c2542+ Fri, 06 Jul 2018 19:26:36 +0100
REM compiler GCC version 9.2.1 20190827 (Red Hat 9.2.1-1)
REM options -cpp -mtune=generic -march=x86-64 -g -O0 -fpre-include=/usr/include/finclude/math-vector-fortran.h
REM seed 17575550 1494082386 643400343 1185126058 762945241 -1744388145 -777737685 -1603804973 -1673554862 2118039475 -575878172 -1417752103 450768833 -427584823 -670151774 611258090 -942072777 8536922 1873788322 -627233181 -2047707448 1846604896 -382657970 -1325852242 -1780747722 1099296292 -1801755660 1099119093 -302011359 -2057762157 330467901 -314281557 362208349
REM
CELL 1.54180   50.00000   50.00000   50.00000   90.00000   90.00000   90.00000
LATT -1
SFAC C  
C      1  0.5639780000000  0.4774200000000  0.4206210000000 1.0
C      1  0.5469450000000  0.5309490000000  0.4538510000000 1.0
C      1  0.5352240000000  0.3844010000000  0.5679530000000 1.0
C      1  0.4329680000000  0.4858400000000  0.5751060000000 1.0
C      1  0.5611590000000  0.5996930000000  0.4155260000000 1.0
C      1  0.4439330000000  0.5073880000000  0.5901550000000 1.0
C      1  0.4331990000000  0.4155740000000  0.5443640000000 1.0
C      1  0.5629270000000  0.5999060000000  0.4863570000000 1.0
C      1  0.5682770000000  0.5255420000000  0.4950580000000 1.0
C      1  0.5269730000000  0.4753740000000  0.3877330000000 1.0
C      1  0.4411780000000  0.5689120000000  0.5678000000000 1.0
C      1  0.5732760000000  0.5399950000000  0.4459060000000 1.0
C      1  0.4441760000000  0.4923450000000  0.5021750000000 1.0
C      1  0.4619340000000  0.4902010000000  0.5254020000000 1.0
C      1  0.4551920000000  0.4861950000000  0.4515330000000 1.0
C      1  0.4794520000000  0.5910450000000  0.5250710000000 1.0
C      1  0.5306450000000  0.3938940000000  0.4890810000000 1.0
C      1  0.5010010000000  0.4638320000000  0.3959190000000 1.0
C      1  0.5286940000000  0.5031860000000  0.3806530000000 1.0
C      1  0.5063100000000  0.5117800000000  0.5443570000000 1.0
C      1  0.5036420000000  0.5912250000000  0.5699200000000 1.0
C      1  0.4803510000000  0.5934440000000  0.5534990000000 1.0
C      1  0.5763220000000  0.4481350000000  0.5271520000000 1.0
C      1  0.3908440000000  0.5366980000000  0.4530800000000 1.0
C      1  0.5496610000000  0.3849180000000  0.5409320000000 1.0
C      1  0.4482740000000  0.4103700000000  0.4174950000000 1.0
C      1  0.5294170000000  0.3847340000000  0.5175800000000 1.0
C      1  0.5201660000000  0.5702920000000  0.5802400000000 1.0
C      1  0.5090730000000  0.5046660000000  0.4369290000000 1.0
C      1  0.4743470000000  0.5213510000000  0.4842080000000 1.0
C      1  0.5981010000000  0.4981330000000  0.5732680000000 1.0
C      1  0.4426950000000  0.4240430000000  0.4793810000000 1.0
C      1  0.4538690000000  0.5945530000000  0.5652660000000 1.0
C      1  0.5199680000000  0.5849910000000  0.4372270000000 1.0
C      1  0.5826180000000  0.5504560000000  0.4914150000000 1.0
C      1  0.4794990000000  0.4991500000000  0.4392770000000 1.0
C      1  0.5001490000000  0.5766540000000  0.5101260000000 1.0
C      1  0.5595860000000  0.4740670000000  0.4506340000000 1.0
C      1  0.5061340000000  0.4216360000000  0.5597940000000 1.0
C      1  0.5569810000000  0.4497410000000  0.4683730000000 1.0
C      1  0.4154210000000  0.4359210000000  0.5450260000000 1.0
C      1  0.4656550000000  0.4530450000000  0.5596830000000 1.0
C      1  0.5506920000000  0.5164130000000  0.5705910000000 1.0
C      1  0.4643960000000  0.5853760000000  0.4810820000000 1.0
C      1  0.3911010000000  0.4650380000000  0.4631560000000 1.0
C      1  0.4310220000000  0.6017350000000  0.5127720000000 1.0
C      1  0.4514710000000  0.4755600000000  0.4791300000000 1.0
C      1  0.5043430000000  0.6231680000000  0.4657980000000 1.0
C      1  0.5127810000000  0.5573630000000  0.5262060000000 1.0
C      1  0.5044340000000  0.4291780000000  0.4637630000000 1.0
C      1  0.5979790000000  0.4810170000000  0.4901650000000 1.0
C      1  0.5329570000000  0.5022900000000  0.5513090000000 1.0
C      1  0.5658460000000  0.5176680000000  0.5221070000000 1.0
C      1  0.5098100000000  0.3932240000000  0.5595260000000 1.0
C      1  0.5488140000000  0.5898450000000  0.4380500000000 1.0
C      1  0.5239800000000  0.4844800000000  0.4512580000000 1.0
C      1  0.5770410000000  0.5644680000000  0.5169290000000 1.0
C      1  0.4485990000000  0.5849970000000  0.4577100000000 1.0
C      1  0.5689280000000  0.5440340000000  0.5364830000000 1.0
C      1  0.5669610000000  0.4236100000000  0.4711840000000 1.0
C      1  0.4166910000000  0.5600310000000  0.5551510000000 1.0
C      1  0.5686070000000  0.5910120000000  0.5115980000000 1.0
C      1  0.4301850000000  0.4856690000000  0.4373530000000 1.0
C      1  0.4933860000000  0.5801230000000  0.4812660000000 1.0
C      1  0.5522510000000  0.3992240000000  0.4697180000000 1.0
C      1  0.5027350000000  0.3833400000000  0.5325230000000 1.0
C      1  0.5648060000000  0.5854270000000  0.4617990000000 1.0
C      1  0.5486790000000  0.4951240000000  0.5282920000000 1.0
C      1  0.4564290000000  0.3996260000000  0.4811310000000 1.0
C      1  0.4336620000000  0.6069840000000  0.4510480000000 1.0
C      1  0.5898230000000  0.4596770000000  0.5071250000000 1.0
C      1  0.4489080000000  0.5630490000000  0.4413200000000 1.0
C      1  0.5574630000000  0.5440230000000  0.5627170000000 1.0
C      1  0.5065720000000  0.5951090000000  0.4608160000000 1.0
C      1  0.5486860000000  0.5675190000000  0.5771140000000 1.0
C      1  0.4036590000000  0.4868090000000  0.4474820000000 1.0
C      1  0.5686490000000  0.4060790000000  0.5471110000000 1.0
C      1  0.3969160000000  0.4381970000000  0.4588630000000 1.0
C      1  0.3877680000000  0.5574290000000  0.4707380000000 1.0
C      1  0.5074810000000  0.5448970000000  0.5774460000000 1.0
C      1  0.4174680000000  0.4237290000000  0.4675550000000 1.0
C      1  0.5480500000000  0.3933070000000  0.4419280000000 1.0
C      1  0.5046200000000  0.4993670000000  0.6013260000000 1.0
C      1  0.5055450000000  0.4795040000000  0.4726520000000 1.0
C      1  0.4183460000000  0.5034770000000  0.5072150000000 1.0
C      1  0.5727490000000  0.5021470000000  0.5813060000000 1.0
C      1  0.5117860000000  0.5471170000000  0.3963400000000 1.0
C      1  0.5445670000000  0.5241780000000  0.4804900000000 1.0
C      1  0.5359990000000  0.4358610000000  0.4128120000000 1.0
C      1  0.4640730000000  0.5346300000000  0.5421540000000 1.0
C      1  0.4473490000000  0.4613690000000  0.5796350000000 1.0
C      1  0.4929080000000  0.5244360000000  0.5928690000000 1.0
C      1  0.4565450000000  0.5940790000000  0.5073510000000 1.0
C      1  0.5577680000000  0.4316780000000  0.5408180000000 1.0
C      1  0.5395500000000  0.4715590000000  0.5150820000000 1.0
C      1  0.4682430000000  0.4207790000000  0.4306580000000 1.0
C      1  0.5093100000000  0.5402290000000  0.5484920000000 1.0
C      1  0.4718810000000  0.4474870000000  0.5118110000000 1.0
C      1  0.4498530000000  0.6413110000000  0.5470010000000 1.0
C      1  0.5153400000000  0.4743180000000  0.6035270000000 1.0
C      1  0.6234920000000  0.5027520000000  0.5281260000000 1.0
C      1  0.4194010000000  0.5392350000000  0.5356750000000 1.0
C      1  0.4638180000000  0.6503720000000  0.5258770000000 1.0
C      1  0.4778870000000  0.4275390000000  0.5594070000000 1.0
C      1  0.4994860000000  0.4476300000000  0.5092660000000 1.0
C      1  0.6172110000000  0.4976600000000  0.5024550000000 1.0
C      1  0.5042920000000  0.5220680000000  0.3807070000000 1.0
C      1  0.4588060000000  0.5458910000000  0.5680370000000 1.0
C      1  0.3971550000000  0.5111320000000  0.4626280000000 1.0
C      1  0.4430900000000  0.6206460000000  0.5631460000000 1.0
C      1  0.4554860000000  0.5371080000000  0.4955340000000 1.0
C      1  0.4745420000000  0.3877790000000  0.5309040000000 1.0
C      1  0.4801960000000  0.5066440000000  0.3813950000000 1.0
C      1  0.4791720000000  0.6496130000000  0.5038700000000 1.0
C      1  0.5372240000000  0.4243400000000  0.6014470000000 1.0
C      1  0.4974690000000  0.5047090000000  0.4852630000000 1.0
C      1  0.4934510000000  0.6409170000000  0.4828730000000 1.0
C      1  0.4437140000000  0.4472210000000  0.6027640000000 1.0
C      1  0.5801660000000  0.5607650000000  0.4644390000000 1.0
C      1  0.6163660000000  0.5005840000000  0.5538480000000 1.0
C      1  0.5451010000000  0.4106800000000  0.4212620000000 1.0
C      1  0.4642080000000  0.5271240000000  0.5887300000000 1.0
C      1  0.4812400000000  0.3898690000000  0.4792810000000 1.0
C      1  0.5501570000000  0.5167190000000  0.3949060000000 1.0
C      1  0.5202400000000  0.5194050000000  0.4924000000000 1.0
C      1  0.5663240000000  0.5857010000000  0.5873010000000 1.0
C      1  0.5350000000000  0.5361810000000  0.4096700000000 1.0
C      1  0.3874290000000  0.4628660000000  0.5162770000000 1.0
C      1  0.5187190000000  0.4560460000000  0.5286590000000 1.0
C      1  0.5265740000000  0.4494090000000  0.6042580000000 1.0
C      1  0.5105610000000  0.4521760000000  0.4823340000000 1.0
C      1  0.5285510000000  0.4367290000000  0.5468380000000 1.0
C      1  0.4042280000000  0.4617030000000  0.5396900000000 1.0
C      1  0.4142060000000  0.4871540000000  0.5524140000000 1.0
C      1  0.4605280000000  0.4077970000000  0.5459220000000 1.0
C      1  0.4454240000000  0.5415780000000  0.5214810000000 1.0
C      1  0.5057660000000  0.4031760000000  0.4770040000000 1.0
C      1  0.5073760000000  0.4423920000000  0.4147710000000 1.0
C      1  0.5833830000000  0.4868490000000  0.4660090000000 1.0
C      1  0.5477340000000  0.4609550000000  0.4034210000000 1.0
C      1  0.5073800000000  0.5714160000000  0.4133940000000 1.0
C      1  0.4642390000000  0.4637730000000  0.5337780000000 1.0
C      1  0.5400700000000  0.4569490000000  0.4897830000000 1.0
C      1  0.4782190000000  0.5097740000000  0.5377110000000 1.0
C      1  0.5852990000000  0.5231400000000  0.4265930000000 1.0
C      1  0.5490630000000  0.4014110000000  0.5884300000000 1.0
C      1  0.4129500000000  0.5108060000000  0.5348370000000 1.0
C      1  0.5272360000000  0.5268730000000  0.4349140000000 1.0
C      1  0.5752260000000  0.4048390000000  0.5755540000000 1.0
C      1  0.3967240000000  0.5014020000000  0.4896420000000 1.0
C      1  0.4932470000000  0.4317620000000  0.4370140000000 1.0
C      1  0.5707340000000  0.5041730000000  0.4106680000000 1.0
C      1  0.4553240000000  0.4481220000000  0.4881940000000 1.0
C      1  0.3874900000000  0.5408320000000  0.4262070000000 1.0
C      1  0.4791050000000  0.4802090000000  0.3885310000000 1.0
C      1  0.3858430000000  0.4743400000000  0.4904870000000 1.0
END
