TITL C-612607-4507-625 0.000193826927517512 125000 -410.456111783113 0 0 68 (C1) n - 1
REM
REM in /home/nfs/bkarasulu/CARBON/AIRSS/Generating-Clusters/TERSOFF/Only-C1/FIRE-HFTN
REM
REM
REM
REM
REM
REM ./C.cell (11c1c37f851c82e70ff6c80c92926a4b)
REM AIRSS Version 0.9.1 bugfix July 2018 build 013d7b7c2542+ Fri, 06 Jul 2018 19:26:36 +0100
REM compiler GCC version 9.2.1 20190827 (Red Hat 9.2.1-1)
REM options -cpp -mtune=generic -march=x86-64 -g -O0 -fpre-include=/usr/include/finclude/math-vector-fortran.h
REM seed -1643277858 -1508652892 1175972145 1761696189 -824389888 -89843480 -440154962 -1210571685 716592942 -681872190 -2037102431 -1248458696 -1488521027 -1320794147 1212418529 1156109768 1546131016 216028067 -678097426 -1678711169 -302012885 461237195 975270388 -1211812733 -1722493776 -1420690919 899201434 -1475839083 -1139322196 248382061 646118512 987425880 -2005468091
REM
CELL 1.54180   50.00000   50.00000   50.00000   90.00000   90.00000   90.00000
LATT -1
SFAC C  
C      1  0.4695360000000  0.5138540000000  0.4116210000000 1.0
C      1  0.4181990000000  0.5431920000000  0.5132330000000 1.0
C      1  0.4407770000000  0.5549370000000  0.5249280000000 1.0
C      1  0.4588600000000  0.4794700000000  0.5674590000000 1.0
C      1  0.5221120000000  0.4474420000000  0.4343620000000 1.0
C      1  0.5035130000000  0.5126650000000  0.5596260000000 1.0
C      1  0.5674530000000  0.5234280000000  0.4920710000000 1.0
C      1  0.5101070000000  0.5412830000000  0.4300790000000 1.0
C      1  0.4858610000000  0.5563360000000  0.5065300000000 1.0
C      1  0.5651840000000  0.5283070000000  0.5763630000000 1.0
C      1  0.5126930000000  0.4758670000000  0.5291770000000 1.0
C      1  0.5171650000000  0.5240680000000  0.5826960000000 1.0
C      1  0.4929830000000  0.4784280000000  0.5097680000000 1.0
C      1  0.4561860000000  0.4910680000000  0.4169080000000 1.0
C      1  0.4376370000000  0.5791160000000  0.5387010000000 1.0
C      1  0.4585890000000  0.5003910000000  0.5475250000000 1.0
C      1  0.4978040000000  0.5431540000000  0.4849180000000 1.0
C      1  0.5305290000000  0.5369360000000  0.4496110000000 1.0
C      1  0.5674740000000  0.5110950000000  0.5551780000000 1.0
C      1  0.4814800000000  0.5001280000000  0.4619510000000 1.0
C      1  0.4561630000000  0.4363680000000  0.5409450000000 1.0
C      1  0.4933570000000  0.6097920000000  0.5080400000000 1.0
C      1  0.5452330000000  0.5401430000000  0.4987050000000 1.0
C      1  0.5403270000000  0.5404790000000  0.5273910000000 1.0
C      1  0.5211940000000  0.4988110000000  0.5420130000000 1.0
C      1  0.5921000000000  0.5047160000000  0.4238000000000 1.0
C      1  0.4663330000000  0.4823720000000  0.5022310000000 1.0
C      1  0.5757720000000  0.4979810000000  0.4938520000000 1.0
C      1  0.4627100000000  0.4829530000000  0.4742030000000 1.0
C      1  0.5363470000000  0.4209400000000  0.4771110000000 1.0
C      1  0.5596180000000  0.4497660000000  0.5069090000000 1.0
C      1  0.5331640000000  0.4284770000000  0.4517330000000 1.0
C      1  0.4482930000000  0.4919510000000  0.5218100000000 1.0
C      1  0.4924440000000  0.4160300000000  0.5158940000000 1.0
C      1  0.4996700000000  0.4403970000000  0.4188100000000 1.0
C      1  0.4499310000000  0.4251250000000  0.4932960000000 1.0
C      1  0.4082810000000  0.5185160000000  0.5102730000000 1.0
C      1  0.4443810000000  0.4389340000000  0.4709790000000 1.0
C      1  0.4835520000000  0.5543150000000  0.5649340000000 1.0
C      1  0.4212350000000  0.4956000000000  0.5154180000000 1.0
C      1  0.5751840000000  0.4827490000000  0.4248190000000 1.0
C      1  0.5492590000000  0.4905060000000  0.4354070000000 1.0
C      1  0.5387930000000  0.4309940000000  0.5032290000000 1.0
C      1  0.5039100000000  0.4887920000000  0.4500020000000 1.0
C      1  0.5453830000000  0.5126950000000  0.5370980000000 1.0
C      1  0.5260380000000  0.4753140000000  0.4395110000000 1.0
C      1  0.4895010000000  0.5840250000000  0.5087640000000 1.0
C      1  0.5254780000000  0.5429360000000  0.4778450000000 1.0
C      1  0.5398880000000  0.5414370000000  0.5770110000000 1.0
C      1  0.4811970000000  0.5267580000000  0.4696360000000 1.0
C      1  0.5170530000000  0.4290430000000  0.5217650000000 1.0
C      1  0.4670740000000  0.5426100000000  0.5234830000000 1.0
C      1  0.4648730000000  0.4233340000000  0.5170760000000 1.0
C      1  0.4734920000000  0.4461730000000  0.4177810000000 1.0
C      1  0.5515710000000  0.5200030000000  0.4411790000000 1.0
C      1  0.5787010000000  0.5270810000000  0.4333180000000 1.0
C      1  0.5724410000000  0.4723570000000  0.5006620000000 1.0
C      1  0.5063990000000  0.5678780000000  0.5571670000000 1.0
C      1  0.4686940000000  0.4533780000000  0.5600650000000 1.0
C      1  0.4512380000000  0.4627910000000  0.4577060000000 1.0
C      1  0.5321920000000  0.5560720000000  0.5517850000000 1.0
C      1  0.4341530000000  0.6016330000000  0.5513540000000 1.0
C      1  0.4564920000000  0.4655110000000  0.4294400000000 1.0
C      1  0.4771850000000  0.5273990000000  0.5497230000000 1.0
C      1  0.5142050000000  0.4501460000000  0.5410590000000 1.0
C      1  0.4965210000000  0.4475640000000  0.5631410000000 1.0
C      1  0.4891510000000  0.5317170000000  0.4161210000000 1.0
C      1  0.4496900000000  0.4842750000000  0.5928000000000 1.0
END
