TITL C-612600-6631-455 4.93594900861568 125000 -691.136659854858 0 0 114 (C1) n - 1
REM
REM in /home/nfs/bkarasulu/CARBON/AIRSS/Generating-Clusters/TERSOFF/Only-C1/FIRE-HFTN
REM
REM
REM
REM
REM
REM ./C.cell (11c1c37f851c82e70ff6c80c92926a4b)
REM AIRSS Version 0.9.1 bugfix July 2018 build 013d7b7c2542+ Fri, 06 Jul 2018 19:26:36 +0100
REM compiler GCC version 9.2.1 20190827 (Red Hat 9.2.1-1)
REM options -cpp -mtune=generic -march=x86-64 -g -O0 -fpre-include=/usr/include/finclude/math-vector-fortran.h
REM seed 1375487962 2118633932 43051099 -183660218 -994457269 -1983407099 -744368923 930166552 -1880605045 383057528 526947049 712781748 -259340574 1122797037 908325827 -270557082 -195698462 324207512 2112091139 1711675402 -369068771 20820155 -1625916013 -653959938 955900510 519466229 -1088687161 1256900563 -1566854550 -1042097926 270268515 611835728 2062969321
REM
CELL 1.54180   50.00000   50.00000   50.00000   90.00000   90.00000   90.00000
LATT -1
SFAC C  
C      1  0.3765500000000  0.4929040000000  0.5168460000000 1.0
C      1  0.5356870000000  0.5428310000000  0.4810850000000 1.0
C      1  0.5602540000000  0.4328770000000  0.5529940000000 1.0
C      1  0.4936690000000  0.4381340000000  0.4457370000000 1.0
C      1  0.4835630000000  0.5096720000000  0.5808920000000 1.0
C      1  0.5859280000000  0.5770630000000  0.5042840000000 1.0
C      1  0.3647580000000  0.5301010000000  0.4138970000000 1.0
C      1  0.5475280000000  0.4820510000000  0.4185290000000 1.0
C      1  0.4330630000000  0.5108970000000  0.5015540000000 1.0
C      1  0.3944800000000  0.4604500000000  0.5498450000000 1.0
C      1  0.4416800000000  0.5642490000000  0.5485880000000 1.0
C      1  0.5743420000000  0.4811840000000  0.4307070000000 1.0
C      1  0.4773580000000  0.4814500000000  0.5093850000000 1.0
C      1  0.5110200000000  0.4967150000000  0.3870480000000 1.0
C      1  0.5352190000000  0.4099850000000  0.5113420000000 1.0
C      1  0.5320890000000  0.4717830000000  0.6519190000000 1.0
C      1  0.4773780000000  0.4345840000000  0.4689450000000 1.0
C      1  0.4093910000000  0.4725120000000  0.4799220000000 1.0
C      1  0.4538030000000  0.5157190000000  0.4342550000000 1.0
C      1  0.4487350000000  0.4274030000000  0.5839450000000 1.0
C      1  0.4459260000000  0.4166240000000  0.5360270000000 1.0
C      1  0.5656640000000  0.5084650000000  0.4870720000000 1.0
C      1  0.4574610000000  0.5655370000000  0.3806180000000 1.0
C      1  0.4631450000000  0.4360860000000  0.6046620000000 1.0
C      1  0.4632640000000  0.5930180000000  0.3062400000000 1.0
C      1  0.4971210000000  0.4860550000000  0.5893070000000 1.0
C      1  0.5298910000000  0.5343910000000  0.5821150000000 1.0
C      1  0.4551160000000  0.5441740000000  0.4303560000000 1.0
C      1  0.5871510000000  0.4330490000000  0.5474660000000 1.0
C      1  0.5673820000000  0.4390520000000  0.4621680000000 1.0
C      1  0.5404290000000  0.5150740000000  0.4742600000000 1.0
C      1  0.5249440000000  0.4765900000000  0.6256230000000 1.0
C      1  0.5226450000000  0.4393300000000  0.4443330000000 1.0
C      1  0.5356210000000  0.4580100000000  0.4272350000000 1.0
C      1  0.5935450000000  0.5293850000000  0.4445070000000 1.0
C      1  0.5665520000000  0.5917450000000  0.4616460000000 1.0
C      1  0.5411010000000  0.4702520000000  0.5806120000000 1.0
C      1  0.4310800000000  0.4823980000000  0.4949000000000 1.0
C      1  0.4558330000000  0.5559490000000  0.4052540000000 1.0
C      1  0.4538320000000  0.4661290000000  0.4994310000000 1.0
C      1  0.5273350000000  0.5637760000000  0.4646210000000 1.0
C      1  0.5862470000000  0.4943440000000  0.4744690000000 1.0
C      1  0.4931890000000  0.5854790000000  0.5143700000000 1.0
C      1  0.6064120000000  0.4761290000000  0.5137880000000 1.0
C      1  0.4653180000000  0.5011350000000  0.5594360000000 1.0
C      1  0.3933250000000  0.4861800000000  0.5387800000000 1.0
C      1  0.4211780000000  0.5227600000000  0.5244020000000 1.0
C      1  0.5429370000000  0.4195230000000  0.5351580000000 1.0
C      1  0.5406970000000  0.5857740000000  0.4565850000000 1.0
C      1  0.4999200000000  0.5344080000000  0.5808140000000 1.0
C      1  0.5855770000000  0.5752340000000  0.4748450000000 1.0
C      1  0.4098280000000  0.4400910000000  0.5576440000000 1.0
C      1  0.6088280000000  0.5675390000000  0.5180510000000 1.0
C      1  0.5694420000000  0.5245730000000  0.5099340000000 1.0
C      1  0.5516600000000  0.4440960000000  0.5777980000000 1.0
C      1  0.5727130000000  0.4520830000000  0.4870420000000 1.0
C      1  0.5014400000000  0.4645740000000  0.5037260000000 1.0
C      1  0.6099310000000  0.5435800000000  0.5305730000000 1.0
C      1  0.4893110000000  0.4810170000000  0.3869540000000 1.0
C      1  0.4782500000000  0.5056590000000  0.4907910000000 1.0
C      1  0.4802280000000  0.4447920000000  0.4217360000000 1.0
C      1  0.4593670000000  0.5747280000000  0.3558370000000 1.0
C      1  0.5519300000000  0.5474050000000  0.5047860000000 1.0
C      1  0.5344120000000  0.4981790000000  0.4001120000000 1.0
C      1  0.4651810000000  0.6020130000000  0.2818460000000 1.0
C      1  0.5207570000000  0.4951710000000  0.4726920000000 1.0
C      1  0.4345460000000  0.4268100000000  0.5596920000000 1.0
C      1  0.5428460000000  0.4868350000000  0.6050770000000 1.0
C      1  0.4044780000000  0.4461450000000  0.4751030000000 1.0
C      1  0.5245780000000  0.4726450000000  0.4904400000000 1.0
C      1  0.4991950000000  0.5607820000000  0.5202590000000 1.0
C      1  0.5388750000000  0.4667960000000  0.6765800000000 1.0
C      1  0.4805400000000  0.4889490000000  0.5380920000000 1.0
C      1  0.6019700000000  0.4951390000000  0.5324440000000 1.0
C      1  0.5201140000000  0.5133980000000  0.5330890000000 1.0
C      1  0.5891080000000  0.5219670000000  0.5333780000000 1.0
C      1  0.4373450000000  0.4989540000000  0.5614220000000 1.0
C      1  0.5606660000000  0.5706530000000  0.5186870000000 1.0
C      1  0.3497710000000  0.5145370000000  0.4825610000000 1.0
C      1  0.4602160000000  0.4392610000000  0.4913340000000 1.0
C      1  0.4564390000000  0.5235810000000  0.4918070000000 1.0
C      1  0.4848450000000  0.5579130000000  0.5764170000000 1.0
C      1  0.5091580000000  0.4900870000000  0.5441460000000 1.0
C      1  0.5501580000000  0.5457260000000  0.5635120000000 1.0
C      1  0.4151170000000  0.5036960000000  0.5446550000000 1.0
C      1  0.4989730000000  0.4724160000000  0.6141220000000 1.0
C      1  0.5415120000000  0.5150450000000  0.6003090000000 1.0
C      1  0.5163270000000  0.4781850000000  0.5686900000000 1.0
C      1  0.3721590000000  0.5006060000000  0.4897080000000 1.0
C      1  0.5744580000000  0.4539310000000  0.4395550000000 1.0
C      1  0.3920350000000  0.4928790000000  0.4704810000000 1.0
C      1  0.4613150000000  0.5838720000000  0.3310420000000 1.0
C      1  0.5099110000000  0.5371360000000  0.5259190000000 1.0
C      1  0.5946920000000  0.5525600000000  0.4591340000000 1.0
C      1  0.4263630000000  0.5490910000000  0.5327430000000 1.0
C      1  0.4626200000000  0.5673870000000  0.5648920000000 1.0
C      1  0.5412420000000  0.4259240000000  0.4618030000000 1.0
C      1  0.4805670000000  0.4516510000000  0.6177250000000 1.0
C      1  0.4539250000000  0.4197800000000  0.5106840000000 1.0
C      1  0.5719040000000  0.5274810000000  0.5576850000000 1.0
C      1  0.5522400000000  0.5693860000000  0.5464840000000 1.0
C      1  0.4003870000000  0.5054380000000  0.4460850000000 1.0
C      1  0.4563900000000  0.5487500000000  0.4796230000000 1.0
C      1  0.3816280000000  0.5179640000000  0.4296220000000 1.0
C      1  0.4277780000000  0.5050560000000  0.4380640000000 1.0
C      1  0.4936050000000  0.5020570000000  0.4669170000000 1.0
C      1  0.4780600000000  0.5037300000000  0.4433350000000 1.0
C      1  0.5343330000000  0.4107240000000  0.4845190000000 1.0
C      1  0.5535070000000  0.4281610000000  0.6001470000000 1.0
C      1  0.4782820000000  0.4606760000000  0.4003640000000 1.0
C      1  0.4559080000000  0.5585160000000  0.4546050000000 1.0
C      1  0.5937940000000  0.4710850000000  0.4890720000000 1.0
C      1  0.5877910000000  0.5011640000000  0.4467560000000 1.0
C      1  0.5487190000000  0.4613560000000  0.4988780000000 1.0
END
