TITL C-612600-6631-370 26833.9990130167 125000 -919.201207147315 0 0 149 (C1) n - 1
REM
REM in /home/nfs/bkarasulu/CARBON/AIRSS/Generating-Clusters/TERSOFF/Only-C1/FIRE-HFTN
REM
REM
REM
REM
REM
REM ./C.cell (11c1c37f851c82e70ff6c80c92926a4b)
REM AIRSS Version 0.9.1 bugfix July 2018 build 013d7b7c2542+ Fri, 06 Jul 2018 19:26:36 +0100
REM compiler GCC version 9.2.1 20190827 (Red Hat 9.2.1-1)
REM options -cpp -mtune=generic -march=x86-64 -g -O0 -fpre-include=/usr/include/finclude/math-vector-fortran.h
REM seed 1748220180 1847693840 -1676169144 765157359 -229016694 -1372611191 1693887600 420212366 872294666 1678357188 1589389549 -1669735439 1679666525 589240664 1141167468 2050490882 716837946 -1094426440 -1144681985 666384128 -1443838198 1508554303 1396567829 1433015216 -1777428540 -581768765 372775434 -1439625019 -1646382386 -1401929876 1110855860 -1104243598 1096769823
REM
CELL 1.54180   50.00000   50.00000   50.00000   90.00000   90.00000   90.00000
LATT -1
SFAC C  
C      1  0.4831970000000  0.4858960000000  0.3957170000000 1.0
C      1  0.6327960000000  0.5020310000000  0.4623900000000 1.0
C      1  0.5135390000000  0.4148330000000  0.4071150000000 1.0
C      1  0.5539660000000  0.4984000000000  0.4077790000000 1.0
C      1  0.4760270000000  0.5705690000000  0.5647910000000 1.0
C      1  0.4087270000000  0.5390870000000  0.5729570000000 1.0
C      1  0.5555420000000  0.4404120000000  0.3991490000000 1.0
C      1  0.4105900000000  0.5510520000000  0.4579340000000 1.0
C      1  0.5178240000000  0.3965130000000  0.4706010000000 1.0
C      1  0.4848210000000  0.5431410000000  0.5243950000000 1.0
C      1  0.5701250000000  0.4309920000000  0.5339880000000 1.0
C      1  0.4782910000000  0.5378060000000  0.3873080000000 1.0
C      1  0.5060200000000  0.5439090000000  0.3902680000000 1.0
C      1  0.4696020000000  0.3997330000000  0.4552440000000 1.0
C      1  0.4110450000000  0.4517110000000  0.4465950000000 1.0
C      1  0.4859770000000  0.6067350000000  0.5027960000000 1.0
C      1  0.4938180000000  0.4097660000000  0.5817680000000 1.0
C      1  0.5406900000000  0.4191370000000  0.4129760000000 1.0
C      1  0.4809720000000  0.4041090000000  0.5008100000000 1.0
C      1  0.4733330000000  0.4046760000000  0.5641190000000 1.0
C      1  0.4373690000000  0.5927730000000  0.4774380000000 1.0
C      1  0.5950820000000  0.4723470000000  0.5522660000000 1.0
C      1  0.4919190000000  0.6050890000000  0.4536820000000 1.0
C      1  0.5284300000000  0.5083550000000  0.5072670000000 1.0
C      1  0.5966300000000  0.5243170000000  0.4435700000000 1.0
C      1  0.4350840000000  0.5187060000000  0.5109850000000 1.0
C      1  0.5028230000000  0.6094840000000  0.4793650000000 1.0
C      1  0.5926200000000  0.4949170000000  0.4403010000000 1.0
C      1  0.4548780000000  0.4569000000000  0.5226730000000 1.0
C      1  0.4556680000000  0.4818060000000  0.5865840000000 1.0
C      1  0.5687220000000  0.4403980000000  0.4426340000000 1.0
C      1  0.5753030000000  0.4514950000000  0.5537920000000 1.0
C      1  0.5727310000000  0.4546290000000  0.4184960000000 1.0
C      1  0.4056300000000  0.5384620000000  0.5441960000000 1.0
C      1  0.5427880000000  0.4096510000000  0.4671020000000 1.0
C      1  0.4483430000000  0.4161570000000  0.4519840000000 1.0
C      1  0.5554280000000  0.5561930000000  0.4562990000000 1.0
C      1  0.5575660000000  0.4291010000000  0.4852690000000 1.0
C      1  0.4895650000000  0.3957480000000  0.4750140000000 1.0
C      1  0.5420130000000  0.5795390000000  0.5539200000000 1.0
C      1  0.4989040000000  0.4620670000000  0.5727330000000 1.0
C      1  0.5709050000000  0.5022480000000  0.5811330000000 1.0
C      1  0.4649850000000  0.5783340000000  0.4161490000000 1.0
C      1  0.5174230000000  0.4204090000000  0.5915890000000 1.0
C      1  0.4133720000000  0.5153030000000  0.5292350000000 1.0
C      1  0.5986620000000  0.5260490000000  0.5547950000000 1.0
C      1  0.5430640000000  0.6050100000000  0.5088170000000 1.0
C      1  0.4164010000000  0.5717560000000  0.4775100000000 1.0
C      1  0.4168460000000  0.4584230000000  0.5663480000000 1.0
C      1  0.4718920000000  0.4685740000000  0.5669280000000 1.0
C      1  0.4652570000000  0.4696880000000  0.4117550000000 1.0
C      1  0.5341920000000  0.5766350000000  0.5819450000000 1.0
C      1  0.4569460000000  0.4026060000000  0.5420970000000 1.0
C      1  0.5185000000000  0.4821000000000  0.4658230000000 1.0
C      1  0.4755420000000  0.5219010000000  0.5406780000000 1.0
C      1  0.5094640000000  0.4828980000000  0.4082610000000 1.0
C      1  0.5151620000000  0.4470470000000  0.5030410000000 1.0
C      1  0.5778600000000  0.5447310000000  0.5646140000000 1.0
C      1  0.5773590000000  0.5440820000000  0.4471190000000 1.0
C      1  0.5305470000000  0.6111700000000  0.4854320000000 1.0
C      1  0.5096880000000  0.4991490000000  0.6115310000000 1.0
C      1  0.4973710000000  0.5306450000000  0.4371780000000 1.0
C      1  0.4574250000000  0.5995940000000  0.4981800000000 1.0
C      1  0.4535870000000  0.4662850000000  0.4622460000000 1.0
C      1  0.5475870000000  0.4768800000000  0.4679460000000 1.0
C      1  0.4667970000000  0.4746230000000  0.5399550000000 1.0
C      1  0.5080410000000  0.5018560000000  0.4875630000000 1.0
C      1  0.4737540000000  0.5099710000000  0.3840380000000 1.0
C      1  0.5514810000000  0.4162290000000  0.4397060000000 1.0
C      1  0.4521490000000  0.5794750000000  0.5175330000000 1.0
C      1  0.5423610000000  0.4584200000000  0.3820660000000 1.0
C      1  0.3940240000000  0.5090760000000  0.4759890000000 1.0
C      1  0.5482750000000  0.4866550000000  0.5736880000000 1.0
C      1  0.5429360000000  0.5234920000000  0.4146940000000 1.0
C      1  0.5145330000000  0.5266060000000  0.5604330000000 1.0
C      1  0.4041970000000  0.5031610000000  0.4325030000000 1.0
C      1  0.5048490000000  0.5477590000000  0.4583760000000 1.0
C      1  0.4523310000000  0.5058410000000  0.4920620000000 1.0
C      1  0.5354990000000  0.5713220000000  0.3546110000000 1.0
C      1  0.4955010000000  0.5490590000000  0.5710950000000 1.0
C      1  0.4007520000000  0.5183240000000  0.5898870000000 1.0
C      1  0.4627560000000  0.4828500000000  0.4377060000000 1.0
C      1  0.5290200000000  0.4902710000000  0.5291520000000 1.0
C      1  0.4287770000000  0.5573360000000  0.5819260000000 1.0
C      1  0.4376980000000  0.4863270000000  0.4779920000000 1.0
C      1  0.4112660000000  0.4623890000000  0.5385250000000 1.0
C      1  0.5483340000000  0.4140080000000  0.5405230000000 1.0
C      1  0.4012820000000  0.5242850000000  0.4526660000000 1.0
C      1  0.5752960000000  0.4834640000000  0.4205560000000 1.0
C      1  0.4049910000000  0.4754990000000  0.4338700000000 1.0
C      1  0.5237700000000  0.4224660000000  0.5479470000000 1.0
C      1  0.5539940000000  0.4575940000000  0.5736680000000 1.0
C      1  0.5593160000000  0.5471500000000  0.5198450000000 1.0
C      1  0.6106940000000  0.4604190000000  0.4773220000000 1.0
C      1  0.4781310000000  0.4972790000000  0.5277110000000 1.0
C      1  0.6010630000000  0.4445170000000  0.4968450000000 1.0
C      1  0.5663860000000  0.5302150000000  0.5878340000000 1.0
C      1  0.4097070000000  0.4942660000000  0.5975400000000 1.0
C      1  0.4540980000000  0.4051030000000  0.5130780000000 1.0
C      1  0.5340500000000  0.4820860000000  0.3947210000000 1.0
C      1  0.4931910000000  0.4287680000000  0.5086670000000 1.0
C      1  0.5087110000000  0.4868150000000  0.4376410000000 1.0
C      1  0.4278190000000  0.4484980000000  0.5196130000000 1.0
C      1  0.4309630000000  0.4283350000000  0.4984390000000 1.0
C      1  0.5345050000000  0.5355010000000  0.5126230000000 1.0
C      1  0.5294190000000  0.5963800000000  0.5323460000000 1.0
C      1  0.5207150000000  0.5581520000000  0.3715540000000 1.0
C      1  0.4714310000000  0.4472280000000  0.5031300000000 1.0
C      1  0.5003550000000  0.6012020000000  0.5294410000000 1.0
C      1  0.4032330000000  0.4890990000000  0.5326170000000 1.0
C      1  0.5298210000000  0.5014060000000  0.5558600000000 1.0
C      1  0.4101190000000  0.5635330000000  0.5305600000000 1.0
C      1  0.4803290000000  0.5011310000000  0.4987910000000 1.0
C      1  0.5342140000000  0.5117150000000  0.6193530000000 1.0
C      1  0.4656780000000  0.5089910000000  0.5907280000000 1.0
C      1  0.5614000000000  0.5591190000000  0.5459250000000 1.0
C      1  0.5772180000000  0.4320300000000  0.5063400000000 1.0
C      1  0.4688840000000  0.4419780000000  0.4081390000000 1.0
C      1  0.4862770000000  0.5940230000000  0.5527420000000 1.0
C      1  0.6235860000000  0.5265600000000  0.4537990000000 1.0
C      1  0.4619170000000  0.5577450000000  0.3989520000000 1.0
C      1  0.4468660000000  0.5699960000000  0.5643890000000 1.0
C      1  0.5272910000000  0.5561800000000  0.6019650000000 1.0
C      1  0.5394410000000  0.4371720000000  0.5888610000000 1.0
C      1  0.4097060000000  0.4877470000000  0.4820590000000 1.0
C      1  0.5080680000000  0.4745520000000  0.5971000000000 1.0
C      1  0.5813410000000  0.5460890000000  0.5037220000000 1.0
C      1  0.4344350000000  0.4401790000000  0.4636110000000 1.0
C      1  0.4772880000000  0.4569820000000  0.4770230000000 1.0
C      1  0.4345280000000  0.5765370000000  0.5389350000000 1.0
C      1  0.5461220000000  0.5350330000000  0.6070440000000 1.0
C      1  0.5611150000000  0.4524700000000  0.4672520000000 1.0
C      1  0.4776100000000  0.5943080000000  0.4336750000000 1.0
C      1  0.4623400000000  0.5220070000000  0.5654460000000 1.0
C      1  0.5111030000000  0.5497180000000  0.5180340000000 1.0
C      1  0.5211010000000  0.4632360000000  0.5262260000000 1.0
C      1  0.4882200000000  0.4234790000000  0.4057280000000 1.0
C      1  0.4276040000000  0.4754250000000  0.5866650000000 1.0
C      1  0.4844150000000  0.5042780000000  0.4405890000000 1.0
C      1  0.5136030000000  0.4492190000000  0.5506770000000 1.0
C      1  0.5295280000000  0.5577100000000  0.4627240000000 1.0
C      1  0.4034610000000  0.5682450000000  0.5031980000000 1.0
C      1  0.4653670000000  0.5562650000000  0.5104230000000 1.0
C      1  0.4886920000000  0.5184810000000  0.6062720000000 1.0
C      1  0.6125340000000  0.4814200000000  0.4587380000000 1.0
C      1  0.5060410000000  0.4575490000000  0.4768550000000 1.0
C      1  0.5164100000000  0.5338690000000  0.4146370000000 1.0
C      1  0.5936830000000  0.4986640000000  0.5627840000000 1.0
C      1  0.4997560000000  0.5454320000000  0.5998650000000 1.0
END
