TITL C-612605-9286-1247 0.0856058578532163 125000 -718.239070990759 0 0 118 (C1) n - 1
REM
REM in /home/nfs/bkarasulu/CARBON/AIRSS/Generating-Clusters/TERSOFF/Only-C1/FIRE-HFTN
REM
REM
REM
REM
REM
REM ./C.cell (11c1c37f851c82e70ff6c80c92926a4b)
REM AIRSS Version 0.9.1 bugfix July 2018 build 013d7b7c2542+ Fri, 06 Jul 2018 19:26:36 +0100
REM compiler GCC version 9.2.1 20190827 (Red Hat 9.2.1-1)
REM options -cpp -mtune=generic -march=x86-64 -g -O0 -fpre-include=/usr/include/finclude/math-vector-fortran.h
REM seed 2064372368 -1622576523 -1606001163 -732418822 -524870935 181984134 1045079345 -843130698 776120783 1899908993 -404391085 -871055411 -2018706836 -432064469 -373739689 327011646 1551765564 -1273200439 1083441731 -164330559 -2086826295 642589552 705763835 -1375818071 -1281641196 1539245211 -806292332 -1278256250 13786102 1713536401 1686546655 1758728063 -503671911
REM
CELL 1.54180   50.00000   50.00000   50.00000   90.00000   90.00000   90.00000
LATT -1
SFAC C  
C      1  0.4457080000000  0.4338200000000  0.5886800000000 1.0
C      1  0.5063610000000  0.5682050000000  0.4774730000000 1.0
C      1  0.4619040000000  0.3941830000000  0.5634500000000 1.0
C      1  0.5105320000000  0.6302470000000  0.4620230000000 1.0
C      1  0.6274160000000  0.4955510000000  0.4447700000000 1.0
C      1  0.4212160000000  0.5218220000000  0.4693190000000 1.0
C      1  0.5680130000000  0.5105360000000  0.4840950000000 1.0
C      1  0.4423880000000  0.4189960000000  0.6115840000000 1.0
C      1  0.4712100000000  0.4494350000000  0.4557400000000 1.0
C      1  0.5665830000000  0.5280090000000  0.5062880000000 1.0
C      1  0.5769420000000  0.6006120000000  0.4647850000000 1.0
C      1  0.5369840000000  0.4598800000000  0.5354220000000 1.0
C      1  0.5371540000000  0.6232260000000  0.4690470000000 1.0
C      1  0.5453160000000  0.6148160000000  0.4966330000000 1.0
C      1  0.4895040000000  0.6346020000000  0.4816600000000 1.0
C      1  0.4213670000000  0.5647150000000  0.5047570000000 1.0
C      1  0.4437050000000  0.4315710000000  0.5389590000000 1.0
C      1  0.4716360000000  0.5510910000000  0.5297050000000 1.0
C      1  0.4912500000000  0.4898430000000  0.5624160000000 1.0
C      1  0.5609580000000  0.4446010000000  0.5300480000000 1.0
C      1  0.5822080000000  0.4647180000000  0.5306030000000 1.0
C      1  0.5439390000000  0.4982280000000  0.4747900000000 1.0
C      1  0.6293330000000  0.4655650000000  0.6170620000000 1.0
C      1  0.5534360000000  0.6073340000000  0.4488780000000 1.0
C      1  0.4007680000000  0.4742560000000  0.4901440000000 1.0
C      1  0.5178110000000  0.5010270000000  0.4624900000000 1.0
C      1  0.4158210000000  0.4909490000000  0.5078990000000 1.0
C      1  0.4486460000000  0.6026440000000  0.4915430000000 1.0
C      1  0.4893780000000  0.5726910000000  0.5350180000000 1.0
C      1  0.6139900000000  0.4712300000000  0.5962050000000 1.0
C      1  0.4847080000000  0.4744820000000  0.4170280000000 1.0
C      1  0.4685220000000  0.4111030000000  0.4973550000000 1.0
C      1  0.5160480000000  0.5484380000000  0.5955310000000 1.0
C      1  0.4947290000000  0.5694390000000  0.4195890000000 1.0
C      1  0.4867690000000  0.4368080000000  0.5015250000000 1.0
C      1  0.4704670000000  0.4990470000000  0.4763420000000 1.0
C      1  0.4890000000000  0.5543160000000  0.5935640000000 1.0
C      1  0.4729470000000  0.3752030000000  0.5481940000000 1.0
C      1  0.4331600000000  0.5138940000000  0.4150810000000 1.0
C      1  0.4466550000000  0.5423890000000  0.5416860000000 1.0
C      1  0.4828850000000  0.3712960000000  0.5235810000000 1.0
C      1  0.4941740000000  0.5461020000000  0.4880030000000 1.0
C      1  0.4437770000000  0.4619900000000  0.5907200000000 1.0
C      1  0.4506030000000  0.4199510000000  0.5639850000000 1.0
C      1  0.4798070000000  0.5467750000000  0.4281980000000 1.0
C      1  0.4917590000000  0.4987080000000  0.5357930000000 1.0
C      1  0.4293120000000  0.5164210000000  0.4992910000000 1.0
C      1  0.4390610000000  0.5190850000000  0.4441600000000 1.0
C      1  0.4200880000000  0.4816360000000  0.5342090000000 1.0
C      1  0.4562440000000  0.4949170000000  0.4520420000000 1.0
C      1  0.5164180000000  0.5143670000000  0.4371570000000 1.0
C      1  0.5530600000000  0.5399030000000  0.4174820000000 1.0
C      1  0.4948700000000  0.5108380000000  0.5804890000000 1.0
C      1  0.5931620000000  0.4748010000000  0.5064040000000 1.0
C      1  0.5318840000000  0.4783190000000  0.5148210000000 1.0
C      1  0.4981280000000  0.4626860000000  0.5650570000000 1.0
C      1  0.5168610000000  0.4370720000000  0.4341100000000 1.0
C      1  0.5412900000000  0.4510860000000  0.4723800000000 1.0
C      1  0.5986240000000  0.4768750000000  0.5753840000000 1.0
C      1  0.4802300000000  0.5012820000000  0.4068400000000 1.0
C      1  0.4925420000000  0.5215770000000  0.4233210000000 1.0
C      1  0.5304320000000  0.4290020000000  0.4580870000000 1.0
C      1  0.6104800000000  0.4941980000000  0.4645300000000 1.0
C      1  0.5819840000000  0.4827040000000  0.5536730000000 1.0
C      1  0.4148640000000  0.4981330000000  0.5560950000000 1.0
C      1  0.4394980000000  0.4980400000000  0.6225780000000 1.0
C      1  0.5334670000000  0.5663040000000  0.4749650000000 1.0
C      1  0.4760380000000  0.5361810000000  0.5059100000000 1.0
C      1  0.4617390000000  0.4239010000000  0.4502100000000 1.0
C      1  0.5652250000000  0.5064220000000  0.5546130000000 1.0
C      1  0.5410450000000  0.4734020000000  0.4887410000000 1.0
C      1  0.5912630000000  0.4930910000000  0.4846270000000 1.0
C      1  0.5353040000000  0.4049840000000  0.4740490000000 1.0
C      1  0.3795180000000  0.4840900000000  0.4760140000000 1.0
C      1  0.5219420000000  0.5217600000000  0.5857090000000 1.0
C      1  0.4957110000000  0.4852860000000  0.4757720000000 1.0
C      1  0.5604890000000  0.4086320000000  0.4904880000000 1.0
C      1  0.5722690000000  0.6047350000000  0.4918730000000 1.0
C      1  0.5093810000000  0.4586580000000  0.4160660000000 1.0
C      1  0.4659060000000  0.4710960000000  0.4386000000000 1.0
C      1  0.5399130000000  0.5153180000000  0.4206350000000 1.0
C      1  0.5129510000000  0.4981940000000  0.5196100000000 1.0
C      1  0.5091910000000  0.5903350000000  0.5295230000000 1.0
C      1  0.5303620000000  0.4680650000000  0.3986670000000 1.0
C      1  0.4876010000000  0.4562620000000  0.4792200000000 1.0
C      1  0.5541210000000  0.4198520000000  0.5167380000000 1.0
C      1  0.5278440000000  0.6053840000000  0.5169010000000 1.0
C      1  0.5438730000000  0.4918820000000  0.4056360000000 1.0
C      1  0.4352010000000  0.5788450000000  0.4844560000000 1.0
C      1  0.5047420000000  0.4319020000000  0.5244550000000 1.0
C      1  0.6444240000000  0.4599930000000  0.6375770000000 1.0
C      1  0.5119380000000  0.5906020000000  0.4276660000000 1.0
C      1  0.5534730000000  0.5666030000000  0.4195760000000 1.0
C      1  0.4433700000000  0.5664560000000  0.4600430000000 1.0
C      1  0.5160990000000  0.3960220000000  0.4952200000000 1.0
C      1  0.5127120000000  0.4487110000000  0.5457290000000 1.0
C      1  0.4749130000000  0.6099960000000  0.4862610000000 1.0
C      1  0.5005380000000  0.6062770000000  0.4478830000000 1.0
C      1  0.4390030000000  0.4893070000000  0.5966370000000 1.0
C      1  0.4889730000000  0.3884930000000  0.5020610000000 1.0
C      1  0.5668020000000  0.5245100000000  0.5329020000000 1.0
C      1  0.5409150000000  0.5900060000000  0.4291250000000 1.0
C      1  0.5367440000000  0.4543250000000  0.3759030000000 1.0
C      1  0.4329100000000  0.5075460000000  0.5753450000000 1.0
C      1  0.4741890000000  0.5322300000000  0.5822330000000 1.0
C      1  0.4495590000000  0.5296670000000  0.5678040000000 1.0
C      1  0.4905430000000  0.5906030000000  0.4705380000000 1.0
C      1  0.5251250000000  0.4125510000000  0.5183160000000 1.0
C      1  0.4071930000000  0.4468310000000  0.4889830000000 1.0
C      1  0.4598340000000  0.5147510000000  0.4967890000000 1.0
C      1  0.4337120000000  0.4577550000000  0.5387650000000 1.0
C      1  0.4548070000000  0.5462050000000  0.4434660000000 1.0
C      1  0.4435970000000  0.4186970000000  0.5132870000000 1.0
C      1  0.4208020000000  0.4254250000000  0.4975110000000 1.0
C      1  0.4600360000000  0.4052960000000  0.4692740000000 1.0
C      1  0.4535960000000  0.5070850000000  0.3979940000000 1.0
C      1  0.5458180000000  0.5117410000000  0.5747230000000 1.0
C      1  0.4267570000000  0.5404480000000  0.5191460000000 1.0
END
