TITL C-612607-4507-434 -13596.7019286777 125000 -1199.68054975483 0 0 196 (C1) n - 1
REM
REM in /home/nfs/bkarasulu/CARBON/AIRSS/Generating-Clusters/TERSOFF/Only-C1/FIRE-HFTN
REM
REM
REM
REM
REM
REM ./C.cell (11c1c37f851c82e70ff6c80c92926a4b)
REM AIRSS Version 0.9.1 bugfix July 2018 build 013d7b7c2542+ Fri, 06 Jul 2018 19:26:36 +0100
REM compiler GCC version 9.2.1 20190827 (Red Hat 9.2.1-1)
REM options -cpp -mtune=generic -march=x86-64 -g -O0 -fpre-include=/usr/include/finclude/math-vector-fortran.h
REM seed 805786723 -577842621 -2012924726 -742022975 -1587745268 1205916098 1450972494 -1434761648 -584031293 -1984699391 -45929002 1333900003 77757908 1872904557 -800557101 -147992707 -985534976 -1903526523 -1298543469 -670113579 -217640078 -1185614423 1577801716 -668183303 1009619162 1094104632 -1357198365 1057362763 -2035660463 -1942070908 1647008092 510271633 -638235412
REM
CELL 1.54180   50.00000   50.00000   50.00000   90.00000   90.00000   90.00000
LATT -1
SFAC C  
C      1  0.4540720000000  0.4824560000000  0.6106780000000 1.0
C      1  0.5559510000000  0.4003760000000  0.4748830000000 1.0
C      1  0.6241220000000  0.5714760000000  0.5726060000000 1.0
C      1  0.4246720000000  0.5567790000000  0.4123330000000 1.0
C      1  0.6150310000000  0.4942100000000  0.5542960000000 1.0
C      1  0.5792790000000  0.5505530000000  0.4432290000000 1.0
C      1  0.6185830000000  0.4663150000000  0.5031760000000 1.0
C      1  0.5410720000000  0.4613330000000  0.4276690000000 1.0
C      1  0.5694690000000  0.4012770000000  0.5357680000000 1.0
C      1  0.6040910000000  0.4467230000000  0.5172530000000 1.0
C      1  0.4060040000000  0.4409910000000  0.4662250000000 1.0
C      1  0.3833940000000  0.4630030000000  0.5467900000000 1.0
C      1  0.4873070000000  0.4457510000000  0.4717070000000 1.0
C      1  0.5434400000000  0.4794400000000  0.5954540000000 1.0
C      1  0.5124940000000  0.3992330000000  0.4582240000000 1.0
C      1  0.3725370000000  0.4963670000000  0.4724160000000 1.0
C      1  0.4062350000000  0.4653450000000  0.4506660000000 1.0
C      1  0.5403610000000  0.5077040000000  0.4437370000000 1.0
C      1  0.4078040000000  0.4708960000000  0.5343180000000 1.0
C      1  0.4903600000000  0.5244330000000  0.3948890000000 1.0
C      1  0.4771840000000  0.5011830000000  0.4059600000000 1.0
C      1  0.5891480000000  0.5382400000000  0.5757880000000 1.0
C      1  0.5379450000000  0.4160790000000  0.4250750000000 1.0
C      1  0.5571230000000  0.4920100000000  0.6181640000000 1.0
C      1  0.5137930000000  0.5818100000000  0.4722640000000 1.0
C      1  0.5408450000000  0.5995640000000  0.4383250000000 1.0
C      1  0.4620080000000  0.4252380000000  0.4286080000000 1.0
C      1  0.3954910000000  0.4916940000000  0.4573080000000 1.0
C      1  0.5673360000000  0.4476140000000  0.4681110000000 1.0
C      1  0.5787640000000  0.4438350000000  0.4034690000000 1.0
C      1  0.5017490000000  0.4216010000000  0.4733080000000 1.0
C      1  0.4673940000000  0.5060410000000  0.4347840000000 1.0
C      1  0.4849810000000  0.5013140000000  0.4846510000000 1.0
C      1  0.5540660000000  0.4512710000000  0.5876090000000 1.0
C      1  0.4530700000000  0.5110530000000  0.6063600000000 1.0
C      1  0.4652370000000  0.3911680000000  0.4858100000000 1.0
C      1  0.5778110000000  0.4930570000000  0.4154200000000 1.0
C      1  0.4590340000000  0.4025990000000  0.5126280000000 1.0
C      1  0.4422080000000  0.5812100000000  0.6129230000000 1.0
C      1  0.4156990000000  0.5682780000000  0.4355850000000 1.0
C      1  0.4706460000000  0.5479600000000  0.5146360000000 1.0
C      1  0.4735520000000  0.5476010000000  0.4851440000000 1.0
C      1  0.5435200000000  0.5003390000000  0.5675010000000 1.0
C      1  0.5258980000000  0.4828640000000  0.3785600000000 1.0
C      1  0.4749800000000  0.4491800000000  0.5238180000000 1.0
C      1  0.5845570000000  0.5024760000000  0.5008680000000 1.0
C      1  0.5082960000000  0.4620160000000  0.3794010000000 1.0
C      1  0.5639730000000  0.5496310000000  0.5642300000000 1.0
C      1  0.5401390000000  0.3953800000000  0.5228180000000 1.0
C      1  0.6018870000000  0.4795050000000  0.4597900000000 1.0
C      1  0.4403560000000  0.5899240000000  0.5651260000000 1.0
C      1  0.4337680000000  0.5083110000000  0.4008740000000 1.0
C      1  0.5250230000000  0.6074330000000  0.4817200000000 1.0
C      1  0.4147800000000  0.5617220000000  0.4637550000000 1.0
C      1  0.4235450000000  0.5344540000000  0.4663090000000 1.0
C      1  0.5415330000000  0.6181100000000  0.4605640000000 1.0
C      1  0.4436030000000  0.5435810000000  0.5672890000000 1.0
C      1  0.4091540000000  0.4231000000000  0.5115660000000 1.0
C      1  0.5764150000000  0.5387710000000  0.3946880000000 1.0
C      1  0.5863560000000  0.4245500000000  0.5574480000000 1.0
C      1  0.6063520000000  0.5575980000000  0.5881860000000 1.0
C      1  0.4771780000000  0.6190020000000  0.5327690000000 1.0
C      1  0.4675680000000  0.5418790000000  0.3880760000000 1.0
C      1  0.4518850000000  0.5147370000000  0.5763680000000 1.0
C      1  0.4937330000000  0.4901570000000  0.5640970000000 1.0
C      1  0.5413860000000  0.5662790000000  0.5742640000000 1.0
C      1  0.4836420000000  0.4485520000000  0.3876000000000 1.0
C      1  0.5047940000000  0.3736300000000  0.4665030000000 1.0
C      1  0.5413630000000  0.4574030000000  0.5450840000000 1.0
C      1  0.4442840000000  0.4472800000000  0.4263870000000 1.0
C      1  0.5448960000000  0.5783800000000  0.5989470000000 1.0
C      1  0.5715190000000  0.5209420000000  0.4811230000000 1.0
C      1  0.4114970000000  0.5775400000000  0.4885250000000 1.0
C      1  0.4359030000000  0.5000940000000  0.4311570000000 1.0
C      1  0.5549160000000  0.5570390000000  0.5144500000000 1.0
C      1  0.5179210000000  0.5244130000000  0.4030540000000 1.0
C      1  0.5146650000000  0.5718830000000  0.5605580000000 1.0
C      1  0.5370840000000  0.5076840000000  0.3883820000000 1.0
C      1  0.5835620000000  0.4964700000000  0.6191770000000 1.0
C      1  0.5131210000000  0.4233520000000  0.4991320000000 1.0
C      1  0.4495120000000  0.4183130000000  0.5828580000000 1.0
C      1  0.6040990000000  0.4048660000000  0.4671100000000 1.0
C      1  0.4454150000000  0.4521360000000  0.4920700000000 1.0
C      1  0.5253550000000  0.6046500000000  0.4155630000000 1.0
C      1  0.6153610000000  0.4649890000000  0.5601640000000 1.0
C      1  0.5203910000000  0.5170100000000  0.5195410000000 1.0
C      1  0.4145020000000  0.5880800000000  0.5142470000000 1.0
C      1  0.6054590000000  0.4864330000000  0.4881030000000 1.0
C      1  0.4903370000000  0.3749370000000  0.4904120000000 1.0
C      1  0.4934270000000  0.4724490000000  0.5862390000000 1.0
C      1  0.4722550000000  0.4518370000000  0.4949350000000 1.0
C      1  0.5947030000000  0.5005640000000  0.4408200000000 1.0
C      1  0.4694540000000  0.5355960000000  0.6126830000000 1.0
C      1  0.4603380000000  0.5683740000000  0.5678310000000 1.0
C      1  0.5983110000000  0.4909250000000  0.5962440000000 1.0
C      1  0.5650080000000  0.4676650000000  0.5330050000000 1.0
C      1  0.3473260000000  0.4871800000000  0.5686100000000 1.0
C      1  0.5555010000000  0.4378620000000  0.4178280000000 1.0
C      1  0.4295240000000  0.4695860000000  0.4339370000000 1.0
C      1  0.4601660000000  0.4640740000000  0.3815870000000 1.0
C      1  0.4988230000000  0.4815820000000  0.5371990000000 1.0
C      1  0.5104270000000  0.4283460000000  0.4217820000000 1.0
C      1  0.3921370000000  0.6327540000000  0.5997660000000 1.0
C      1  0.5466320000000  0.5130120000000  0.5372430000000 1.0
C      1  0.4407070000000  0.4974960000000  0.5547550000000 1.0
C      1  0.3807590000000  0.4349530000000  0.5497990000000 1.0
C      1  0.4883550000000  0.6424030000000  0.4594470000000 1.0
C      1  0.4769800000000  0.5995260000000  0.4308590000000 1.0
C      1  0.5680520000000  0.4949580000000  0.5243660000000 1.0
C      1  0.5417850000000  0.4151600000000  0.4984530000000 1.0
C      1  0.4632020000000  0.5915720000000  0.4810940000000 1.0
C      1  0.5548710000000  0.4429830000000  0.4946890000000 1.0
C      1  0.3543490000000  0.4914800000000  0.5208970000000 1.0
C      1  0.5518710000000  0.4864340000000  0.4294560000000 1.0
C      1  0.5867250000000  0.3926550000000  0.5125290000000 1.0
C      1  0.3611900000000  0.4807050000000  0.5460030000000 1.0
C      1  0.4464230000000  0.5593640000000  0.5231130000000 1.0
C      1  0.4853820000000  0.5746390000000  0.4781840000000 1.0
C      1  0.6007560000000  0.5107710000000  0.5743880000000 1.0
C      1  0.4316210000000  0.5973370000000  0.5916790000000 1.0
C      1  0.5650460000000  0.5500760000000  0.4886450000000 1.0
C      1  0.5142790000000  0.4551240000000  0.4338990000000 1.0
C      1  0.4892390000000  0.5635230000000  0.5735210000000 1.0
C      1  0.4551820000000  0.4904970000000  0.3901310000000 1.0
C      1  0.6049240000000  0.5617280000000  0.6152120000000 1.0
C      1  0.5367370000000  0.4406870000000  0.5677150000000 1.0
C      1  0.4534710000000  0.6162000000000  0.4726100000000 1.0
C      1  0.4712470000000  0.5702280000000  0.4327930000000 1.0
C      1  0.4083540000000  0.4711540000000  0.5056570000000 1.0
C      1  0.4396120000000  0.5372920000000  0.3971720000000 1.0
C      1  0.5022580000000  0.6086290000000  0.5240160000000 1.0
C      1  0.4934290000000  0.5019780000000  0.5168390000000 1.0
C      1  0.6088370000000  0.4411260000000  0.5446300000000 1.0
C      1  0.4341150000000  0.4784720000000  0.4938540000000 1.0
C      1  0.5265990000000  0.5639110000000  0.5133380000000 1.0
C      1  0.4831190000000  0.5155020000000  0.5717400000000 1.0
C      1  0.6087440000000  0.4288640000000  0.4554140000000 1.0
C      1  0.4551600000000  0.4526590000000  0.5469780000000 1.0
C      1  0.4569450000000  0.6315630000000  0.5196550000000 1.0
C      1  0.5021890000000  0.4365930000000  0.5249190000000 1.0
C      1  0.5339130000000  0.4873780000000  0.4857010000000 1.0
C      1  0.5327990000000  0.4641960000000  0.5003200000000 1.0
C      1  0.5593970000000  0.5407090000000  0.5376880000000 1.0
C      1  0.4436360000000  0.5152070000000  0.5329670000000 1.0
C      1  0.5891340000000  0.4689480000000  0.4019240000000 1.0
C      1  0.3584930000000  0.4966090000000  0.4950700000000 1.0
C      1  0.4237730000000  0.4182120000000  0.4605590000000 1.0
C      1  0.4776680000000  0.5420310000000  0.4375230000000 1.0
C      1  0.5657430000000  0.5125990000000  0.3943690000000 1.0
C      1  0.4845310000000  0.4902290000000  0.4554320000000 1.0
C      1  0.4985390000000  0.6053890000000  0.4130550000000 1.0
C      1  0.4894020000000  0.5386330000000  0.5892600000000 1.0
C      1  0.5400970000000  0.4019470000000  0.4502220000000 1.0
C      1  0.5931110000000  0.4523490000000  0.4571700000000 1.0
C      1  0.4333440000000  0.4719440000000  0.5468280000000 1.0
C      1  0.5364280000000  0.5742120000000  0.4533930000000 1.0
C      1  0.5185040000000  0.4611400000000  0.5274750000000 1.0
C      1  0.4244420000000  0.5932890000000  0.5400100000000 1.0
C      1  0.5143130000000  0.5823960000000  0.5325850000000 1.0
C      1  0.5110210000000  0.6227910000000  0.5001190000000 1.0
C      1  0.4149840000000  0.5122490000000  0.4502180000000 1.0
C      1  0.4000110000000  0.4448260000000  0.4942430000000 1.0
C      1  0.5221940000000  0.5257050000000  0.4320090000000 1.0
C      1  0.5833900000000  0.3949770000000  0.4836990000000 1.0
C      1  0.4676980000000  0.4632300000000  0.5936380000000 1.0
C      1  0.5808720000000  0.4425360000000  0.5829270000000 1.0
C      1  0.4712330000000  0.5208950000000  0.5252800000000 1.0
C      1  0.4512200000000  0.4077200000000  0.4578410000000 1.0
C      1  0.4979830000000  0.5303980000000  0.4784590000000 1.0
C      1  0.4578660000000  0.4436300000000  0.5748390000000 1.0
C      1  0.4479730000000  0.5298100000000  0.4791610000000 1.0
C      1  0.6011720000000  0.4637510000000  0.5860000000000 1.0
C      1  0.4837520000000  0.3961860000000  0.5317810000000 1.0
C      1  0.5606810000000  0.5620650000000  0.4621380000000 1.0
C      1  0.4951680000000  0.4644640000000  0.4521290000000 1.0
C      1  0.5760510000000  0.4492320000000  0.5144860000000 1.0
C      1  0.5023600000000  0.5364050000000  0.4493880000000 1.0
C      1  0.5166570000000  0.4208920000000  0.5675470000000 1.0
C      1  0.4325840000000  0.5415070000000  0.5403260000000 1.0
C      1  0.4128320000000  0.6173190000000  0.5961760000000 1.0
C      1  0.3929210000000  0.4168550000000  0.5336910000000 1.0
C      1  0.5814190000000  0.5548660000000  0.4157050000000 1.0
C      1  0.4984820000000  0.4163750000000  0.5465480000000 1.0
C      1  0.4526220000000  0.5016920000000  0.4880470000000 1.0
C      1  0.5464330000000  0.5072370000000  0.4711220000000 1.0
C      1  0.4988090000000  0.6441420000000  0.4849820000000 1.0
C      1  0.5061320000000  0.3819460000000  0.5166390000000 1.0
C      1  0.4466150000000  0.6329050000000  0.4944840000000 1.0
C      1  0.4372450000000  0.4215270000000  0.5102380000000 1.0
C      1  0.5162230000000  0.5393240000000  0.5015480000000 1.0
C      1  0.5875520000000  0.5250260000000  0.4542830000000 1.0
C      1  0.5154070000000  0.4735190000000  0.6028670000000 1.0
C      1  0.4409440000000  0.3944410000000  0.5888340000000 1.0
C      1  0.4845930000000  0.4282840000000  0.4098130000000 1.0
C      1  0.4700710000000  0.6221380000000  0.4494560000000 1.0
C      1  0.4561740000000  0.5595130000000  0.6211530000000 1.0
END
