TITL C-612603-7354-85 0.219347666425841 125000 -796.510574060112 0 0 130 (C1) n - 1
REM
REM in /home/nfs/bkarasulu/CARBON/AIRSS/Generating-Clusters/TERSOFF/Only-C1/FIRE-HFTN
REM
REM
REM
REM
REM
REM ./C.cell (11c1c37f851c82e70ff6c80c92926a4b)
REM AIRSS Version 0.9.1 bugfix July 2018 build 013d7b7c2542+ Fri, 06 Jul 2018 19:26:36 +0100
REM compiler GCC version 9.2.1 20190827 (Red Hat 9.2.1-1)
REM options -cpp -mtune=generic -march=x86-64 -g -O0 -fpre-include=/usr/include/finclude/math-vector-fortran.h
REM seed 2034307512 -1999229679 1021354253 1920235448 2126894004 -665329739 -595926646 -1903669376 716728322 1455657263 -1053439849 211762405 -605275300 1765142774 475656514 1941332756 1817953850 1711653292 -887141734 -622664729 467112377 -1894035220 1888016403 -144919949 -986151981 21093952 1967925265 -1768120828 458768031 404343539 -1988647905 33602648 902547992
REM
CELL 1.54180   50.00000   50.00000   50.00000   90.00000   90.00000   90.00000
LATT -1
SFAC C  
C      1  0.4559170000000  0.5944870000000  0.5392130000000 1.0
C      1  0.4384820000000  0.4519380000000  0.4422570000000 1.0
C      1  0.4346970000000  0.5392850000000  0.5099360000000 1.0
C      1  0.4991090000000  0.5411920000000  0.4652670000000 1.0
C      1  0.4819380000000  0.4323610000000  0.4939380000000 1.0
C      1  0.5385830000000  0.5989490000000  0.4519210000000 1.0
C      1  0.5750790000000  0.5112840000000  0.4350990000000 1.0
C      1  0.6085270000000  0.5132480000000  0.4974360000000 1.0
C      1  0.5365240000000  0.4647980000000  0.4561530000000 1.0
C      1  0.5443290000000  0.5309400000000  0.5254390000000 1.0
C      1  0.4880690000000  0.5505500000000  0.5844210000000 1.0
C      1  0.4860860000000  0.4569800000000  0.5699760000000 1.0
C      1  0.5358680000000  0.4044400000000  0.5118070000000 1.0
C      1  0.4830280000000  0.6031510000000  0.5327370000000 1.0
C      1  0.5901070000000  0.5547150000000  0.4830480000000 1.0
C      1  0.3955470000000  0.5233660000000  0.4965950000000 1.0
C      1  0.4597740000000  0.4479500000000  0.7347410000000 1.0
C      1  0.4184790000000  0.4448300000000  0.5000880000000 1.0
C      1  0.5334930000000  0.4394650000000  0.5489060000000 1.0
C      1  0.5234720000000  0.5419240000000  0.4822240000000 1.0
C      1  0.6097050000000  0.5344250000000  0.4808270000000 1.0
C      1  0.5604080000000  0.5850510000000  0.4585860000000 1.0
C      1  0.4861600000000  0.5464400000000  0.5222920000000 1.0
C      1  0.5139940000000  0.5047520000000  0.5598600000000 1.0
C      1  0.5141640000000  0.5969610000000  0.4410410000000 1.0
C      1  0.5380740000000  0.5273900000000  0.3714990000000 1.0
C      1  0.4438650000000  0.5473090000000  0.5616490000000 1.0
C      1  0.5316810000000  0.5516390000000  0.5091800000000 1.0
C      1  0.4991250000000  0.4156010000000  0.4781130000000 1.0
C      1  0.5862400000000  0.5609420000000  0.5110070000000 1.0
C      1  0.5201790000000  0.5994850000000  0.5051960000000 1.0
C      1  0.5609630000000  0.4560830000000  0.5497180000000 1.0
C      1  0.4769020000000  0.4850840000000  0.4818690000000 1.0
C      1  0.4711220000000  0.4866990000000  0.4544390000000 1.0
C      1  0.5111140000000  0.5305330000000  0.3733730000000 1.0
C      1  0.3835410000000  0.4758330000000  0.4883490000000 1.0
C      1  0.4754740000000  0.5380450000000  0.4800040000000 1.0
C      1  0.5384300000000  0.4712520000000  0.4836880000000 1.0
C      1  0.5617440000000  0.5039690000000  0.4089350000000 1.0
C      1  0.4920790000000  0.6053770000000  0.5052290000000 1.0
C      1  0.4719090000000  0.5110610000000  0.4960600000000 1.0
C      1  0.5000490000000  0.5769260000000  0.4271790000000 1.0
C      1  0.5536370000000  0.5280750000000  0.3951150000000 1.0
C      1  0.4346590000000  0.5672260000000  0.5050010000000 1.0
C      1  0.4711660000000  0.4171240000000  0.5156770000000 1.0
C      1  0.5848850000000  0.4899350000000  0.4527390000000 1.0
C      1  0.5008660000000  0.4771330000000  0.6114320000000 1.0
C      1  0.4075120000000  0.5137240000000  0.5628470000000 1.0
C      1  0.5732450000000  0.5599150000000  0.4601520000000 1.0
C      1  0.4767110000000  0.4184730000000  0.4355640000000 1.0
C      1  0.4574230000000  0.5733410000000  0.5587790000000 1.0
C      1  0.4711140000000  0.5708750000000  0.4307730000000 1.0
C      1  0.5028640000000  0.4967780000000  0.5324210000000 1.0
C      1  0.5865340000000  0.4709020000000  0.5018730000000 1.0
C      1  0.5864790000000  0.4993040000000  0.5078930000000 1.0
C      1  0.4970290000000  0.4644480000000  0.3942220000000 1.0
C      1  0.3788620000000  0.5009640000000  0.4967500000000 1.0
C      1  0.5890490000000  0.5488750000000  0.5354530000000 1.0
C      1  0.4145490000000  0.5237950000000  0.4665270000000 1.0
C      1  0.4228060000000  0.4238990000000  0.5434550000000 1.0
C      1  0.4709820000000  0.5287570000000  0.5771940000000 1.0
C      1  0.4458850000000  0.5120260000000  0.5111070000000 1.0
C      1  0.4678750000000  0.4536810000000  0.7106330000000 1.0
C      1  0.5241960000000  0.5086090000000  0.4484350000000 1.0
C      1  0.5876550000000  0.5276500000000  0.5525650000000 1.0
C      1  0.4749620000000  0.4605710000000  0.5437490000000 1.0
C      1  0.5519780000000  0.4246840000000  0.5007530000000 1.0
C      1  0.5286110000000  0.4216510000000  0.4404910000000 1.0
C      1  0.5486640000000  0.4405100000000  0.4480460000000 1.0
C      1  0.4509700000000  0.5022080000000  0.4415740000000 1.0
C      1  0.4801900000000  0.4022940000000  0.5363690000000 1.0
C      1  0.4749430000000  0.4571860000000  0.4076740000000 1.0
C      1  0.5238630000000  0.5765690000000  0.5232610000000 1.0
C      1  0.4498940000000  0.5505530000000  0.4353360000000 1.0
C      1  0.5347080000000  0.4887220000000  0.5765330000000 1.0
C      1  0.4590690000000  0.5245330000000  0.4258930000000 1.0
C      1  0.5408080000000  0.4842640000000  0.4111730000000 1.0
C      1  0.5276150000000  0.4824630000000  0.6034510000000 1.0
C      1  0.4306590000000  0.4429200000000  0.5254400000000 1.0
C      1  0.4904660000000  0.5179820000000  0.5190690000000 1.0
C      1  0.4767700000000  0.5877930000000  0.4889340000000 1.0
C      1  0.4083080000000  0.5354230000000  0.5211780000000 1.0
C      1  0.5154220000000  0.3972410000000  0.4931220000000 1.0
C      1  0.5598880000000  0.4818960000000  0.5642330000000 1.0
C      1  0.4268320000000  0.5473190000000  0.4533750000000 1.0
C      1  0.4865630000000  0.5249390000000  0.4188290000000 1.0
C      1  0.5661640000000  0.5408500000000  0.4389990000000 1.0
C      1  0.5116900000000  0.4432740000000  0.5701720000000 1.0
C      1  0.4968070000000  0.4686860000000  0.5241440000000 1.0
C      1  0.5309220000000  0.4842610000000  0.4376390000000 1.0
C      1  0.5435570000000  0.4980580000000  0.4909900000000 1.0
C      1  0.5791950000000  0.4557610000000  0.5261200000000 1.0
C      1  0.5735810000000  0.4211940000000  0.4832180000000 1.0
C      1  0.5745310000000  0.4401860000000  0.4621480000000 1.0
C      1  0.4657080000000  0.3939660000000  0.4276580000000 1.0
C      1  0.4210330000000  0.4697140000000  0.4577050000000 1.0
C      1  0.5023520000000  0.5243720000000  0.4422840000000 1.0
C      1  0.4768800000000  0.5605660000000  0.4984820000000 1.0
C      1  0.4844200000000  0.4616640000000  0.4967750000000 1.0
C      1  0.5032500000000  0.5838140000000  0.5456240000000 1.0
C      1  0.5005400000000  0.5386220000000  0.3981300000000 1.0
C      1  0.4553210000000  0.3710990000000  0.4207060000000 1.0
C      1  0.5789370000000  0.5033680000000  0.5614140000000 1.0
C      1  0.5462550000000  0.5483960000000  0.4160520000000 1.0
C      1  0.5355860000000  0.5173360000000  0.4729120000000 1.0
C      1  0.4761120000000  0.4595080000000  0.6861220000000 1.0
C      1  0.5381550000000  0.4501620000000  0.5018420000000 1.0
C      1  0.4608010000000  0.5984940000000  0.4695700000000 1.0
C      1  0.5043630000000  0.3977900000000  0.5477370000000 1.0
C      1  0.5016230000000  0.4182350000000  0.4499790000000 1.0
C      1  0.5319450000000  0.5276640000000  0.5509700000000 1.0
C      1  0.5175000000000  0.5581860000000  0.4127210000000 1.0
C      1  0.4836950000000  0.4790330000000  0.5885080000000 1.0
C      1  0.4164660000000  0.4923150000000  0.5492180000000 1.0
C      1  0.5227010000000  0.4726290000000  0.3930050000000 1.0
C      1  0.4162240000000  0.5382780000000  0.5511040000000 1.0
C      1  0.4865860000000  0.5720940000000  0.5664930000000 1.0
C      1  0.4063460000000  0.4610340000000  0.4806080000000 1.0
C      1  0.4624570000000  0.4426720000000  0.4287030000000 1.0
C      1  0.4369100000000  0.5902180000000  0.5189730000000 1.0
C      1  0.5217150000000  0.4531940000000  0.5244990000000 1.0
C      1  0.4843450000000  0.4653330000000  0.6616170000000 1.0
C      1  0.4376060000000  0.4901980000000  0.5299910000000 1.0
C      1  0.5593650000000  0.5095360000000  0.5117410000000 1.0
C      1  0.5854540000000  0.4664030000000  0.4712840000000 1.0
C      1  0.4925590000000  0.4711430000000  0.6371150000000 1.0
C      1  0.4859020000000  0.5049950000000  0.5756340000000 1.0
C      1  0.5292470000000  0.4093540000000  0.5397980000000 1.0
C      1  0.4251920000000  0.4985810000000  0.4543840000000 1.0
C      1  0.4488010000000  0.4638310000000  0.5328310000000 1.0
END
