TITL C-612607-4507-239 5.11697684257024 125000 -857.209251658076 0 0 140 (C1) n - 1
REM
REM in /home/nfs/bkarasulu/CARBON/AIRSS/Generating-Clusters/TERSOFF/Only-C1/FIRE-HFTN
REM
REM
REM
REM
REM
REM ./C.cell (11c1c37f851c82e70ff6c80c92926a4b)
REM AIRSS Version 0.9.1 bugfix July 2018 build 013d7b7c2542+ Fri, 06 Jul 2018 19:26:36 +0100
REM compiler GCC version 9.2.1 20190827 (Red Hat 9.2.1-1)
REM options -cpp -mtune=generic -march=x86-64 -g -O0 -fpre-include=/usr/include/finclude/math-vector-fortran.h
REM seed -175413689 1024001788 -464615472 345497738 204776204 1294210971 542226875 -1692378200 910369067 -967464119 -1183456148 427528961 -737575622 1016579578 -2750555 -805461709 -181073460 -1183106873 1732904119 -1465556496 -592764967 1632955192 -1821192135 -931255094 -979250268 1545106915 -2094402747 1171126620 962555091 -702966363 -573718202 -1812371069 -655985673
REM
CELL 1.54180   50.00000   50.00000   50.00000   90.00000   90.00000   90.00000
LATT -1
SFAC C  
C      1  0.6082620000000  0.4556060000000  0.4612970000000 1.0
C      1  0.5424280000000  0.4505390000000  0.5902470000000 1.0
C      1  0.3967020000000  0.4417360000000  0.5833580000000 1.0
C      1  0.4951890000000  0.4639310000000  0.5917180000000 1.0
C      1  0.4780980000000  0.4578990000000  0.4123270000000 1.0
C      1  0.5534060000000  0.4766760000000  0.5953740000000 1.0
C      1  0.3587740000000  0.4747190000000  0.4955700000000 1.0
C      1  0.4412420000000  0.5294440000000  0.5993440000000 1.0
C      1  0.5348990000000  0.4961220000000  0.6049350000000 1.0
C      1  0.4630780000000  0.5404130000000  0.5566070000000 1.0
C      1  0.4567720000000  0.4176310000000  0.4239000000000 1.0
C      1  0.3887480000000  0.5036780000000  0.5543840000000 1.0
C      1  0.5096360000000  0.4412950000000  0.5217870000000 1.0
C      1  0.4703800000000  0.5129560000000  0.4063910000000 1.0
C      1  0.5583550000000  0.5030530000000  0.3970020000000 1.0
C      1  0.5139190000000  0.4425730000000  0.5888020000000 1.0
C      1  0.4101520000000  0.5015000000000  0.4585810000000 1.0
C      1  0.5358760000000  0.5658220000000  0.5697760000000 1.0
C      1  0.4590790000000  0.3884530000000  0.4709600000000 1.0
C      1  0.5412720000000  0.5828100000000  0.4905470000000 1.0
C      1  0.3937180000000  0.4787920000000  0.4524400000000 1.0
C      1  0.4905550000000  0.5120370000000  0.4600020000000 1.0
C      1  0.3679730000000  0.4585470000000  0.5181100000000 1.0
C      1  0.5593210000000  0.5186810000000  0.5327690000000 1.0
C      1  0.5098990000000  0.5268280000000  0.5708230000000 1.0
C      1  0.6195600000000  0.5481720000000  0.4832850000000 1.0
C      1  0.5917540000000  0.5222120000000  0.4238040000000 1.0
C      1  0.5547210000000  0.5282910000000  0.5071550000000 1.0
C      1  0.5524790000000  0.5743650000000  0.4641320000000 1.0
C      1  0.4776120000000  0.4849680000000  0.4031650000000 1.0
C      1  0.4697180000000  0.5751440000000  0.4753470000000 1.0
C      1  0.5945320000000  0.5016700000000  0.5784210000000 1.0
C      1  0.5576170000000  0.4370150000000  0.5676980000000 1.0
C      1  0.5873700000000  0.5275920000000  0.5691210000000 1.0
C      1  0.5384510000000  0.4878150000000  0.4110500000000 1.0
C      1  0.5417060000000  0.4778920000000  0.4852930000000 1.0
C      1  0.4658380000000  0.5513730000000  0.4910570000000 1.0
C      1  0.5738380000000  0.5319440000000  0.4870240000000 1.0
C      1  0.5272490000000  0.5247640000000  0.5007510000000 1.0
C      1  0.5026310000000  0.4663280000000  0.5336720000000 1.0
C      1  0.4607820000000  0.4781860000000  0.5554680000000 1.0
C      1  0.4325250000000  0.6036720000000  0.4587470000000 1.0
C      1  0.5084970000000  0.5432390000000  0.5098080000000 1.0
C      1  0.5472180000000  0.4714000000000  0.4328770000000 1.0
C      1  0.4327460000000  0.3908800000000  0.4669030000000 1.0
C      1  0.4724150000000  0.5302840000000  0.4480190000000 1.0
C      1  0.4222280000000  0.4414580000000  0.5911300000000 1.0
C      1  0.5423480000000  0.4201280000000  0.4577850000000 1.0
C      1  0.4745760000000  0.4740460000000  0.5300560000000 1.0
C      1  0.4152450000000  0.5072020000000  0.4864450000000 1.0
C      1  0.5134220000000  0.5920590000000  0.4888940000000 1.0
C      1  0.5000200000000  0.5919490000000  0.5148810000000 1.0
C      1  0.4589280000000  0.6135490000000  0.4997240000000 1.0
C      1  0.5600650000000  0.4700940000000  0.5312220000000 1.0
C      1  0.5428140000000  0.5457490000000  0.4165070000000 1.0
C      1  0.5155920000000  0.5109840000000  0.4454940000000 1.0
C      1  0.3635380000000  0.4542650000000  0.5452360000000 1.0
C      1  0.4729010000000  0.4827800000000  0.5022590000000 1.0
C      1  0.3733770000000  0.4687040000000  0.4711060000000 1.0
C      1  0.4929140000000  0.4899910000000  0.4808300000000 1.0
C      1  0.4894510000000  0.5375360000000  0.4058750000000 1.0
C      1  0.5512070000000  0.4597100000000  0.5056650000000 1.0
C      1  0.4134180000000  0.6075850000000  0.4414640000000 1.0
C      1  0.4971180000000  0.5813260000000  0.4677320000000 1.0
C      1  0.4531110000000  0.5180000000000  0.4301990000000 1.0
C      1  0.5655710000000  0.5182140000000  0.4642010000000 1.0
C      1  0.6318200000000  0.4572840000000  0.4748920000000 1.0
C      1  0.4179620000000  0.5546800000000  0.5129490000000 1.0
C      1  0.5208050000000  0.4979380000000  0.4931880000000 1.0
C      1  0.4135440000000  0.4071710000000  0.4581460000000 1.0
C      1  0.4690990000000  0.4630860000000  0.5792470000000 1.0
C      1  0.5180050000000  0.5054740000000  0.4178470000000 1.0
C      1  0.5306590000000  0.5406740000000  0.5834880000000 1.0
C      1  0.5172620000000  0.4902920000000  0.5412180000000 1.0
C      1  0.5552080000000  0.5638940000000  0.5473480000000 1.0
C      1  0.5009400000000  0.5128520000000  0.5485660000000 1.0
C      1  0.5811410000000  0.5732740000000  0.4643830000000 1.0
C      1  0.3754600000000  0.4468500000000  0.5680180000000 1.0
C      1  0.4134340000000  0.4953230000000  0.5558880000000 1.0
C      1  0.3917630000000  0.4454990000000  0.5063680000000 1.0
C      1  0.6305630000000  0.5124630000000  0.4512680000000 1.0
C      1  0.4481450000000  0.4479110000000  0.5906830000000 1.0
C      1  0.6079610000000  0.5025210000000  0.4376720000000 1.0
C      1  0.4316610000000  0.5734380000000  0.5264710000000 1.0
C      1  0.5964800000000  0.5901480000000  0.4494270000000 1.0
C      1  0.5456580000000  0.4941150000000  0.5378860000000 1.0
C      1  0.5920040000000  0.5530990000000  0.4815900000000 1.0
C      1  0.5066180000000  0.5677840000000  0.4446060000000 1.0
C      1  0.4359480000000  0.5349770000000  0.6242510000000 1.0
C      1  0.5758620000000  0.4802630000000  0.5767820000000 1.0
C      1  0.4407340000000  0.4982580000000  0.5609550000000 1.0
C      1  0.5699160000000  0.5383910000000  0.5499250000000 1.0
C      1  0.5095770000000  0.5671250000000  0.5252840000000 1.0
C      1  0.6194200000000  0.4973480000000  0.5889550000000 1.0
C      1  0.4561200000000  0.5835730000000  0.5370770000000 1.0
C      1  0.5990540000000  0.4754360000000  0.4427880000000 1.0
C      1  0.4524140000000  0.4443930000000  0.4151300000000 1.0
C      1  0.5412070000000  0.5240540000000  0.6038410000000 1.0
C      1  0.4804400000000  0.5363050000000  0.5100600000000 1.0
C      1  0.5705090000000  0.4145400000000  0.4571930000000 1.0
C      1  0.4217920000000  0.4848380000000  0.5025340000000 1.0
C      1  0.4675000000000  0.5686880000000  0.5585810000000 1.0
C      1  0.4752730000000  0.5935690000000  0.5993430000000 1.0
C      1  0.5035290000000  0.4670910000000  0.4624800000000 1.0
C      1  0.4526140000000  0.5979270000000  0.4769040000000 1.0
C      1  0.5329510000000  0.4685580000000  0.4582190000000 1.0
C      1  0.4865790000000  0.5512380000000  0.4322440000000 1.0
C      1  0.5716470000000  0.4593770000000  0.5553130000000 1.0
C      1  0.3855500000000  0.4415990000000  0.4782310000000 1.0
C      1  0.4072610000000  0.4555560000000  0.4401420000000 1.0
C      1  0.4821640000000  0.4031400000000  0.4640150000000 1.0
C      1  0.4274700000000  0.5119400000000  0.4389560000000 1.0
C      1  0.5785240000000  0.3894820000000  0.4492770000000 1.0
C      1  0.4479650000000  0.5233000000000  0.5730820000000 1.0
C      1  0.5073780000000  0.4868350000000  0.6043230000000 1.0
C      1  0.4134360000000  0.5328470000000  0.4980380000000 1.0
C      1  0.5358550000000  0.5642510000000  0.4406140000000 1.0
C      1  0.4854400000000  0.5819370000000  0.5766820000000 1.0
C      1  0.4813070000000  0.4144700000000  0.4377910000000 1.0
C      1  0.4779130000000  0.5260640000000  0.5366780000000 1.0
C      1  0.5135420000000  0.5832200000000  0.5718440000000 1.0
C      1  0.5281970000000  0.4199710000000  0.4826890000000 1.0
C      1  0.6353930000000  0.5309460000000  0.4700930000000 1.0
C      1  0.5400280000000  0.4151070000000  0.5612320000000 1.0
C      1  0.4999420000000  0.4117080000000  0.4843360000000 1.0
C      1  0.5527580000000  0.5770930000000  0.5192180000000 1.0
C      1  0.5905170000000  0.4334120000000  0.4643540000000 1.0
C      1  0.5268870000000  0.4274360000000  0.4345080000000 1.0
C      1  0.4157720000000  0.4598620000000  0.5107840000000 1.0
C      1  0.5342920000000  0.4368890000000  0.5060240000000 1.0
C      1  0.5151000000000  0.4182800000000  0.5731290000000 1.0
C      1  0.5002390000000  0.4334620000000  0.4271040000000 1.0
C      1  0.4908800000000  0.4226490000000  0.5097720000000 1.0
C      1  0.4274390000000  0.4556390000000  0.4208070000000 1.0
C      1  0.4730280000000  0.6004310000000  0.5207400000000 1.0
C      1  0.5178090000000  0.5317840000000  0.4047010000000 1.0
C      1  0.5668990000000  0.5276520000000  0.4105870000000 1.0
C      1  0.5403150000000  0.5173970000000  0.4561950000000 1.0
C      1  0.5747270000000  0.4673550000000  0.4316350000000 1.0
C      1  0.4018560000000  0.4322920000000  0.4568630000000 1.0
END
