TITL C-612605-9286-784 0.00369385357181286 125000 -1203.21680605081 0 0 197 (C1) n - 1
REM
REM in /home/nfs/bkarasulu/CARBON/AIRSS/Generating-Clusters/TERSOFF/Only-C1/FIRE-HFTN
REM
REM
REM
REM
REM
REM ./C.cell (11c1c37f851c82e70ff6c80c92926a4b)
REM AIRSS Version 0.9.1 bugfix July 2018 build 013d7b7c2542+ Fri, 06 Jul 2018 19:26:36 +0100
REM compiler GCC version 9.2.1 20190827 (Red Hat 9.2.1-1)
REM options -cpp -mtune=generic -march=x86-64 -g -O0 -fpre-include=/usr/include/finclude/math-vector-fortran.h
REM seed 673919077 791222646 -1002572565 -1161007623 1965084302 -796576501 349159681 1406514424 1450379161 -365757754 -239284286 678917918 -1227537741 -335835234 -405474480 -42080239 626100930 1015583539 -1544490101 439711707 778493271 2091808642 -383428124 185550325 987285011 -1428170772 -1119540188 -31012630 969521419 2024415271 814556737 -1838304196 291135224
REM
CELL 1.54180   50.00000   50.00000   50.00000   90.00000   90.00000   90.00000
LATT -1
SFAC C  
C      1  0.4594560000000  0.4957860000000  0.3863230000000 1.0
C      1  0.5509440000000  0.5398520000000  0.5626340000000 1.0
C      1  0.4273720000000  0.4020490000000  0.5016340000000 1.0
C      1  0.4919140000000  0.5376050000000  0.6146180000000 1.0
C      1  0.5878870000000  0.4961270000000  0.5585380000000 1.0
C      1  0.5331120000000  0.5028110000000  0.3840780000000 1.0
C      1  0.4536560000000  0.4454660000000  0.4435200000000 1.0
C      1  0.4900120000000  0.5073840000000  0.4402640000000 1.0
C      1  0.5019770000000  0.6242520000000  0.4803920000000 1.0
C      1  0.4941090000000  0.3799210000000  0.5016760000000 1.0
C      1  0.5156310000000  0.5700340000000  0.4590820000000 1.0
C      1  0.4898950000000  0.5580010000000  0.4177110000000 1.0
C      1  0.5035110000000  0.5360680000000  0.4060140000000 1.0
C      1  0.5715620000000  0.4439560000000  0.4497660000000 1.0
C      1  0.5117590000000  0.4442770000000  0.5152620000000 1.0
C      1  0.4412100000000  0.3962420000000  0.5715200000000 1.0
C      1  0.4126260000000  0.5215330000000  0.4250560000000 1.0
C      1  0.5732270000000  0.4455400000000  0.4784910000000 1.0
C      1  0.5108190000000  0.5171270000000  0.6238830000000 1.0
C      1  0.5203040000000  0.6186830000000  0.5033620000000 1.0
C      1  0.5154320000000  0.4155510000000  0.4751190000000 1.0
C      1  0.5874220000000  0.4667020000000  0.5638180000000 1.0
C      1  0.6075880000000  0.5070540000000  0.4750270000000 1.0
C      1  0.5413560000000  0.5068830000000  0.4843870000000 1.0
C      1  0.4516470000000  0.4747380000000  0.4494760000000 1.0
C      1  0.4904790000000  0.6013210000000  0.5377450000000 1.0
C      1  0.4223430000000  0.5007560000000  0.5182960000000 1.0
C      1  0.5821510000000  0.4998530000000  0.3961040000000 1.0
C      1  0.5048920000000  0.4662520000000  0.4094500000000 1.0
C      1  0.4618950000000  0.3693120000000  0.5358450000000 1.0
C      1  0.4444270000000  0.4895690000000  0.5323630000000 1.0
C      1  0.4968290000000  0.5341630000000  0.5690080000000 1.0
C      1  0.4701030000000  0.4210620000000  0.4437930000000 1.0
C      1  0.5406620000000  0.5671920000000  0.3851480000000 1.0
C      1  0.5145790000000  0.6263610000000  0.4540120000000 1.0
C      1  0.4968730000000  0.4955300000000  0.4644580000000 1.0
C      1  0.5448520000000  0.4814250000000  0.4966210000000 1.0
C      1  0.4230530000000  0.4168430000000  0.5789420000000 1.0
C      1  0.5522620000000  0.4238390000000  0.4416560000000 1.0
C      1  0.4416310000000  0.5766200000000  0.5039250000000 1.0
C      1  0.3822400000000  0.4664290000000  0.5387290000000 1.0
C      1  0.4618300000000  0.5310690000000  0.6110650000000 1.0
C      1  0.6160570000000  0.5323210000000  0.5459730000000 1.0
C      1  0.4902060000000  0.4602520000000  0.5973620000000 1.0
C      1  0.4383890000000  0.3997430000000  0.4741270000000 1.0
C      1  0.4485720000000  0.4416930000000  0.5113110000000 1.0
C      1  0.5112860000000  0.5217130000000  0.3827480000000 1.0
C      1  0.5703830000000  0.4740240000000  0.6089480000000 1.0
C      1  0.6436220000000  0.5382300000000  0.4902380000000 1.0
C      1  0.4560170000000  0.4692130000000  0.5472810000000 1.0
C      1  0.5940660000000  0.4907960000000  0.4939580000000 1.0
C      1  0.6087770000000  0.5577330000000  0.5538700000000 1.0
C      1  0.3992030000000  0.4105620000000  0.5400710000000 1.0
C      1  0.4490820000000  0.4731690000000  0.6176740000000 1.0
C      1  0.4326320000000  0.5418650000000  0.4236600000000 1.0
C      1  0.5624550000000  0.3979290000000  0.4486470000000 1.0
C      1  0.4170510000000  0.5009400000000  0.5938620000000 1.0
C      1  0.5178430000000  0.6036120000000  0.5289900000000 1.0
C      1  0.4659480000000  0.5626680000000  0.4611560000000 1.0
C      1  0.3946000000000  0.5449720000000  0.5208940000000 1.0
C      1  0.3762780000000  0.4714740000000  0.4865690000000 1.0
C      1  0.4738090000000  0.6239770000000  0.4761360000000 1.0
C      1  0.5415010000000  0.5884550000000  0.5427780000000 1.0
C      1  0.4953920000000  0.5124130000000  0.4868510000000 1.0
C      1  0.4302670000000  0.5374650000000  0.5487000000000 1.0
C      1  0.5933550000000  0.4598710000000  0.4373660000000 1.0
C      1  0.4765440000000  0.4109750000000  0.4182070000000 1.0
C      1  0.5270300000000  0.4248100000000  0.5008790000000 1.0
C      1  0.5728770000000  0.5404000000000  0.4713910000000 1.0
C      1  0.6342020000000  0.5153660000000  0.4796390000000 1.0
C      1  0.4077280000000  0.4773540000000  0.5796400000000 1.0
C      1  0.5916450000000  0.5247840000000  0.4611330000000 1.0
C      1  0.4609640000000  0.5917600000000  0.5742380000000 1.0
C      1  0.5625160000000  0.5584820000000  0.5135690000000 1.0
C      1  0.4650110000000  0.4951110000000  0.4342300000000 1.0
C      1  0.5814660000000  0.4765130000000  0.4141170000000 1.0
C      1  0.3978240000000  0.4575480000000  0.5609550000000 1.0
C      1  0.4744370000000  0.5152670000000  0.5041230000000 1.0
C      1  0.4074240000000  0.5250720000000  0.4797730000000 1.0
C      1  0.4748630000000  0.5983740000000  0.4069480000000 1.0
C      1  0.5933710000000  0.4492810000000  0.5390770000000 1.0
C      1  0.4837800000000  0.5957250000000  0.5900530000000 1.0
C      1  0.4910530000000  0.5639410000000  0.4463450000000 1.0
C      1  0.5079420000000  0.5503730000000  0.5916210000000 1.0
C      1  0.4922110000000  0.3975870000000  0.4795070000000 1.0
C      1  0.4669630000000  0.4031530000000  0.4663120000000 1.0
C      1  0.3742450000000  0.4712940000000  0.5135190000000 1.0
C      1  0.4881020000000  0.4937900000000  0.5463920000000 1.0
C      1  0.4569300000000  0.5315840000000  0.5465370000000 1.0
C      1  0.5682720000000  0.5168070000000  0.5610310000000 1.0
C      1  0.4844670000000  0.4891950000000  0.5977060000000 1.0
C      1  0.4420970000000  0.5006460000000  0.6092540000000 1.0
C      1  0.4637800000000  0.4457370000000  0.5351220000000 1.0
C      1  0.4670590000000  0.3959550000000  0.5822730000000 1.0
C      1  0.5588950000000  0.4977460000000  0.6154050000000 1.0
C      1  0.3986540000000  0.4704750000000  0.4385060000000 1.0
C      1  0.4873710000000  0.4531650000000  0.4792950000000 1.0
C      1  0.5713150000000  0.4715870000000  0.4909510000000 1.0
C      1  0.4277570000000  0.4338930000000  0.4368630000000 1.0
C      1  0.5343850000000  0.4842420000000  0.5514070000000 1.0
C      1  0.5469050000000  0.6188730000000  0.4931170000000 1.0
C      1  0.4043930000000  0.4292840000000  0.5614960000000 1.0
C      1  0.5549400000000  0.5551510000000  0.4866380000000 1.0
C      1  0.5557480000000  0.5459570000000  0.4247080000000 1.0
C      1  0.4171230000000  0.5721050000000  0.4903040000000 1.0
C      1  0.5370990000000  0.5401200000000  0.5888760000000 1.0
C      1  0.5014240000000  0.4264670000000  0.5608710000000 1.0
C      1  0.4431950000000  0.5529860000000  0.4475110000000 1.0
C      1  0.5912080000000  0.5809270000000  0.4468340000000 1.0
C      1  0.4470590000000  0.5537280000000  0.6018980000000 1.0
C      1  0.4662290000000  0.4519260000000  0.6109460000000 1.0
C      1  0.5690700000000  0.5962430000000  0.5519720000000 1.0
C      1  0.5660310000000  0.4418080000000  0.5315530000000 1.0
C      1  0.4112740000000  0.5236720000000  0.5318030000000 1.0
C      1  0.4140160000000  0.4524890000000  0.4205040000000 1.0
C      1  0.5301400000000  0.4784380000000  0.3997080000000 1.0
C      1  0.4008950000000  0.5491740000000  0.4934080000000 1.0
C      1  0.3969380000000  0.5679950000000  0.5389910000000 1.0
C      1  0.4192820000000  0.3934640000000  0.5276980000000 1.0
C      1  0.6327700000000  0.5614420000000  0.4981890000000 1.0
C      1  0.5881310000000  0.5721230000000  0.5160140000000 1.0
C      1  0.4081630000000  0.4376110000000  0.4777780000000 1.0
C      1  0.5521630000000  0.4740930000000  0.4179470000000 1.0
C      1  0.5922240000000  0.5794460000000  0.5437960000000 1.0
C      1  0.5377500000000  0.5274390000000  0.4385870000000 1.0
C      1  0.6085580000000  0.5049500000000  0.5404890000000 1.0
C      1  0.5335400000000  0.3952710000000  0.5530870000000 1.0
C      1  0.5546550000000  0.5442170000000  0.3959830000000 1.0
C      1  0.4920280000000  0.4385020000000  0.5365940000000 1.0
C      1  0.4203620000000  0.5640130000000  0.5595430000000 1.0
C      1  0.5127710000000  0.4875570000000  0.5328100000000 1.0
C      1  0.4890340000000  0.5680190000000  0.5022330000000 1.0
C      1  0.5416530000000  0.4433770000000  0.5829730000000 1.0
C      1  0.4935600000000  0.4952530000000  0.6245870000000 1.0
C      1  0.4678240000000  0.5091600000000  0.5315590000000 1.0
C      1  0.4893910000000  0.3736880000000  0.5288770000000 1.0
C      1  0.5209330000000  0.4713370000000  0.5109350000000 1.0
C      1  0.6082780000000  0.5753330000000  0.4960580000000 1.0
C      1  0.5241900000000  0.4287200000000  0.4485010000000 1.0
C      1  0.5728740000000  0.4192570000000  0.4906140000000 1.0
C      1  0.4778960000000  0.4717760000000  0.3950380000000 1.0
C      1  0.5466260000000  0.5584590000000  0.5388340000000 1.0
C      1  0.4582790000000  0.4488040000000  0.3936650000000 1.0
C      1  0.4001600000000  0.4984070000000  0.4317860000000 1.0
C      1  0.6097310000000  0.4874900000000  0.5179700000000 1.0
C      1  0.4962570000000  0.5032050000000  0.5740000000000 1.0
C      1  0.5043840000000  0.6036170000000  0.4060020000000 1.0
C      1  0.4004150000000  0.5499420000000  0.5820670000000 1.0
C      1  0.5518840000000  0.3950360000000  0.5316000000000 1.0
C      1  0.6126780000000  0.4578410000000  0.5178160000000 1.0
C      1  0.4641270000000  0.5943020000000  0.5460610000000 1.0
C      1  0.4426790000000  0.5820520000000  0.5321810000000 1.0
C      1  0.4412390000000  0.5726240000000  0.5812200000000 1.0
C      1  0.4021800000000  0.5250330000000  0.5922410000000 1.0
C      1  0.6025260000000  0.5859820000000  0.4705770000000 1.0
C      1  0.5732960000000  0.5662890000000  0.4334090000000 1.0
C      1  0.6193610000000  0.4515150000000  0.4878050000000 1.0
C      1  0.4390060000000  0.3830610000000  0.5456320000000 1.0
C      1  0.4193950000000  0.4179950000000  0.4587050000000 1.0
C      1  0.5458140000000  0.5072170000000  0.4565260000000 1.0
C      1  0.4492010000000  0.5476120000000  0.4002970000000 1.0
C      1  0.4322990000000  0.4843300000000  0.3846490000000 1.0
C      1  0.5230990000000  0.5875270000000  0.3906920000000 1.0
C      1  0.4680990000000  0.4225620000000  0.3953710000000 1.0
C      1  0.5496050000000  0.4621080000000  0.5429540000000 1.0
C      1  0.4605380000000  0.6131870000000  0.4268800000000 1.0
C      1  0.5547610000000  0.4189200000000  0.5142060000000 1.0
C      1  0.5143980000000  0.6192850000000  0.4279010000000 1.0
C      1  0.5095080000000  0.4530090000000  0.4373960000000 1.0
C      1  0.4990480000000  0.5455720000000  0.5442790000000 1.0
C      1  0.4217320000000  0.5021380000000  0.4892690000000 1.0
C      1  0.5519590000000  0.6003330000000  0.4742020000000 1.0
C      1  0.5354970000000  0.5121610000000  0.6036590000000 1.0
C      1  0.5304460000000  0.4219120000000  0.5668850000000 1.0
C      1  0.5112020000000  0.5218590000000  0.4289510000000 1.0
C      1  0.4652290000000  0.5696730000000  0.4889340000000 1.0
C      1  0.5196070000000  0.4619250000000  0.5908490000000 1.0
C      1  0.5591500000000  0.5165360000000  0.3871670000000 1.0
C      1  0.4585200000000  0.5241970000000  0.3863340000000 1.0
C      1  0.4300850000000  0.4585850000000  0.3968640000000 1.0
C      1  0.5203900000000  0.5223040000000  0.4941800000000 1.0
C      1  0.3929510000000  0.4598700000000  0.4666120000000 1.0
C      1  0.4231120000000  0.4319570000000  0.5025950000000 1.0
C      1  0.5061000000000  0.3829370000000  0.5506610000000 1.0
C      1  0.4366340000000  0.4855010000000  0.4717020000000 1.0
C      1  0.5049770000000  0.5794250000000  0.5928370000000 1.0
C      1  0.5743590000000  0.3966080000000  0.4733180000000 1.0
C      1  0.4680910000000  0.5701240000000  0.4035230000000 1.0
C      1  0.4903330000000  0.4007790000000  0.5682210000000 1.0
C      1  0.6149860000000  0.4572920000000  0.4596860000000 1.0
C      1  0.5008590000000  0.4680560000000  0.4608580000000 1.0
C      1  0.5688740000000  0.4570670000000  0.5856330000000 1.0
C      1  0.5472470000000  0.4823760000000  0.4443290000000 1.0
C      1  0.4599840000000  0.6207080000000  0.4528900000000 1.0
C      1  0.4642940000000  0.4485300000000  0.4899880000000 1.0
C      1  0.5256730000000  0.4917020000000  0.5794070000000 1.0
C      1  0.5398940000000  0.5747560000000  0.4726970000000 1.0
END
