TITL C-612605-9286-322 0.0664307871454833 125000 -427.779239229601 0 0 71 (C1) n - 1
REM
REM in /home/nfs/bkarasulu/CARBON/AIRSS/Generating-Clusters/TERSOFF/Only-C1/FIRE-HFTN
REM
REM
REM
REM
REM
REM ./C.cell (11c1c37f851c82e70ff6c80c92926a4b)
REM AIRSS Version 0.9.1 bugfix July 2018 build 013d7b7c2542+ Fri, 06 Jul 2018 19:26:36 +0100
REM compiler GCC version 9.2.1 20190827 (Red Hat 9.2.1-1)
REM options -cpp -mtune=generic -march=x86-64 -g -O0 -fpre-include=/usr/include/finclude/math-vector-fortran.h
REM seed 1448055627 821411228 349331440 -1792409551 -1973294091 901975790 1945622717 2082965591 -1614831276 -1852614838 -604724036 1919395221 1123304816 1959373459 -1101781299 2121675401 -1495797434 -2079484750 -1086772720 1758668153 1012221035 1653577659 1216513455 -150119781 547099286 1169714953 -390958277 -1185487267 -616624593 -873701885 1121046123 -125385716 -1849205213
REM
CELL 1.54180   50.00000   50.00000   50.00000   90.00000   90.00000   90.00000
LATT -1
SFAC C  
C      1  0.4736440000000  0.4238320000000  0.4678470000000 1.0
C      1  0.4819760000000  0.4922090000000  0.5015000000000 1.0
C      1  0.4422750000000  0.4894030000000  0.5377380000000 1.0
C      1  0.5210690000000  0.4111260000000  0.4912540000000 1.0
C      1  0.4640680000000  0.4997210000000  0.4088780000000 1.0
C      1  0.4847000000000  0.4468330000000  0.5111380000000 1.0
C      1  0.5469300000000  0.4906380000000  0.5209860000000 1.0
C      1  0.4210780000000  0.4406600000000  0.5275120000000 1.0
C      1  0.4877050000000  0.4572280000000  0.5574930000000 1.0
C      1  0.4906390000000  0.5174670000000  0.4923390000000 1.0
C      1  0.4527630000000  0.5672140000000  0.5316830000000 1.0
C      1  0.4821400000000  0.5238670000000  0.4654990000000 1.0
C      1  0.5311390000000  0.5256400000000  0.4555140000000 1.0
C      1  0.5910350000000  0.4065380000000  0.4839910000000 1.0
C      1  0.4455140000000  0.4363320000000  0.5376600000000 1.0
C      1  0.5008000000000  0.5261190000000  0.4192740000000 1.0
C      1  0.5334730000000  0.5125880000000  0.5142720000000 1.0
C      1  0.4150290000000  0.5264950000000  0.5041170000000 1.0
C      1  0.4175090000000  0.5018750000000  0.4893940000000 1.0
C      1  0.5040010000000  0.5300910000000  0.4471710000000 1.0
C      1  0.5308750000000  0.5959080000000  0.5343890000000 1.0
C      1  0.4390540000000  0.4953980000000  0.4711980000000 1.0
C      1  0.5957730000000  0.6000690000000  0.4731650000000 1.0
C      1  0.4905080000000  0.6125950000000  0.4600940000000 1.0
C      1  0.4556800000000  0.5137730000000  0.4563070000000 1.0
C      1  0.4441050000000  0.4676130000000  0.4658320000000 1.0
C      1  0.6009020000000  0.4250720000000  0.5003650000000 1.0
C      1  0.4599620000000  0.4891370000000  0.5179140000000 1.0
C      1  0.4052050000000  0.4566530000000  0.5130170000000 1.0
C      1  0.4922440000000  0.5002580000000  0.4106450000000 1.0
C      1  0.5920560000000  0.4685240000000  0.5596670000000 1.0
C      1  0.5404940000000  0.4987080000000  0.4528910000000 1.0
C      1  0.5734800000000  0.5865820000000  0.4736320000000 1.0
C      1  0.5114430000000  0.5292960000000  0.5082420000000 1.0
C      1  0.4960370000000  0.5525570000000  0.5480590000000 1.0
C      1  0.4341010000000  0.5137030000000  0.5489720000000 1.0
C      1  0.4500380000000  0.5124010000000  0.4283650000000 1.0
C      1  0.5811770000000  0.4592090000000  0.5363500000000 1.0
C      1  0.4566470000000  0.5263560000000  0.5612760000000 1.0
C      1  0.5682650000000  0.3954690000000  0.4756360000000 1.0
C      1  0.5540500000000  0.4649680000000  0.5299530000000 1.0
C      1  0.4556570000000  0.4434430000000  0.4637960000000 1.0
C      1  0.4138050000000  0.5252300000000  0.5329530000000 1.0
C      1  0.5086560000000  0.5994670000000  0.4734120000000 1.0
C      1  0.5204510000000  0.4786030000000  0.4481730000000 1.0
C      1  0.4958180000000  0.4127630000000  0.4783840000000 1.0
C      1  0.5220780000000  0.5777380000000  0.5150260000000 1.0
C      1  0.4723010000000  0.4446190000000  0.5366690000000 1.0
C      1  0.4234990000000  0.5517300000000  0.4948200000000 1.0
C      1  0.4674220000000  0.5503440000000  0.5486900000000 1.0
C      1  0.4938860000000  0.4676030000000  0.4941830000000 1.0
C      1  0.5089420000000  0.5436520000000  0.5716240000000 1.0
C      1  0.5152310000000  0.4505550000000  0.5554380000000 1.0
C      1  0.4985820000000  0.5227080000000  0.5854230000000 1.0
C      1  0.5094720000000  0.4662240000000  0.4709270000000 1.0
C      1  0.5964670000000  0.4438000000000  0.5186800000000 1.0
C      1  0.5418280000000  0.3970040000000  0.4786480000000 1.0
C      1  0.4029150000000  0.4794300000000  0.4990360000000 1.0
C      1  0.4389880000000  0.5688840000000  0.5087350000000 1.0
C      1  0.5092620000000  0.5536840000000  0.5229220000000 1.0
C      1  0.5494500000000  0.5725340000000  0.4748220000000 1.0
C      1  0.4788190000000  0.4805900000000  0.5711240000000 1.0
C      1  0.5281240000000  0.4252880000000  0.5150060000000 1.0
C      1  0.4759070000000  0.5086980000000  0.5753480000000 1.0
C      1  0.5266620000000  0.5836350000000  0.4876750000000 1.0
C      1  0.5392070000000  0.6127350000000  0.5524590000000 1.0
C      1  0.5069830000000  0.4792450000000  0.4230160000000 1.0
C      1  0.5922310000000  0.4850650000000  0.4589330000000 1.0
C      1  0.5674260000000  0.4919860000000  0.4549510000000 1.0
C      1  0.5335290000000  0.4455210000000  0.5342490000000 1.0
C      1  0.5468200000000  0.5470930000000  0.4636490000000 1.0
END
