TITL C-612606-7351-1031 76155.9759266385 125000 -1066.10878975048 0 0 173 (C1) n - 1
REM
REM in /home/nfs/bkarasulu/CARBON/AIRSS/Generating-Clusters/TERSOFF/Only-C1/FIRE-HFTN
REM
REM
REM
REM
REM
REM ./C.cell (11c1c37f851c82e70ff6c80c92926a4b)
REM AIRSS Version 0.9.1 bugfix July 2018 build 013d7b7c2542+ Fri, 06 Jul 2018 19:26:36 +0100
REM compiler GCC version 9.2.1 20190827 (Red Hat 9.2.1-1)
REM options -cpp -mtune=generic -march=x86-64 -g -O0 -fpre-include=/usr/include/finclude/math-vector-fortran.h
REM seed -1580317882 -1871814734 1470705191 36071228 -1452434850 872771562 -1702657018 -1754478382 -150821754 2085780812 -1269913362 -534059230 -2019204532 2061515298 2090821364 1252644498 1448178291 -1892273280 1439309200 -1417995404 -1819370489 1442394959 -1209719392 -976006841 -1098761721 -177431768 1094043282 -2061559086 -318479700 1268739839 936547472 -1590902857 2027026641
REM
CELL 1.54180   50.00000   50.00000   50.00000   90.00000   90.00000   90.00000
LATT -1
SFAC C  
C      1  0.4674160000000  0.5024200000000  0.4751510000000 1.0
C      1  0.5645420000000  0.4828770000000  0.5852140000000 1.0
C      1  0.5010350000000  0.4702720000000  0.4680890000000 1.0
C      1  0.4978570000000  0.4987830000000  0.5119540000000 1.0
C      1  0.4319310000000  0.5475150000000  0.5618410000000 1.0
C      1  0.4634530000000  0.4044670000000  0.4838240000000 1.0
C      1  0.4882900000000  0.5062870000000  0.6097060000000 1.0
C      1  0.4978430000000  0.4963800000000  0.3684710000000 1.0
C      1  0.4852150000000  0.5498690000000  0.4626710000000 1.0
C      1  0.4084520000000  0.5045140000000  0.4240910000000 1.0
C      1  0.5125900000000  0.4298020000000  0.3977520000000 1.0
C      1  0.5293120000000  0.5380310000000  0.6081700000000 1.0
C      1  0.5154090000000  0.4620390000000  0.5380930000000 1.0
C      1  0.4512070000000  0.5952750000000  0.5447270000000 1.0
C      1  0.4749490000000  0.5972670000000  0.5614080000000 1.0
C      1  0.4408280000000  0.4219150000000  0.4756250000000 1.0
C      1  0.4511600000000  0.4882690000000  0.4524090000000 1.0
C      1  0.4984120000000  0.4467250000000  0.5194680000000 1.0
C      1  0.4508220000000  0.5329400000000  0.4014010000000 1.0
C      1  0.5340170000000  0.4823740000000  0.4077820000000 1.0
C      1  0.4961600000000  0.4740920000000  0.6453420000000 1.0
C      1  0.5585850000000  0.4775370000000  0.4927930000000 1.0
C      1  0.3970910000000  0.5204340000000  0.4441580000000 1.0
C      1  0.4212580000000  0.5357350000000  0.4789480000000 1.0
C      1  0.4883790000000  0.5754390000000  0.5008680000000 1.0
C      1  0.3967080000000  0.4502020000000  0.4765760000000 1.0
C      1  0.6208250000000  0.4128860000000  0.4795990000000 1.0
C      1  0.4859940000000  0.4817080000000  0.4901540000000 1.0
C      1  0.5387520000000  0.4439110000000  0.4347750000000 1.0
C      1  0.6269980000000  0.4391420000000  0.4752340000000 1.0
C      1  0.5958330000000  0.5562520000000  0.5071820000000 1.0
C      1  0.5841150000000  0.5671890000000  0.4829940000000 1.0
C      1  0.5803430000000  0.5028810000000  0.4140760000000 1.0
C      1  0.5387040000000  0.5716490000000  0.5750880000000 1.0
C      1  0.4891990000000  0.5220710000000  0.4615240000000 1.0
C      1  0.4249390000000  0.5445410000000  0.4088830000000 1.0
C      1  0.4559170000000  0.5149860000000  0.5010350000000 1.0
C      1  0.5232580000000  0.4755010000000  0.6417170000000 1.0
C      1  0.5366880000000  0.5348780000000  0.4580520000000 1.0
C      1  0.4995840000000  0.5987470000000  0.5447060000000 1.0
C      1  0.5034610000000  0.3971610000000  0.6016420000000 1.0
C      1  0.4444200000000  0.6051510000000  0.4889160000000 1.0
C      1  0.5215630000000  0.5855420000000  0.4270170000000 1.0
C      1  0.4327200000000  0.5035650000000  0.5118310000000 1.0
C      1  0.5042640000000  0.5650910000000  0.4791610000000 1.0
C      1  0.5565190000000  0.5213210000000  0.4106630000000 1.0
C      1  0.4386920000000  0.5688240000000  0.5443050000000 1.0
C      1  0.4513310000000  0.4994320000000  0.5753500000000 1.0
C      1  0.3906850000000  0.4391030000000  0.5037190000000 1.0
C      1  0.4314950000000  0.4778550000000  0.5220050000000 1.0
C      1  0.4457840000000  0.4721080000000  0.5664900000000 1.0
C      1  0.4915720000000  0.5577180000000  0.5847690000000 1.0
C      1  0.4589610000000  0.5582250000000  0.4692890000000 1.0
C      1  0.4979650000000  0.4485240000000  0.3817840000000 1.0
C      1  0.5219070000000  0.4149440000000  0.5878690000000 1.0
C      1  0.4786520000000  0.4884750000000  0.6299100000000 1.0
C      1  0.5195770000000  0.4250280000000  0.4752150000000 1.0
C      1  0.3899010000000  0.4786480000000  0.4718630000000 1.0
C      1  0.4329850000000  0.5212910000000  0.5691690000000 1.0
C      1  0.4979840000000  0.4117980000000  0.4150270000000 1.0
C      1  0.4779630000000  0.5180360000000  0.5199010000000 1.0
C      1  0.4357580000000  0.4345940000000  0.5002710000000 1.0
C      1  0.4224490000000  0.5847640000000  0.4803930000000 1.0
C      1  0.5230040000000  0.3931760000000  0.5173980000000 1.0
C      1  0.4628870000000  0.4791000000000  0.3968140000000 1.0
C      1  0.5422260000000  0.5682720000000  0.4244140000000 1.0
C      1  0.5280820000000  0.4016610000000  0.5623210000000 1.0
C      1  0.4610660000000  0.5633420000000  0.4990490000000 1.0
C      1  0.6045000000000  0.4041700000000  0.4997140000000 1.0
C      1  0.5849850000000  0.5398790000000  0.4422360000000 1.0
C      1  0.6173040000000  0.4600540000000  0.4918720000000 1.0
C      1  0.5485300000000  0.5211730000000  0.5082890000000 1.0
C      1  0.3883950000000  0.5078560000000  0.4691520000000 1.0
C      1  0.5396620000000  0.4376590000000  0.4059550000000 1.0
C      1  0.4170130000000  0.5508730000000  0.4362880000000 1.0
C      1  0.5455440000000  0.6297950000000  0.4770000000000 1.0
C      1  0.5283300000000  0.5329130000000  0.5533530000000 1.0
C      1  0.4593830000000  0.6192450000000  0.4679720000000 1.0
C      1  0.5343090000000  0.5088650000000  0.3985740000000 1.0
C      1  0.5727970000000  0.4498490000000  0.5497150000000 1.0
C      1  0.4116790000000  0.5701070000000  0.5042200000000 1.0
C      1  0.5663100000000  0.5019670000000  0.5644120000000 1.0
C      1  0.4618280000000  0.4630930000000  0.4415780000000 1.0
C      1  0.4950410000000  0.3933130000000  0.5293510000000 1.0
C      1  0.4133820000000  0.4225860000000  0.5129860000000 1.0
C      1  0.5163490000000  0.5137620000000  0.3777260000000 1.0
C      1  0.3656400000000  0.5556190000000  0.5186060000000 1.0
C      1  0.4833960000000  0.5348870000000  0.5688470000000 1.0
C      1  0.6004850000000  0.4960400000000  0.5336060000000 1.0
C      1  0.5948540000000  0.5122550000000  0.4382560000000 1.0
C      1  0.3952530000000  0.5282310000000  0.4887140000000 1.0
C      1  0.5699660000000  0.4904730000000  0.4709580000000 1.0
C      1  0.5164230000000  0.5139890000000  0.4569220000000 1.0
C      1  0.5251430000000  0.5905960000000  0.5567430000000 1.0
C      1  0.4882200000000  0.5989020000000  0.5172150000000 1.0
C      1  0.6119060000000  0.5058520000000  0.5086720000000 1.0
C      1  0.6048290000000  0.4496480000000  0.5161840000000 1.0
C      1  0.4062760000000  0.5222520000000  0.4006360000000 1.0
C      1  0.6133910000000  0.4882480000000  0.4853390000000 1.0
C      1  0.5352790000000  0.5480220000000  0.5106500000000 1.0
C      1  0.5272410000000  0.4561360000000  0.5640600000000 1.0
C      1  0.5333450000000  0.5569140000000  0.4807730000000 1.0
C      1  0.4754240000000  0.4599940000000  0.5078290000000 1.0
C      1  0.4851530000000  0.4531470000000  0.4526460000000 1.0
C      1  0.5137370000000  0.5443600000000  0.5321740000000 1.0
C      1  0.6130550000000  0.5339250000000  0.5055680000000 1.0
C      1  0.3891560000000  0.5515460000000  0.5045730000000 1.0
C      1  0.4997120000000  0.5983800000000  0.4363660000000 1.0
C      1  0.5551320000000  0.5420810000000  0.4332470000000 1.0
C      1  0.5431920000000  0.4056660000000  0.5371530000000 1.0
C      1  0.5517110000000  0.6044760000000  0.4771710000000 1.0
C      1  0.4870390000000  0.5360270000000  0.5393350000000 1.0
C      1  0.5319940000000  0.4723800000000  0.4343440000000 1.0
C      1  0.5540370000000  0.5670800000000  0.5247810000000 1.0
C      1  0.4588240000000  0.4453600000000  0.5615940000000 1.0
C      1  0.5234440000000  0.3789690000000  0.4929640000000 1.0
C      1  0.4581470000000  0.6058660000000  0.5171070000000 1.0
C      1  0.4536100000000  0.5046740000000  0.4067030000000 1.0
C      1  0.4371190000000  0.5624860000000  0.5166590000000 1.0
C      1  0.5782220000000  0.4770200000000  0.4004400000000 1.0
C      1  0.4760220000000  0.5110990000000  0.5841890000000 1.0
C      1  0.5937020000000  0.4671810000000  0.5363020000000 1.0
C      1  0.5553770000000  0.4598170000000  0.5698970000000 1.0
C      1  0.4171160000000  0.4308480000000  0.4320100000000 1.0
C      1  0.4623320000000  0.6729140000000  0.4719450000000 1.0
C      1  0.4849240000000  0.4738770000000  0.3796930000000 1.0
C      1  0.5139890000000  0.4419410000000  0.5846280000000 1.0
C      1  0.5878830000000  0.5147850000000  0.5518670000000 1.0
C      1  0.5197360000000  0.4861060000000  0.4547110000000 1.0
C      1  0.5926880000000  0.4222420000000  0.5181000000000 1.0
C      1  0.4542680000000  0.4578270000000  0.4144200000000 1.0
C      1  0.5640220000000  0.5517610000000  0.5779860000000 1.0
C      1  0.3440660000000  0.5585110000000  0.5329350000000 1.0
C      1  0.4302080000000  0.5595920000000  0.4618040000000 1.0
C      1  0.5206470000000  0.4865450000000  0.5236710000000 1.0
C      1  0.4927350000000  0.4516000000000  0.5983770000000 1.0
C      1  0.5568440000000  0.5771130000000  0.4797130000000 1.0
C      1  0.5412660000000  0.5109990000000  0.5581630000000 1.0
C      1  0.5344240000000  0.4942300000000  0.6238440000000 1.0
C      1  0.5529840000000  0.4627650000000  0.3959190000000 1.0
C      1  0.5959860000000  0.5591960000000  0.4588070000000 1.0
C      1  0.4230470000000  0.4710760000000  0.5483600000000 1.0
C      1  0.5573960000000  0.5309940000000  0.6005990000000 1.0
C      1  0.4784400000000  0.6072940000000  0.4504010000000 1.0
C      1  0.4573310000000  0.6472340000000  0.4676700000000 1.0
C      1  0.5685000000000  0.4228580000000  0.5357000000000 1.0
C      1  0.3829730000000  0.4509670000000  0.5291770000000 1.0
C      1  0.4696820000000  0.4047760000000  0.5195560000000 1.0
C      1  0.4901340000000  0.3819310000000  0.5827400000000 1.0
C      1  0.4710040000000  0.6966270000000  0.4784520000000 1.0
C      1  0.5186620000000  0.5591670000000  0.5931760000000 1.0
C      1  0.4857380000000  0.4019360000000  0.4372060000000 1.0
C      1  0.5827650000000  0.5439060000000  0.5552370000000 1.0
C      1  0.5013260000000  0.3873090000000  0.5568580000000 1.0
C      1  0.4051440000000  0.4486620000000  0.5487770000000 1.0
C      1  0.5636770000000  0.4503520000000  0.4927300000000 1.0
C      1  0.5114730000000  0.4313230000000  0.4998650000000 1.0
C      1  0.4502400000000  0.4225090000000  0.5442860000000 1.0
C      1  0.5150320000000  0.5148690000000  0.6155920000000 1.0
C      1  0.4205490000000  0.4237220000000  0.5410090000000 1.0
C      1  0.4823320000000  0.3934120000000  0.4645520000000 1.0
C      1  0.4767960000000  0.5815080000000  0.5844720000000 1.0
C      1  0.5963450000000  0.4964310000000  0.4624120000000 1.0
C      1  0.4476420000000  0.4579000000000  0.5093640000000 1.0
C      1  0.5805680000000  0.5595160000000  0.5310700000000 1.0
C      1  0.5581360000000  0.5004100000000  0.6078020000000 1.0
C      1  0.5445830000000  0.4936080000000  0.5107460000000 1.0
C      1  0.4172110000000  0.4325920000000  0.4601330000000 1.0
C      1  0.4360970000000  0.4988310000000  0.4300830000000 1.0
C      1  0.5035240000000  0.3772940000000  0.4747310000000 1.0
C      1  0.4328360000000  0.4398560000000  0.4120270000000 1.0
C      1  0.5646780000000  0.4321430000000  0.4729440000000 1.0
C      1  0.5412890000000  0.4288230000000  0.4579620000000 1.0
END
