TITL C-612600-6631-1415 0.0782817483750197 125000 -1176.06160741464 0 0 194 (C1) n - 1
REM
REM in /home/nfs/bkarasulu/CARBON/AIRSS/Generating-Clusters/TERSOFF/Only-C1/FIRE-HFTN
REM
REM
REM
REM
REM
REM ./C.cell (11c1c37f851c82e70ff6c80c92926a4b)
REM AIRSS Version 0.9.1 bugfix July 2018 build 013d7b7c2542+ Fri, 06 Jul 2018 19:26:36 +0100
REM compiler GCC version 9.2.1 20190827 (Red Hat 9.2.1-1)
REM options -cpp -mtune=generic -march=x86-64 -g -O0 -fpre-include=/usr/include/finclude/math-vector-fortran.h
REM seed 177542055 1115917401 1849377016 296234049 1975441867 1213474410 -1762713177 791091217 724850305 1408220112 1698129075 900352148 -1858714189 1819877139 1707308553 1107142923 1803128964 -1899857476 53058797 -170225646 -1633524258 -332365927 -1817727847 176379296 115332105 108546900 1574817237 262541213 -1941069794 773903318 283967503 -1904200581 -980338577
REM
CELL 1.54180   50.00000   50.00000   50.00000   90.00000   90.00000   90.00000
LATT -1
SFAC C  
C      1  0.5743820000000  0.5379390000000  0.4635770000000 1.0
C      1  0.3908390000000  0.5589360000000  0.4486090000000 1.0
C      1  0.5085010000000  0.5342580000000  0.5721080000000 1.0
C      1  0.5291350000000  0.4817800000000  0.5514830000000 1.0
C      1  0.5030570000000  0.6623990000000  0.4940500000000 1.0
C      1  0.5639650000000  0.4527910000000  0.4793260000000 1.0
C      1  0.5627090000000  0.5059160000000  0.4304550000000 1.0
C      1  0.4285110000000  0.5248740000000  0.5553280000000 1.0
C      1  0.3896880000000  0.5397540000000  0.5339760000000 1.0
C      1  0.4834730000000  0.5221500000000  0.5667350000000 1.0
C      1  0.5609630000000  0.4184960000000  0.5585430000000 1.0
C      1  0.4813950000000  0.4826960000000  0.4185070000000 1.0
C      1  0.4349200000000  0.4963190000000  0.4985210000000 1.0
C      1  0.5938480000000  0.5590680000000  0.4654480000000 1.0
C      1  0.4427200000000  0.5048440000000  0.3952600000000 1.0
C      1  0.4145790000000  0.4269960000000  0.5313400000000 1.0
C      1  0.4300410000000  0.4696630000000  0.5843780000000 1.0
C      1  0.5224140000000  0.4538650000000  0.4985240000000 1.0
C      1  0.5683860000000  0.5628630000000  0.5718230000000 1.0
C      1  0.5315940000000  0.4104560000000  0.6001960000000 1.0
C      1  0.3908780000000  0.4937120000000  0.5622340000000 1.0
C      1  0.5105790000000  0.4914510000000  0.5310480000000 1.0
C      1  0.5650480000000  0.4346480000000  0.4226540000000 1.0
C      1  0.5543410000000  0.4919930000000  0.5550170000000 1.0
C      1  0.5705960000000  0.5140370000000  0.5597220000000 1.0
C      1  0.6062280000000  0.4908260000000  0.3147660000000 1.0
C      1  0.5054990000000  0.5190440000000  0.6324870000000 1.0
C      1  0.5656050000000  0.4913320000000  0.3843170000000 1.0
C      1  0.5374540000000  0.5537560000000  0.5341590000000 1.0
C      1  0.5608880000000  0.6117300000000  0.4943150000000 1.0
C      1  0.4117480000000  0.5759320000000  0.4403180000000 1.0
C      1  0.5307250000000  0.4427120000000  0.5233560000000 1.0
C      1  0.4710480000000  0.6280170000000  0.5049540000000 1.0
C      1  0.4806370000000  0.5308680000000  0.4051620000000 1.0
C      1  0.4147170000000  0.5179060000000  0.4977610000000 1.0
C      1  0.5557930000000  0.3931710000000  0.5181840000000 1.0
C      1  0.5745520000000  0.5243320000000  0.5341830000000 1.0
C      1  0.4904060000000  0.3909930000000  0.4301060000000 1.0
C      1  0.4625290000000  0.4308490000000  0.5324480000000 1.0
C      1  0.5716450000000  0.4099900000000  0.5010530000000 1.0
C      1  0.5257160000000  0.4539560000000  0.4002870000000 1.0
C      1  0.5868130000000  0.4757970000000  0.5856980000000 1.0
C      1  0.4844990000000  0.4751430000000  0.5878600000000 1.0
C      1  0.4117640000000  0.5773820000000  0.5827570000000 1.0
C      1  0.4731000000000  0.4364940000000  0.4847590000000 1.0
C      1  0.4706730000000  0.4983760000000  0.5783790000000 1.0
C      1  0.4193050000000  0.4188510000000  0.4503610000000 1.0
C      1  0.5089900000000  0.4014470000000  0.5363290000000 1.0
C      1  0.4381900000000  0.5019520000000  0.5440600000000 1.0
C      1  0.4574230000000  0.5277740000000  0.4690060000000 1.0
C      1  0.6223080000000  0.4888540000000  0.5238530000000 1.0
C      1  0.4483000000000  0.4295410000000  0.4135450000000 1.0
C      1  0.5142260000000  0.6349500000000  0.5316780000000 1.0
C      1  0.4464620000000  0.5340240000000  0.6245960000000 1.0
C      1  0.5007250000000  0.4962170000000  0.4605040000000 1.0
C      1  0.4225440000000  0.4076510000000  0.4763210000000 1.0
C      1  0.4982630000000  0.3727030000000  0.4750250000000 1.0
C      1  0.5258320000000  0.4809060000000  0.4554880000000 1.0
C      1  0.4527740000000  0.6224230000000  0.5260280000000 1.0
C      1  0.4643800000000  0.6180190000000  0.4788760000000 1.0
C      1  0.4707260000000  0.5373060000000  0.5452420000000 1.0
C      1  0.5156480000000  0.5863070000000  0.4337860000000 1.0
C      1  0.5053590000000  0.5336340000000  0.5072340000000 1.0
C      1  0.4306480000000  0.5962850000000  0.4004670000000 1.0
C      1  0.5380130000000  0.4910120000000  0.4312850000000 1.0
C      1  0.4620740000000  0.5361400000000  0.4943300000000 1.0
C      1  0.4327980000000  0.4801320000000  0.4751490000000 1.0
C      1  0.5400110000000  0.4671850000000  0.5949200000000 1.0
C      1  0.4752920000000  0.3912950000000  0.4067590000000 1.0
C      1  0.4697770000000  0.5044920000000  0.4034970000000 1.0
C      1  0.5850460000000  0.5621110000000  0.4146050000000 1.0
C      1  0.5003550000000  0.4418050000000  0.4360610000000 1.0
C      1  0.5287930000000  0.6229910000000  0.5513520000000 1.0
C      1  0.4830330000000  0.5563060000000  0.4132480000000 1.0
C      1  0.4548250000000  0.5075750000000  0.6202570000000 1.0
C      1  0.5799520000000  0.5725810000000  0.5383740000000 1.0
C      1  0.5241680000000  0.4028880000000  0.4168530000000 1.0
C      1  0.5372730000000  0.5856350000000  0.4156950000000 1.0
C      1  0.5027160000000  0.5376200000000  0.6526560000000 1.0
C      1  0.6123240000000  0.5077530000000  0.4716870000000 1.0
C      1  0.4350010000000  0.5752290000000  0.5374760000000 1.0
C      1  0.5391220000000  0.4697500000000  0.4803770000000 1.0
C      1  0.4830070000000  0.5010760000000  0.6274610000000 1.0
C      1  0.5267190000000  0.3899050000000  0.5151010000000 1.0
C      1  0.6241810000000  0.5272520000000  0.4905380000000 1.0
C      1  0.5209650000000  0.5123990000000  0.4196660000000 1.0
C      1  0.4821790000000  0.4781760000000  0.5288780000000 1.0
C      1  0.5177900000000  0.3887570000000  0.4877390000000 1.0
C      1  0.5848050000000  0.5143420000000  0.4745780000000 1.0
C      1  0.5434230000000  0.4729900000000  0.3877810000000 1.0
C      1  0.4534390000000  0.6021150000000  0.4577420000000 1.0
C      1  0.4121030000000  0.4241230000000  0.5003700000000 1.0
C      1  0.5254160000000  0.5334380000000  0.4407510000000 1.0
C      1  0.4285630000000  0.5668400000000  0.5094030000000 1.0
C      1  0.5675100000000  0.5327220000000  0.5818810000000 1.0
C      1  0.4961120000000  0.6414430000000  0.5105210000000 1.0
C      1  0.5001400000000  0.4603670000000  0.4138070000000 1.0
C      1  0.4526970000000  0.4898760000000  0.5221150000000 1.0
C      1  0.5083690000000  0.4299930000000  0.5349360000000 1.0
C      1  0.4164410000000  0.5492050000000  0.3994820000000 1.0
C      1  0.5794180000000  0.4908090000000  0.3599770000000 1.0
C      1  0.4784210000000  0.5292480000000  0.5173870000000 1.0
C      1  0.5528810000000  0.4168450000000  0.5852900000000 1.0
C      1  0.4363230000000  0.5628220000000  0.5831400000000 1.0
C      1  0.5065110000000  0.5246240000000  0.4604940000000 1.0
C      1  0.6194390000000  0.4653930000000  0.4918560000000 1.0
C      1  0.4388750000000  0.4218360000000  0.5438400000000 1.0
C      1  0.4779420000000  0.3834780000000  0.4566820000000 1.0
C      1  0.6005260000000  0.5325440000000  0.5288370000000 1.0
C      1  0.4075440000000  0.4663320000000  0.4721520000000 1.0
C      1  0.4672450000000  0.5989670000000  0.4324960000000 1.0
C      1  0.4971860000000  0.5915290000000  0.5590780000000 1.0
C      1  0.6158640000000  0.4793400000000  0.4678010000000 1.0
C      1  0.6101600000000  0.5556320000000  0.4902390000000 1.0
C      1  0.3806720000000  0.5631340000000  0.5469490000000 1.0
C      1  0.5865310000000  0.5359820000000  0.4024100000000 1.0
C      1  0.4238840000000  0.5240250000000  0.3943680000000 1.0
C      1  0.4606890000000  0.3726990000000  0.5208590000000 1.0
C      1  0.5369840000000  0.3798860000000  0.4109390000000 1.0
C      1  0.5052480000000  0.4060160000000  0.5990600000000 1.0
C      1  0.4109610000000  0.5413710000000  0.5138750000000 1.0
C      1  0.4179540000000  0.5742060000000  0.4123870000000 1.0
C      1  0.4069800000000  0.4699000000000  0.5645440000000 1.0
C      1  0.5862740000000  0.4486900000000  0.4324840000000 1.0
C      1  0.3856730000000  0.5349950000000  0.4590860000000 1.0
C      1  0.4400350000000  0.6030920000000  0.5399170000000 1.0
C      1  0.3965700000000  0.4327330000000  0.4408310000000 1.0
C      1  0.3962440000000  0.5174850000000  0.4762160000000 1.0
C      1  0.5802990000000  0.4368900000000  0.4967540000000 1.0
C      1  0.4588070000000  0.4441060000000  0.4611960000000 1.0
C      1  0.4771270000000  0.4861480000000  0.4475330000000 1.0
C      1  0.4434360000000  0.4436590000000  0.5890320000000 1.0
C      1  0.5535730000000  0.4395660000000  0.5402920000000 1.0
C      1  0.5216270000000  0.5875820000000  0.4610630000000 1.0
C      1  0.4528700000000  0.6082780000000  0.4098890000000 1.0
C      1  0.6038200000000  0.4647800000000  0.4458410000000 1.0
C      1  0.5990940000000  0.5687080000000  0.4390670000000 1.0
C      1  0.4886260000000  0.5806880000000  0.4266220000000 1.0
C      1  0.3945440000000  0.4589190000000  0.4481270000000 1.0
C      1  0.4441370000000  0.5509170000000  0.5553320000000 1.0
C      1  0.5308870000000  0.5186480000000  0.6182840000000 1.0
C      1  0.5255850000000  0.5788080000000  0.4872220000000 1.0
C      1  0.5929100000000  0.4907810000000  0.3371770000000 1.0
C      1  0.5251170000000  0.4103980000000  0.4710890000000 1.0
C      1  0.5619980000000  0.5777250000000  0.4090670000000 1.0
C      1  0.3837950000000  0.5149560000000  0.5470620000000 1.0
C      1  0.5244270000000  0.5987910000000  0.5661050000000 1.0
C      1  0.4849250000000  0.4482980000000  0.5427130000000 1.0
C      1  0.4455650000000  0.4948060000000  0.5942600000000 1.0
C      1  0.4272640000000  0.5891890000000  0.4610070000000 1.0
C      1  0.4962340000000  0.4509400000000  0.4899190000000 1.0
C      1  0.4438970000000  0.4302420000000  0.4411740000000 1.0
C      1  0.5651190000000  0.3939400000000  0.5449420000000 1.0
C      1  0.5473360000000  0.5894120000000  0.5023670000000 1.0
C      1  0.3888660000000  0.4619170000000  0.5182860000000 1.0
C      1  0.4573360000000  0.5635130000000  0.4998050000000 1.0
C      1  0.5542780000000  0.5755380000000  0.5257660000000 1.0
C      1  0.4955850000000  0.4567300000000  0.5707420000000 1.0
C      1  0.6210480000000  0.5159600000000  0.5177580000000 1.0
C      1  0.5435720000000  0.4946440000000  0.4955660000000 1.0
C      1  0.5988280000000  0.4676240000000  0.5625180000000 1.0
C      1  0.4660610000000  0.4198020000000  0.5063480000000 1.0
C      1  0.4897560000000  0.3909890000000  0.5558020000000 1.0
C      1  0.3892810000000  0.5773580000000  0.5680530000000 1.0
C      1  0.5625250000000  0.4850390000000  0.5988760000000 1.0
C      1  0.4015440000000  0.4514190000000  0.5421670000000 1.0
C      1  0.4181110000000  0.5847910000000  0.4878970000000 1.0
C      1  0.4901610000000  0.4763470000000  0.6154610000000 1.0
C      1  0.4587340000000  0.4104430000000  0.3978730000000 1.0
C      1  0.5061530000000  0.5621500000000  0.4995060000000 1.0
C      1  0.4555260000000  0.4725310000000  0.4601360000000 1.0
C      1  0.5545600000000  0.5313720000000  0.4448200000000 1.0
C      1  0.5744370000000  0.5100250000000  0.4048130000000 1.0
C      1  0.4835650000000  0.4052280000000  0.5808440000000 1.0
C      1  0.5258450000000  0.5117400000000  0.5126680000000 1.0
C      1  0.6004420000000  0.5603260000000  0.5195370000000 1.0
C      1  0.5254310000000  0.5533190000000  0.5603350000000 1.0
C      1  0.4605640000000  0.3924420000000  0.5011310000000 1.0
C      1  0.4528230000000  0.3895850000000  0.4738900000000 1.0
C      1  0.5553480000000  0.5142590000000  0.6031370000000 1.0
C      1  0.5232230000000  0.4635030000000  0.5719930000000 1.0
C      1  0.4820520000000  0.5756560000000  0.5095440000000 1.0
C      1  0.4720930000000  0.3717440000000  0.5451980000000 1.0
C      1  0.5147410000000  0.4281090000000  0.4540260000000 1.0
C      1  0.4459180000000  0.5548470000000  0.6079310000000 1.0
C      1  0.5406360000000  0.5753450000000  0.5733490000000 1.0
C      1  0.4852790000000  0.5864220000000  0.5354970000000 1.0
C      1  0.6064330000000  0.4673870000000  0.5351110000000 1.0
C      1  0.5476380000000  0.5293770000000  0.5247840000000 1.0
C      1  0.3994280000000  0.4505460000000  0.4942960000000 1.0
C      1  0.4605340000000  0.4221690000000  0.5869190000000 1.0
C      1  0.5701700000000  0.5018720000000  0.4938560000000 1.0
C      1  0.5384390000000  0.4292590000000  0.4118150000000 1.0
C      1  0.6018430000000  0.4510100000000  0.5097130000000 1.0
END
