TITL C-612605-9286-348 0.173742504917863 125000 -386.852102849401 0 0 64 (C1) n - 1
REM
REM in /home/nfs/bkarasulu/CARBON/AIRSS/Generating-Clusters/TERSOFF/Only-C1/FIRE-HFTN
REM
REM
REM
REM
REM
REM ./C.cell (11c1c37f851c82e70ff6c80c92926a4b)
REM AIRSS Version 0.9.1 bugfix July 2018 build 013d7b7c2542+ Fri, 06 Jul 2018 19:26:36 +0100
REM compiler GCC version 9.2.1 20190827 (Red Hat 9.2.1-1)
REM options -cpp -mtune=generic -march=x86-64 -g -O0 -fpre-include=/usr/include/finclude/math-vector-fortran.h
REM seed 1925598380 -320889628 -1030286877 246668468 1975932100 1237502857 -1006250909 -986579266 -2050139468 63757525 -519478404 56544313 1136695642 -631465266 1678189939 528993812 -2063797020 -1789919476 389328906 1723008198 1477508584 -398683021 1694789706 943346516 -1451618617 -778995286 356594734 -1636144811 -1632807277 -2135524446 187594489 966732364 228146862
REM
CELL 1.54180   50.00000   50.00000   50.00000   90.00000   90.00000   90.00000
LATT -1
SFAC C  
C      1  0.4786630000000  0.5689430000000  0.4487120000000 1.0
C      1  0.4309650000000  0.4661080000000  0.4769500000000 1.0
C      1  0.5613230000000  0.5704650000000  0.5373230000000 1.0
C      1  0.4149640000000  0.4879930000000  0.6196770000000 1.0
C      1  0.4564850000000  0.5860900000000  0.4554310000000 1.0
C      1  0.5227520000000  0.6299060000000  0.5113020000000 1.0
C      1  0.4739960000000  0.4906210000000  0.5647670000000 1.0
C      1  0.5636100000000  0.4901030000000  0.4965100000000 1.0
C      1  0.4655880000000  0.5425680000000  0.4413130000000 1.0
C      1  0.4461910000000  0.5023030000000  0.5232690000000 1.0
C      1  0.5572070000000  0.5045880000000  0.5653720000000 1.0
C      1  0.5019140000000  0.4956900000000  0.5690770000000 1.0
C      1  0.5453530000000  0.5011320000000  0.5895920000000 1.0
C      1  0.5677450000000  0.3971430000000  0.4134690000000 1.0
C      1  0.5495530000000  0.5474480000000  0.4547160000000 1.0
C      1  0.5226710000000  0.5495870000000  0.4458860000000 1.0
C      1  0.4686580000000  0.4861120000000  0.5346220000000 1.0
C      1  0.4346100000000  0.4892320000000  0.6019380000000 1.0
C      1  0.5201720000000  0.4258590000000  0.5326690000000 1.0
C      1  0.5294840000000  0.4364660000000  0.4618480000000 1.0
C      1  0.4655690000000  0.4565050000000  0.5288040000000 1.0
C      1  0.3953100000000  0.4867460000000  0.6374180000000 1.0
C      1  0.4580400000000  0.4386490000000  0.5480550000000 1.0
C      1  0.5185760000000  0.4969410000000  0.5916940000000 1.0
C      1  0.4541620000000  0.4903230000000  0.5841070000000 1.0
C      1  0.4400530000000  0.5425170000000  0.4565690000000 1.0
C      1  0.4962940000000  0.5387900000000  0.4984530000000 1.0
C      1  0.4355060000000  0.5152380000000  0.5023800000000 1.0
C      1  0.4696990000000  0.4489440000000  0.5017300000000 1.0
C      1  0.4763580000000  0.4982880000000  0.4163980000000 1.0
C      1  0.5478440000000  0.5612890000000  0.5153130000000 1.0
C      1  0.4824650000000  0.5236500000000  0.4282600000000 1.0
C      1  0.5263060000000  0.5765500000000  0.5041760000000 1.0
C      1  0.3759790000000  0.4855210000000  0.6548670000000 1.0
C      1  0.4966870000000  0.5107030000000  0.4981410000000 1.0
C      1  0.5429160000000  0.5044480000000  0.5408160000000 1.0
C      1  0.4776760000000  0.4778490000000  0.4667440000000 1.0
C      1  0.4337240000000  0.5251020000000  0.4775570000000 1.0
C      1  0.4979580000000  0.4966380000000  0.4736060000000 1.0
C      1  0.5239670000000  0.4213350000000  0.5580520000000 1.0
C      1  0.5491480000000  0.4657660000000  0.4313920000000 1.0
C      1  0.5067820000000  0.5630260000000  0.4886860000000 1.0
C      1  0.5551110000000  0.5366300000000  0.5035460000000 1.0
C      1  0.5565960000000  0.4630220000000  0.4952250000000 1.0
C      1  0.4817370000000  0.4717560000000  0.4210540000000 1.0
C      1  0.5150440000000  0.4991860000000  0.5432750000000 1.0
C      1  0.5170450000000  0.5026920000000  0.4527390000000 1.0
C      1  0.4864140000000  0.4591740000000  0.4461550000000 1.0
C      1  0.4927170000000  0.4355400000000  0.4910060000000 1.0
C      1  0.5627700000000  0.5336680000000  0.4753340000000 1.0
C      1  0.5173830000000  0.4338150000000  0.5063280000000 1.0
C      1  0.5571880000000  0.4175400000000  0.4257860000000 1.0
C      1  0.5390720000000  0.4419580000000  0.4889250000000 1.0
C      1  0.5097510000000  0.5255620000000  0.4375260000000 1.0
C      1  0.5245990000000  0.6041050000000  0.5081300000000 1.0
C      1  0.5544830000000  0.5101570000000  0.5159400000000 1.0
C      1  0.5376080000000  0.4875260000000  0.4416470000000 1.0
C      1  0.4337580000000  0.5708380000000  0.4593710000000 1.0
C      1  0.5001990000000  0.4384640000000  0.4615260000000 1.0
C      1  0.4575440000000  0.4662470000000  0.4826840000000 1.0
C      1  0.5457820000000  0.4390360000000  0.4390890000000 1.0
C      1  0.5045080000000  0.5665370000000  0.4602890000000 1.0
C      1  0.4952830000000  0.4970270000000  0.5227280000000 1.0
C      1  0.5724840000000  0.5063430000000  0.4740400000000 1.0
END
