TITL C-612605-9286-698 0.0525855486600708 125000 -553.569308291537 0 0 92 (C1) n - 1
REM
REM in /home/nfs/bkarasulu/CARBON/AIRSS/Generating-Clusters/TERSOFF/Only-C1/FIRE-HFTN
REM
REM
REM
REM
REM
REM ./C.cell (11c1c37f851c82e70ff6c80c92926a4b)
REM AIRSS Version 0.9.1 bugfix July 2018 build 013d7b7c2542+ Fri, 06 Jul 2018 19:26:36 +0100
REM compiler GCC version 9.2.1 20190827 (Red Hat 9.2.1-1)
REM options -cpp -mtune=generic -march=x86-64 -g -O0 -fpre-include=/usr/include/finclude/math-vector-fortran.h
REM seed -13889349 1579645979 -1398376309 -1329688567 -778999872 -673244693 -1414370332 -1943472707 -1968714627 888380888 -8026909 1158577834 -2056109282 -224823228 2030097198 -1352802539 1538891308 -461343355 1829199580 -259749139 249455132 1585575945 -460572903 -960344710 1018741755 -18123516 183374688 199771596 -1237544310 379749118 -10504744 981181486 401137727
REM
CELL 1.54180   50.00000   50.00000   50.00000   90.00000   90.00000   90.00000
LATT -1
SFAC C  
C      1  0.4527580000000  0.4525810000000  0.4872570000000 1.0
C      1  0.4646860000000  0.4428830000000  0.4403350000000 1.0
C      1  0.5957240000000  0.4612850000000  0.5118810000000 1.0
C      1  0.5217890000000  0.5119630000000  0.4044330000000 1.0
C      1  0.5363770000000  0.4221170000000  0.4657450000000 1.0
C      1  0.5472950000000  0.5780500000000  0.4998760000000 1.0
C      1  0.4821080000000  0.5532230000000  0.4329770000000 1.0
C      1  0.4479690000000  0.4856400000000  0.5974390000000 1.0
C      1  0.5895570000000  0.4579890000000  0.4385870000000 1.0
C      1  0.5709300000000  0.4973680000000  0.4607800000000 1.0
C      1  0.5391990000000  0.5583110000000  0.4806590000000 1.0
C      1  0.4670510000000  0.5818320000000  0.5003300000000 1.0
C      1  0.5634120000000  0.5697910000000  0.5213420000000 1.0
C      1  0.3753080000000  0.5817530000000  0.5385020000000 1.0
C      1  0.5224090000000  0.5000340000000  0.4524200000000 1.0
C      1  0.4598770000000  0.5400870000000  0.5255930000000 1.0
C      1  0.4389460000000  0.5178240000000  0.4588390000000 1.0
C      1  0.5453010000000  0.4260490000000  0.4394580000000 1.0
C      1  0.3871380000000  0.4899830000000  0.4953530000000 1.0
C      1  0.5634330000000  0.5468920000000  0.5680620000000 1.0
C      1  0.4181860000000  0.4979900000000  0.4586680000000 1.0
C      1  0.5465070000000  0.5100890000000  0.4648060000000 1.0
C      1  0.5697480000000  0.4386100000000  0.4347080000000 1.0
C      1  0.5687150000000  0.5214320000000  0.5313170000000 1.0
C      1  0.5497780000000  0.4907900000000  0.6507220000000 1.0
C      1  0.4654950000000  0.5095880000000  0.4505250000000 1.0
C      1  0.5412800000000  0.5293190000000  0.4854670000000 1.0
C      1  0.5147300000000  0.4327790000000  0.5137120000000 1.0
C      1  0.4656440000000  0.4345260000000  0.5049410000000 1.0
C      1  0.4777120000000  0.4296700000000  0.4212920000000 1.0
C      1  0.5334910000000  0.5108230000000  0.3811770000000 1.0
C      1  0.5604570000000  0.5193110000000  0.5766370000000 1.0
C      1  0.4185380000000  0.5204510000000  0.5517580000000 1.0
C      1  0.5052920000000  0.6113340000000  0.4972190000000 1.0
C      1  0.4461280000000  0.4676730000000  0.5775460000000 1.0
C      1  0.4645120000000  0.4598860000000  0.4624370000000 1.0
C      1  0.5596240000000  0.4754520000000  0.5471050000000 1.0
C      1  0.4408790000000  0.5286610000000  0.5400910000000 1.0
C      1  0.4981410000000  0.6157040000000  0.4699110000000 1.0
C      1  0.5675290000000  0.5492480000000  0.5394740000000 1.0
C      1  0.4885060000000  0.4420980000000  0.5201360000000 1.0
C      1  0.4768230000000  0.4851920000000  0.4610770000000 1.0
C      1  0.4594620000000  0.5857080000000  0.4725180000000 1.0
C      1  0.5102720000000  0.5124500000000  0.4297090000000 1.0
C      1  0.4615420000000  0.4587510000000  0.5576300000000 1.0
C      1  0.5831140000000  0.3749620000000  0.5560830000000 1.0
C      1  0.4745940000000  0.5550180000000  0.5073290000000 1.0
C      1  0.3957620000000  0.5132660000000  0.5622130000000 1.0
C      1  0.4860220000000  0.4579700000000  0.5438970000000 1.0
C      1  0.4825110000000  0.6029090000000  0.5128720000000 1.0
C      1  0.3456720000000  0.5499640000000  0.5190710000000 1.0
C      1  0.4308270000000  0.5442160000000  0.4676950000000 1.0
C      1  0.4055080000000  0.4917360000000  0.4351950000000 1.0
C      1  0.5997390000000  0.3559530000000  0.5625560000000 1.0
C      1  0.3700510000000  0.5624010000000  0.5198580000000 1.0
C      1  0.5499390000000  0.4140360000000  0.5426620000000 1.0
C      1  0.4976130000000  0.5451030000000  0.4943110000000 1.0
C      1  0.4832570000000  0.5951130000000  0.4574660000000 1.0
C      1  0.5033950000000  0.4880400000000  0.4707380000000 1.0
C      1  0.6106660000000  0.4609100000000  0.4206260000000 1.0
C      1  0.5621930000000  0.5028430000000  0.5526700000000 1.0
C      1  0.5069480000000  0.4967030000000  0.4974960000000 1.0
C      1  0.5159440000000  0.5232700000000  0.5005220000000 1.0
C      1  0.4975000000000  0.5707110000000  0.4501720000000 1.0
C      1  0.4551780000000  0.5625020000000  0.4311380000000 1.0
C      1  0.5342180000000  0.4354330000000  0.5343690000000 1.0
C      1  0.4286320000000  0.4655150000000  0.4931150000000 1.0
C      1  0.3898640000000  0.5551850000000  0.5014570000000 1.0
C      1  0.4849130000000  0.5250260000000  0.4349900000000 1.0
C      1  0.5066790000000  0.4917570000000  0.5735730000000 1.0
C      1  0.4109040000000  0.4847410000000  0.4829230000000 1.0
C      1  0.5094360000000  0.4711410000000  0.5548120000000 1.0
C      1  0.4760140000000  0.6138280000000  0.5369940000000 1.0
C      1  0.4096750000000  0.5476390000000  0.4855990000000 1.0
C      1  0.5818410000000  0.4635520000000  0.5344680000000 1.0
C      1  0.4468550000000  0.3840960000000  0.5097150000000 1.0
C      1  0.5874840000000  0.4747590000000  0.4614400000000 1.0
C      1  0.4927730000000  0.5039790000000  0.5928460000000 1.0
C      1  0.5112510000000  0.5601730000000  0.4724390000000 1.0
C      1  0.5981570000000  0.4663470000000  0.4859030000000 1.0
C      1  0.5273070000000  0.4204920000000  0.4187280000000 1.0
C      1  0.5544210000000  0.5006870000000  0.6270560000000 1.0
C      1  0.5350380000000  0.4610700000000  0.5471060000000 1.0
C      1  0.4435480000000  0.5672210000000  0.4569170000000 1.0
C      1  0.5580890000000  0.5104580000000  0.6027050000000 1.0
C      1  0.4683980000000  0.5019300000000  0.6039510000000 1.0
C      1  0.5662700000000  0.3943340000000  0.5494860000000 1.0
C      1  0.5014500000000  0.4215560000000  0.4123470000000 1.0
C      1  0.4556960000000  0.4085050000000  0.5074590000000 1.0
C      1  0.6304720000000  0.4639360000000  0.4039610000000 1.0
C      1  0.5312450000000  0.6013540000000  0.5022790000000 1.0
C      1  0.5226820000000  0.4244720000000  0.4883360000000 1.0
END
