TITL C-612604-1799-793 0.254350127445932 125000 -535.390787244764 0 0 90 (C1) n - 1
REM
REM in /home/nfs/bkarasulu/CARBON/AIRSS/Generating-Clusters/TERSOFF/Only-C1/FIRE-HFTN
REM
REM
REM
REM
REM
REM ./C.cell (11c1c37f851c82e70ff6c80c92926a4b)
REM AIRSS Version 0.9.1 bugfix July 2018 build 013d7b7c2542+ Fri, 06 Jul 2018 19:26:36 +0100
REM compiler GCC version 9.2.1 20190827 (Red Hat 9.2.1-1)
REM options -cpp -mtune=generic -march=x86-64 -g -O0 -fpre-include=/usr/include/finclude/math-vector-fortran.h
REM seed 1246201482 -704025914 408079035 -1978495251 -665084507 -1009208589 -24290956 1679757208 -1830465158 267125518 8003923 2017972129 2042521627 -1251778783 1054542176 15464756 -1986984109 613557815 -153722151 -459965913 1039323107 -6220600 -533849625 -1411572842 -2029555206 -1646940645 -1224430098 50806715 -1143585062 -1952232840 681814043 -478019747 1108342839
REM
CELL 1.54180   50.00000   50.00000   50.00000   90.00000   90.00000   90.00000
LATT -1
SFAC C  
C      1  0.4533740000000  0.4227790000000  0.5065960000000 1.0
C      1  0.5092140000000  0.5354950000000  0.5685620000000 1.0
C      1  0.5832230000000  0.4597730000000  0.5089540000000 1.0
C      1  0.4683520000000  0.5837980000000  0.5775710000000 1.0
C      1  0.4889590000000  0.5379150000000  0.4332400000000 1.0
C      1  0.4383840000000  0.5075800000000  0.5724030000000 1.0
C      1  0.4320120000000  0.5244080000000  0.4388750000000 1.0
C      1  0.4829550000000  0.5117490000000  0.5428280000000 1.0
C      1  0.5400560000000  0.5198000000000  0.4294340000000 1.0
C      1  0.5729100000000  0.4844160000000  0.4471920000000 1.0
C      1  0.5250010000000  0.5879690000000  0.5658220000000 1.0
C      1  0.4118480000000  0.4787150000000  0.3858010000000 1.0
C      1  0.5198250000000  0.5575810000000  0.4944390000000 1.0
C      1  0.5397410000000  0.4371870000000  0.4726800000000 1.0
C      1  0.4365840000000  0.4836140000000  0.5587390000000 1.0
C      1  0.5226220000000  0.5312920000000  0.4982830000000 1.0
C      1  0.4206730000000  0.4440510000000  0.4570750000000 1.0
C      1  0.4549490000000  0.5583180000000  0.5853190000000 1.0
C      1  0.4591940000000  0.5757600000000  0.5183860000000 1.0
C      1  0.5484950000000  0.4668030000000  0.5532060000000 1.0
C      1  0.5496660000000  0.4268580000000  0.5292700000000 1.0
C      1  0.4721630000000  0.5674890000000  0.4713510000000 1.0
C      1  0.5190700000000  0.5045890000000  0.5056660000000 1.0
C      1  0.4458440000000  0.4478390000000  0.4627640000000 1.0
C      1  0.5767540000000  0.4872210000000  0.5156330000000 1.0
C      1  0.5805610000000  0.5071810000000  0.4956090000000 1.0
C      1  0.3815520000000  0.4523370000000  0.3518810000000 1.0
C      1  0.5777970000000  0.4373910000000  0.5257070000000 1.0
C      1  0.4948460000000  0.5567820000000  0.5538060000000 1.0
C      1  0.4231220000000  0.5351100000000  0.5048480000000 1.0
C      1  0.4929760000000  0.5119810000000  0.4206920000000 1.0
C      1  0.5446730000000  0.5671010000000  0.5602200000000 1.0
C      1  0.3965780000000  0.4654380000000  0.3686800000000 1.0
C      1  0.5361500000000  0.5415760000000  0.5740380000000 1.0
C      1  0.5750840000000  0.5358640000000  0.4952830000000 1.0
C      1  0.5088190000000  0.4482970000000  0.4288200000000 1.0
C      1  0.4859870000000  0.4574290000000  0.5124540000000 1.0
C      1  0.4380100000000  0.4611000000000  0.5428330000000 1.0
C      1  0.5834450000000  0.4959950000000  0.4690970000000 1.0
C      1  0.4793970000000  0.5428760000000  0.4599200000000 1.0
C      1  0.5538920000000  0.4659070000000  0.4373650000000 1.0
C      1  0.4286650000000  0.5535690000000  0.4840470000000 1.0
C      1  0.4270750000000  0.4916380000000  0.4031970000000 1.0
C      1  0.4973040000000  0.4839220000000  0.5771200000000 1.0
C      1  0.4782750000000  0.4792910000000  0.4492520000000 1.0
C      1  0.5796920000000  0.5357670000000  0.5602490000000 1.0
C      1  0.5652020000000  0.4487880000000  0.5706860000000 1.0
C      1  0.4446970000000  0.5328960000000  0.5816250000000 1.0
C      1  0.4676240000000  0.4125490000000  0.4850560000000 1.0
C      1  0.4755370000000  0.4839940000000  0.5094080000000 1.0
C      1  0.4760260000000  0.5187310000000  0.4754720000000 1.0
C      1  0.5602210000000  0.5264100000000  0.5774810000000 1.0
C      1  0.4923710000000  0.4983250000000  0.4646940000000 1.0
C      1  0.4528280000000  0.6009670000000  0.5607740000000 1.0
C      1  0.5550850000000  0.4407760000000  0.4507410000000 1.0
C      1  0.4962950000000  0.5103940000000  0.5676910000000 1.0
C      1  0.4450730000000  0.5204630000000  0.5141880000000 1.0
C      1  0.4517170000000  0.5703560000000  0.4907510000000 1.0
C      1  0.5668760000000  0.5431950000000  0.4682760000000 1.0
C      1  0.4431640000000  0.5035560000000  0.4227100000000 1.0
C      1  0.4430080000000  0.4401120000000  0.5255600000000 1.0
C      1  0.5292540000000  0.4818890000000  0.4917250000000 1.0
C      1  0.5689760000000  0.5573290000000  0.5438120000000 1.0
C      1  0.5212820000000  0.4558860000000  0.4825580000000 1.0
C      1  0.4960220000000  0.4271180000000  0.4414860000000 1.0
C      1  0.4940860000000  0.4613080000000  0.5622460000000 1.0
C      1  0.5612320000000  0.4885900000000  0.5395510000000 1.0
C      1  0.5540460000000  0.5359820000000  0.4457110000000 1.0
C      1  0.4733520000000  0.5557620000000  0.5341400000000 1.0
C      1  0.4599690000000  0.5046680000000  0.4958500000000 1.0
C      1  0.4256250000000  0.5429190000000  0.4575620000000 1.0
C      1  0.5717260000000  0.5576970000000  0.5152100000000 1.0
C      1  0.4965440000000  0.4997730000000  0.5217380000000 1.0
C      1  0.5027110000000  0.4525080000000  0.5363080000000 1.0
C      1  0.4831750000000  0.4079760000000  0.4601760000000 1.0
C      1  0.5878450000000  0.4419070000000  0.5529480000000 1.0
C      1  0.5340890000000  0.5803690000000  0.4951950000000 1.0
C      1  0.5598000000000  0.5811130000000  0.5036970000000 1.0
C      1  0.5524670000000  0.4231680000000  0.5762550000000 1.0
C      1  0.4862650000000  0.3812570000000  0.4532530000000 1.0
C      1  0.4931510000000  0.4507610000000  0.4854170000000 1.0
C      1  0.4701250000000  0.4941590000000  0.4258660000000 1.0
C      1  0.4498630000000  0.5975840000000  0.5339340000000 1.0
C      1  0.5270230000000  0.4717370000000  0.4267970000000 1.0
C      1  0.5469350000000  0.4093880000000  0.5526670000000 1.0
C      1  0.4964920000000  0.5816270000000  0.5684770000000 1.0
C      1  0.5312370000000  0.4495750000000  0.5354080000000 1.0
C      1  0.4628140000000  0.5297100000000  0.5341470000000 1.0
C      1  0.4723470000000  0.4567880000000  0.4649510000000 1.0
C      1  0.5200540000000  0.5003910000000  0.4225930000000 1.0
END
