TITL C-612601-4209-1121 -0.0353002700544439 125000 -128.607862169899 0 0 22 (C1) n - 1
REM
REM in /home/nfs/bkarasulu/CARBON/AIRSS/Generating-Clusters/TERSOFF/Only-C1/FIRE-HFTN
REM
REM
REM
REM
REM
REM ./C.cell (11c1c37f851c82e70ff6c80c92926a4b)
REM AIRSS Version 0.9.1 bugfix July 2018 build 013d7b7c2542+ Fri, 06 Jul 2018 19:26:36 +0100
REM compiler GCC version 9.2.1 20190827 (Red Hat 9.2.1-1)
REM options -cpp -mtune=generic -march=x86-64 -g -O0 -fpre-include=/usr/include/finclude/math-vector-fortran.h
REM seed 1661022767 327761721 -1920525019 -936870980 1981832537 1599409393 48627189 65185473 -297445925 -1574264307 -652347232 -510135383 1545932541 -1248303964 2039107321 -825091561 -1942032545 1539609011 -1907627473 -1671428359 -284251703 56776347 1403907532 300798268 -1471667297 1573955536 919663453 1331519636 1750186772 41015049 -1443358099 -266262506 1439315923
REM
CELL 1.54180   50.00000   50.00000   50.00000   90.00000   90.00000   90.00000
LATT -1
SFAC C  
C      1  0.5042310000000  0.5624050000000  0.4604970000000 1.0
C      1  0.5096230000000  0.5493450000000  0.5304940000000 1.0
C      1  0.5098960000000  0.5867080000000  0.4697920000000 1.0
C      1  0.4911810000000  0.4708160000000  0.4992100000000 1.0
C      1  0.4570480000000  0.4459540000000  0.5287790000000 1.0
C      1  0.5225300000000  0.4344600000000  0.5205610000000 1.0
C      1  0.4991940000000  0.5198810000000  0.4875590000000 1.0
C      1  0.4667650000000  0.4638970000000  0.5114340000000 1.0
C      1  0.5134120000000  0.4550040000000  0.5061580000000 1.0
C      1  0.4915970000000  0.5232940000000  0.4142690000000 1.0
C      1  0.5352890000000  0.3966440000000  0.5481600000000 1.0
C      1  0.5149230000000  0.5753520000000  0.5336680000000 1.0
C      1  0.5172690000000  0.5969710000000  0.5179970000000 1.0
C      1  0.5164170000000  0.4140380000000  0.5389710000000 1.0
C      1  0.5039970000000  0.5301460000000  0.5129190000000 1.0
C      1  0.4898490000000  0.4913090000000  0.4527640000000 1.0
C      1  0.4932210000000  0.4921150000000  0.4813700000000 1.0
C      1  0.4895190000000  0.4127530000000  0.5472770000000 1.0
C      1  0.4992960000000  0.5351490000000  0.4626780000000 1.0
C      1  0.5151100000000  0.6012270000000  0.4916210000000 1.0
C      1  0.4933990000000  0.5171880000000  0.4406030000000 1.0
C      1  0.4662340000000  0.4253440000000  0.5432200000000 1.0
END
