TITL C-612602-9376-1395 -2.96600647025549e-05 125000 -192.515297524455 0 0 34 (C1) n - 1
REM
REM in /home/nfs/bkarasulu/CARBON/AIRSS/Generating-Clusters/TERSOFF/Only-C1/FIRE-HFTN
REM
REM
REM
REM
REM
REM ./C.cell (11c1c37f851c82e70ff6c80c92926a4b)
REM AIRSS Version 0.9.1 bugfix July 2018 build 013d7b7c2542+ Fri, 06 Jul 2018 19:26:36 +0100
REM compiler GCC version 9.2.1 20190827 (Red Hat 9.2.1-1)
REM options -cpp -mtune=generic -march=x86-64 -g -O0 -fpre-include=/usr/include/finclude/math-vector-fortran.h
REM seed -612417827 1776181628 1501464360 -1114518212 -2005944132 -1855114274 491494069 -212611951 -1246931465 458684706 1516275987 737851082 594820210 1661864204 -1362710096 -451958782 2085581848 -1980265637 -1976539172 -1274467199 5864931 -1134982203 1406522193 1556246201 -1635996704 -1658441622 -1012246375 2040641882 -46805861 -561307371 -750880846 -1149342835 -105124235
REM
CELL 1.54180   50.00000   50.00000   50.00000   90.00000   90.00000   90.00000
LATT -1
SFAC C  
C      1  0.5303170000000  0.4841040000000  0.5523830000000 1.0
C      1  0.4830270000000  0.5012010000000  0.5553610000000 1.0
C      1  0.5400650000000  0.5411210000000  0.4624140000000 1.0
C      1  0.4370880000000  0.5044540000000  0.4692810000000 1.0
C      1  0.5156220000000  0.5647880000000  0.5130900000000 1.0
C      1  0.4828920000000  0.5327600000000  0.5204660000000 1.0
C      1  0.4121910000000  0.5029140000000  0.4768220000000 1.0
C      1  0.4908270000000  0.5541770000000  0.5041030000000 1.0
C      1  0.4916020000000  0.4573100000000  0.4712840000000 1.0
C      1  0.4792800000000  0.4818140000000  0.4631750000000 1.0
C      1  0.4856720000000  0.4404620000000  0.5257590000000 1.0
C      1  0.5284740000000  0.4598820000000  0.5371710000000 1.0
C      1  0.4749710000000  0.5324130000000  0.4573660000000 1.0
C      1  0.5347370000000  0.5524570000000  0.5279110000000 1.0
C      1  0.5769620000000  0.4970830000000  0.5521060000000 1.0
C      1  0.5291890000000  0.4807930000000  0.4889670000000 1.0
C      1  0.4781830000000  0.5288740000000  0.5484630000000 1.0
C      1  0.5256570000000  0.5265170000000  0.4785550000000 1.0
C      1  0.4833130000000  0.4330840000000  0.4602330000000 1.0
C      1  0.4909860000000  0.5062050000000  0.5098730000000 1.0
C      1  0.5149480000000  0.5050680000000  0.4932460000000 1.0
C      1  0.4793500000000  0.5393580000000  0.4306070000000 1.0
C      1  0.4843930000000  0.5454030000000  0.4057650000000 1.0
C      1  0.5443170000000  0.5302320000000  0.5396310000000 1.0
C      1  0.4686660000000  0.4613980000000  0.5284830000000 1.0
C      1  0.5119660000000  0.4469650000000  0.5173790000000 1.0
C      1  0.4644120000000  0.5061070000000  0.4630950000000 1.0
C      1  0.5558720000000  0.4795270000000  0.4835330000000 1.0
C      1  0.4809420000000  0.5516580000000  0.4776270000000 1.0
C      1  0.5507100000000  0.5038460000000  0.5479880000000 1.0
C      1  0.4779580000000  0.4878130000000  0.5293170000000 1.0
C      1  0.5071280000000  0.4922170000000  0.5669740000000 1.0
C      1  0.4753900000000  0.4101080000000  0.4508300000000 1.0
C      1  0.5128920000000  0.4578880000000  0.4907410000000 1.0
END
