TITL C-612602-9376-705 9.62977057184354e-05 125000 -1037.51364977321 0 0 167 (C1) n - 1
REM
REM in /home/nfs/bkarasulu/CARBON/AIRSS/Generating-Clusters/TERSOFF/Only-C1/FIRE-HFTN
REM
REM
REM
REM
REM
REM ./C.cell (11c1c37f851c82e70ff6c80c92926a4b)
REM AIRSS Version 0.9.1 bugfix July 2018 build 013d7b7c2542+ Fri, 06 Jul 2018 19:26:36 +0100
REM compiler GCC version 9.2.1 20190827 (Red Hat 9.2.1-1)
REM options -cpp -mtune=generic -march=x86-64 -g -O0 -fpre-include=/usr/include/finclude/math-vector-fortran.h
REM seed 514124919 -1967386007 376730475 284460556 -1022143600 145297087 386593858 -1058855397 -2023653506 898097759 675441024 -502482444 1965432827 -902981510 -917216798 -150186101 -881666585 1944341594 555133839 -1072291260 -433078896 -1114017378 2009626883 36982193 1923373011 1660087042 537385999 -524794150 -1698283305 -1023647941 -2143185287 1322597244 -2011286724
REM
CELL 1.54180   50.00000   50.00000   50.00000   90.00000   90.00000   90.00000
LATT -1
SFAC C  
C      1  0.3826150000000  0.4983130000000  0.4819400000000 1.0
C      1  0.5401350000000  0.5031280000000  0.5081420000000 1.0
C      1  0.4947700000000  0.6018990000000  0.5341520000000 1.0
C      1  0.4738040000000  0.4616160000000  0.4565150000000 1.0
C      1  0.6036100000000  0.5379700000000  0.5484420000000 1.0
C      1  0.4958310000000  0.5834850000000  0.5556470000000 1.0
C      1  0.5586390000000  0.4915970000000  0.4915900000000 1.0
C      1  0.3940130000000  0.5157650000000  0.5036240000000 1.0
C      1  0.4887000000000  0.4451920000000  0.5299490000000 1.0
C      1  0.4767240000000  0.5516490000000  0.4845600000000 1.0
C      1  0.4730010000000  0.6204290000000  0.5349950000000 1.0
C      1  0.3802480000000  0.4571970000000  0.5057180000000 1.0
C      1  0.5923760000000  0.5532200000000  0.4494550000000 1.0
C      1  0.4694360000000  0.6491460000000  0.4612280000000 1.0
C      1  0.6257400000000  0.4599140000000  0.5579760000000 1.0
C      1  0.6085620000000  0.5111960000000  0.5070010000000 1.0
C      1  0.4188130000000  0.5761140000000  0.4470400000000 1.0
C      1  0.5605700000000  0.5196540000000  0.4527420000000 1.0
C      1  0.4254420000000  0.6544890000000  0.4862660000000 1.0
C      1  0.4294480000000  0.5515750000000  0.5382050000000 1.0
C      1  0.6457480000000  0.5070850000000  0.4537190000000 1.0
C      1  0.4142410000000  0.4703490000000  0.5671880000000 1.0
C      1  0.5239460000000  0.5527230000000  0.5854120000000 1.0
C      1  0.4069500000000  0.5303420000000  0.4590360000000 1.0
C      1  0.5699630000000  0.5354980000000  0.5840880000000 1.0
C      1  0.4646470000000  0.4514280000000  0.5158090000000 1.0
C      1  0.5170330000000  0.5452960000000  0.4495270000000 1.0
C      1  0.5102600000000  0.5533450000000  0.6319840000000 1.0
C      1  0.4680360000000  0.5008760000000  0.4060660000000 1.0
C      1  0.6309180000000  0.4350310000000  0.5494820000000 1.0
C      1  0.4587290000000  0.6365180000000  0.4385700000000 1.0
C      1  0.4567920000000  0.5482310000000  0.5464260000000 1.0
C      1  0.5373810000000  0.4315660000000  0.4590700000000 1.0
C      1  0.5732120000000  0.4603330000000  0.5245960000000 1.0
C      1  0.4264860000000  0.4380730000000  0.4128700000000 1.0
C      1  0.4948440000000  0.4945980000000  0.3969150000000 1.0
C      1  0.5982510000000  0.4217240000000  0.4866440000000 1.0
C      1  0.5763600000000  0.5472430000000  0.6079450000000 1.0
C      1  0.4163330000000  0.5276830000000  0.5489310000000 1.0
C      1  0.5325640000000  0.3848950000000  0.4794890000000 1.0
C      1  0.4776610000000  0.5754230000000  0.4053480000000 1.0
C      1  0.4008020000000  0.6103690000000  0.4779370000000 1.0
C      1  0.5231240000000  0.3817260000000  0.5360270000000 1.0
C      1  0.5032420000000  0.5733990000000  0.4125840000000 1.0
C      1  0.4051180000000  0.4608220000000  0.5212190000000 1.0
C      1  0.6096170000000  0.4867840000000  0.5213120000000 1.0
C      1  0.4728360000000  0.5673880000000  0.5582620000000 1.0
C      1  0.5777030000000  0.4071050000000  0.4741840000000 1.0
C      1  0.4007680000000  0.4408090000000  0.4205850000000 1.0
C      1  0.3877560000000  0.4624200000000  0.4303710000000 1.0
C      1  0.6098070000000  0.5584270000000  0.4981920000000 1.0
C      1  0.4492970000000  0.5861790000000  0.5100260000000 1.0
C      1  0.4688940000000  0.4213320000000  0.5700660000000 1.0
C      1  0.5071160000000  0.4853570000000  0.4799830000000 1.0
C      1  0.4538770000000  0.4811570000000  0.4652170000000 1.0
C      1  0.4933010000000  0.4319000000000  0.6491980000000 1.0
C      1  0.4406970000000  0.4681680000000  0.5785120000000 1.0
C      1  0.4776010000000  0.5006720000000  0.5905010000000 1.0
C      1  0.5469830000000  0.4796230000000  0.4005270000000 1.0
C      1  0.5874490000000  0.4761870000000  0.4338500000000 1.0
C      1  0.4426580000000  0.5440600000000  0.4210740000000 1.0
C      1  0.4656480000000  0.5227780000000  0.5399350000000 1.0
C      1  0.4576240000000  0.4027700000000  0.4990300000000 1.0
C      1  0.5183280000000  0.6287610000000  0.4746160000000 1.0
C      1  0.5127630000000  0.3743480000000  0.4339950000000 1.0
C      1  0.4598240000000  0.5280950000000  0.4895860000000 1.0
C      1  0.4434700000000  0.6168810000000  0.4292360000000 1.0
C      1  0.5233940000000  0.4740440000000  0.4402390000000 1.0
C      1  0.6025050000000  0.5084480000000  0.4792960000000 1.0
C      1  0.6266760000000  0.4169950000000  0.5301920000000 1.0
C      1  0.4504250000000  0.6120080000000  0.5221910000000 1.0
C      1  0.5648690000000  0.5581920000000  0.4919210000000 1.0
C      1  0.5357400000000  0.5192900000000  0.5519410000000 1.0
C      1  0.4706850000000  0.4473710000000  0.4320050000000 1.0
C      1  0.5230450000000  0.5663950000000  0.4313250000000 1.0
C      1  0.5481380000000  0.5233310000000  0.5262580000000 1.0
C      1  0.4553710000000  0.4084970000000  0.5481140000000 1.0
C      1  0.5989630000000  0.5374080000000  0.5191130000000 1.0
C      1  0.4100230000000  0.5646230000000  0.4936840000000 1.0
C      1  0.5071580000000  0.5437940000000  0.6065800000000 1.0
C      1  0.5173710000000  0.4718400000000  0.5687150000000 1.0
C      1  0.4870210000000  0.4266890000000  0.4248120000000 1.0
C      1  0.5964950000000  0.4604030000000  0.4566570000000 1.0
C      1  0.4505120000000  0.6602320000000  0.4788150000000 1.0
C      1  0.4514130000000  0.5708570000000  0.4136900000000 1.0
C      1  0.4745440000000  0.5759820000000  0.4988010000000 1.0
C      1  0.4308560000000  0.5158570000000  0.5720500000000 1.0
C      1  0.4993630000000  0.4945180000000  0.5287250000000 1.0
C      1  0.5954750000000  0.4652420000000  0.5079790000000 1.0
C      1  0.5130290000000  0.3967690000000  0.5569940000000 1.0
C      1  0.5900530000000  0.5230420000000  0.5683380000000 1.0
C      1  0.4642170000000  0.3830680000000  0.4801480000000 1.0
C      1  0.5214730000000  0.4883850000000  0.3944960000000 1.0
C      1  0.4814070000000  0.4548330000000  0.6020230000000 1.0
C      1  0.5409270000000  0.4186080000000  0.5151310000000 1.0
C      1  0.5628930000000  0.4664500000000  0.4215990000000 1.0
C      1  0.4874500000000  0.5248200000000  0.6004320000000 1.0
C      1  0.6109150000000  0.4825710000000  0.5500430000000 1.0
C      1  0.4278870000000  0.4753290000000  0.5057250000000 1.0
C      1  0.5491290000000  0.4658960000000  0.5675760000000 1.0
C      1  0.5910330000000  0.4944010000000  0.5673790000000 1.0
C      1  0.6148930000000  0.4114340000000  0.5068270000000 1.0
C      1  0.4270780000000  0.5689800000000  0.5156550000000 1.0
C      1  0.4745370000000  0.5228970000000  0.4478410000000 1.0
C      1  0.4906700000000  0.5439320000000  0.4598440000000 1.0
C      1  0.4361450000000  0.5901720000000  0.4287900000000 1.0
C      1  0.6187430000000  0.5064700000000  0.4557720000000 1.0
C      1  0.5105420000000  0.3763740000000  0.4610410000000 1.0
C      1  0.4872460000000  0.4432830000000  0.6265520000000 1.0
C      1  0.5462820000000  0.5806460000000  0.4325220000000 1.0
C      1  0.4283480000000  0.4152690000000  0.5436530000000 1.0
C      1  0.4203760000000  0.4932280000000  0.4152990000000 1.0
C      1  0.4535100000000  0.4776740000000  0.5194490000000 1.0
C      1  0.5239670000000  0.3735400000000  0.5079390000000 1.0
C      1  0.4715220000000  0.4020360000000  0.5243840000000 1.0
C      1  0.5002660000000  0.3574530000000  0.5005450000000 1.0
C      1  0.5714380000000  0.4778560000000  0.6089930000000 1.0
C      1  0.4967370000000  0.4593430000000  0.4736270000000 1.0
C      1  0.5433130000000  0.4532870000000  0.4399140000000 1.0
C      1  0.4518690000000  0.4308620000000  0.4965650000000 1.0
C      1  0.3695430000000  0.4746080000000  0.4884000000000 1.0
C      1  0.5190870000000  0.4965720000000  0.4565650000000 1.0
C      1  0.4208210000000  0.5472290000000  0.4410830000000 1.0
C      1  0.4018450000000  0.4811700000000  0.5433630000000 1.0
C      1  0.4067490000000  0.6355100000000  0.4844620000000 1.0
C      1  0.5174650000000  0.5763590000000  0.5716750000000 1.0
C      1  0.4010560000000  0.5091190000000  0.5324580000000 1.0
C      1  0.4601750000000  0.5084270000000  0.4683250000000 1.0
C      1  0.4876450000000  0.3677990000000  0.4767040000000 1.0
C      1  0.5137680000000  0.6051040000000  0.4890590000000 1.0
C      1  0.4040780000000  0.5380430000000  0.4873220000000 1.0
C      1  0.5165120000000  0.4225620000000  0.5018080000000 1.0
C      1  0.4630300000000  0.5240320000000  0.4223460000000 1.0
C      1  0.4492770000000  0.4547740000000  0.4147900000000 1.0
C      1  0.5896830000000  0.5617140000000  0.4768700000000 1.0
C      1  0.4945200000000  0.4192600000000  0.5186750000000 1.0
C      1  0.4713840000000  0.4977880000000  0.5294600000000 1.0
C      1  0.6337130000000  0.5710450000000  0.5002170000000 1.0
C      1  0.5431940000000  0.5351960000000  0.5742510000000 1.0
C      1  0.5435820000000  0.6362160000000  0.4673740000000 1.0
C      1  0.5039840000000  0.4472330000000  0.5545580000000 1.0
C      1  0.5702830000000  0.4796210000000  0.5816080000000 1.0
C      1  0.5509830000000  0.4239100000000  0.5394370000000 1.0
C      1  0.5677150000000  0.5414010000000  0.5157150000000 1.0
C      1  0.5993470000000  0.5037510000000  0.4336740000000 1.0
C      1  0.3985530000000  0.4884820000000  0.4331540000000 1.0
C      1  0.5827180000000  0.5289040000000  0.4364930000000 1.0
C      1  0.5137180000000  0.4947060000000  0.5050650000000 1.0
C      1  0.4459660000000  0.4824220000000  0.4080790000000 1.0
C      1  0.4598740000000  0.4458550000000  0.5844380000000 1.0
C      1  0.5325050000000  0.5212880000000  0.4521090000000 1.0
C      1  0.4976520000000  0.5913670000000  0.5072530000000 1.0
C      1  0.4501580000000  0.4962130000000  0.5819730000000 1.0
C      1  0.5983040000000  0.4504080000000  0.4833550000000 1.0
C      1  0.5500850000000  0.4062690000000  0.4683230000000 1.0
C      1  0.4987310000000  0.4202250000000  0.5667890000000 1.0
C      1  0.4961090000000  0.6446740000000  0.4681400000000 1.0
C      1  0.4333970000000  0.4405090000000  0.4774320000000 1.0
C      1  0.5160220000000  0.4976020000000  0.5520270000000 1.0
C      1  0.4952400000000  0.4774390000000  0.5910310000000 1.0
C      1  0.5742020000000  0.5056890000000  0.4740260000000 1.0
C      1  0.5148870000000  0.4372840000000  0.4772930000000 1.0
C      1  0.4130220000000  0.4341350000000  0.5325480000000 1.0
C      1  0.5585480000000  0.4498290000000  0.5458020000000 1.0
C      1  0.4084280000000  0.5840400000000  0.4724050000000 1.0
C      1  0.4316020000000  0.4689230000000  0.4779080000000 1.0
C      1  0.3937630000000  0.5050430000000  0.4556340000000 1.0
END
