TITL C-612602-9376-615 -0.0176155424215449 125000 -986.500371631637 0 0 160 (C1) n - 1
REM
REM in /home/nfs/bkarasulu/CARBON/AIRSS/Generating-Clusters/TERSOFF/Only-C1/FIRE-HFTN
REM
REM
REM
REM
REM
REM ./C.cell (11c1c37f851c82e70ff6c80c92926a4b)
REM AIRSS Version 0.9.1 bugfix July 2018 build 013d7b7c2542+ Fri, 06 Jul 2018 19:26:36 +0100
REM compiler GCC version 9.2.1 20190827 (Red Hat 9.2.1-1)
REM options -cpp -mtune=generic -march=x86-64 -g -O0 -fpre-include=/usr/include/finclude/math-vector-fortran.h
REM seed 385874234 1273562365 -621609750 1113025489 978920594 1011583139 393395378 -1343404490 1700230933 -2146947815 1072267373 -1775669393 317537063 -2111169256 1009335330 -1154392003 448549114 2007185891 -771292010 727828560 1291172842 -1823696544 -1825780439 -1405905705 1763448951 527459571 873271584 1536560487 -219564245 1286834955 474883709 -863779817 863187505
REM
CELL 1.54180   50.00000   50.00000   50.00000   90.00000   90.00000   90.00000
LATT -1
SFAC C  
C      1  0.5365800000000  0.4866100000000  0.4752790000000 1.0
C      1  0.4169710000000  0.5629900000000  0.5014720000000 1.0
C      1  0.4995090000000  0.5000430000000  0.5264540000000 1.0
C      1  0.5870900000000  0.4517060000000  0.5018880000000 1.0
C      1  0.4625170000000  0.5473780000000  0.5983400000000 1.0
C      1  0.5642250000000  0.5380700000000  0.5452180000000 1.0
C      1  0.4819440000000  0.4616940000000  0.4066630000000 1.0
C      1  0.4842570000000  0.4731500000000  0.6219970000000 1.0
C      1  0.5363900000000  0.5448860000000  0.6232180000000 1.0
C      1  0.5475030000000  0.5383470000000  0.6458640000000 1.0
C      1  0.5048780000000  0.4826400000000  0.5793280000000 1.0
C      1  0.6091760000000  0.4640490000000  0.5107140000000 1.0
C      1  0.4716400000000  0.5160910000000  0.4540040000000 1.0
C      1  0.3515090000000  0.5098170000000  0.5796390000000 1.0
C      1  0.4910700000000  0.5263060000000  0.5327230000000 1.0
C      1  0.4032550000000  0.4713330000000  0.5611690000000 1.0
C      1  0.5521140000000  0.5322180000000  0.4930510000000 1.0
C      1  0.5242470000000  0.5502700000000  0.5987410000000 1.0
C      1  0.4491230000000  0.4941050000000  0.5356930000000 1.0
C      1  0.5237110000000  0.5866860000000  0.5613410000000 1.0
C      1  0.5087680000000  0.4969330000000  0.4830330000000 1.0
C      1  0.5823730000000  0.5794540000000  0.5231710000000 1.0
C      1  0.5710630000000  0.4532940000000  0.4790530000000 1.0
C      1  0.4430380000000  0.5076790000000  0.5812790000000 1.0
C      1  0.4113630000000  0.5393950000000  0.4816580000000 1.0
C      1  0.5080580000000  0.4052830000000  0.5570420000000 1.0
C      1  0.4381580000000  0.4622730000000  0.4232130000000 1.0
C      1  0.4455720000000  0.5991180000000  0.5124230000000 1.0
C      1  0.4397600000000  0.5197920000000  0.5301380000000 1.0
C      1  0.4537370000000  0.5860140000000  0.4645830000000 1.0
C      1  0.5555260000000  0.4931800000000  0.5682240000000 1.0
C      1  0.4957320000000  0.4321060000000  0.5123500000000 1.0
C      1  0.5534780000000  0.5034420000000  0.4948870000000 1.0
C      1  0.5853610000000  0.4573100000000  0.4542510000000 1.0
C      1  0.5078050000000  0.5259150000000  0.4843100000000 1.0
C      1  0.5811910000000  0.5878220000000  0.4448760000000 1.0
C      1  0.5579120000000  0.5941830000000  0.5238570000000 1.0
C      1  0.5760220000000  0.5238480000000  0.4434080000000 1.0
C      1  0.5199170000000  0.4337950000000  0.4142790000000 1.0
C      1  0.4990490000000  0.4506110000000  0.6141750000000 1.0
C      1  0.5369220000000  0.4580360000000  0.4088950000000 1.0
C      1  0.5268930000000  0.5429970000000  0.5005550000000 1.0
C      1  0.5473260000000  0.5220350000000  0.4407080000000 1.0
C      1  0.4942020000000  0.3891870000000  0.4667150000000 1.0
C      1  0.4274330000000  0.5343810000000  0.4085610000000 1.0
C      1  0.4585090000000  0.5190800000000  0.6025830000000 1.0
C      1  0.5664700000000  0.4603000000000  0.4118810000000 1.0
C      1  0.4949790000000  0.4375540000000  0.4005130000000 1.0
C      1  0.4691890000000  0.4325580000000  0.5222510000000 1.0
C      1  0.4933130000000  0.3839460000000  0.5655320000000 1.0
C      1  0.5855600000000  0.4171680000000  0.4257940000000 1.0
C      1  0.5262440000000  0.4637210000000  0.5448500000000 1.0
C      1  0.3955450000000  0.4852110000000  0.4453510000000 1.0
C      1  0.5467450000000  0.4980690000000  0.5219860000000 1.0
C      1  0.4675790000000  0.3828550000000  0.4752000000000 1.0
C      1  0.4462710000000  0.4766890000000  0.5138990000000 1.0
C      1  0.4056770000000  0.4605340000000  0.5347520000000 1.0
C      1  0.5714150000000  0.4901590000000  0.4075580000000 1.0
C      1  0.4080530000000  0.5496070000000  0.4536750000000 1.0
C      1  0.4183160000000  0.5184370000000  0.5695670000000 1.0
C      1  0.4597170000000  0.4793440000000  0.4856530000000 1.0
C      1  0.4887410000000  0.5350530000000  0.4658960000000 1.0
C      1  0.3655770000000  0.5165970000000  0.5338310000000 1.0
C      1  0.5372640000000  0.4051310000000  0.4832490000000 1.0
C      1  0.4581140000000  0.4914490000000  0.5624200000000 1.0
C      1  0.4630250000000  0.4210230000000  0.4477740000000 1.0
C      1  0.5342070000000  0.4276580000000  0.4644370000000 1.0
C      1  0.4282780000000  0.4146840000000  0.4832490000000 1.0
C      1  0.5339590000000  0.6026310000000  0.4545250000000 1.0
C      1  0.6005120000000  0.5333830000000  0.5152600000000 1.0
C      1  0.4556740000000  0.4719120000000  0.4023840000000 1.0
C      1  0.5467940000000  0.5012220000000  0.3912010000000 1.0
C      1  0.4342650000000  0.5834700000000  0.4885950000000 1.0
C      1  0.5920420000000  0.5395950000000  0.4618400000000 1.0
C      1  0.5792100000000  0.4431710000000  0.4304370000000 1.0
C      1  0.4967460000000  0.5882320000000  0.4842920000000 1.0
C      1  0.4757450000000  0.5426980000000  0.5128200000000 1.0
C      1  0.3726600000000  0.5206370000000  0.5085720000000 1.0
C      1  0.5828300000000  0.5514260000000  0.5284840000000 1.0
C      1  0.4151760000000  0.4563420000000  0.5820410000000 1.0
C      1  0.4725990000000  0.5766270000000  0.5523690000000 1.0
C      1  0.5558140000000  0.4123540000000  0.5350390000000 1.0
C      1  0.6091990000000  0.5089090000000  0.5303930000000 1.0
C      1  0.4501630000000  0.4467680000000  0.4451500000000 1.0
C      1  0.4744040000000  0.6036670000000  0.4767500000000 1.0
C      1  0.4517140000000  0.5244150000000  0.3994510000000 1.0
C      1  0.5235660000000  0.5973910000000  0.4801010000000 1.0
C      1  0.4398240000000  0.4468410000000  0.5875480000000 1.0
C      1  0.5048440000000  0.4520510000000  0.4948460000000 1.0
C      1  0.3869130000000  0.4995700000000  0.4662050000000 1.0
C      1  0.5270170000000  0.5228420000000  0.3970720000000 1.0
C      1  0.5510370000000  0.4074270000000  0.5085920000000 1.0
C      1  0.4767770000000  0.5397410000000  0.4019950000000 1.0
C      1  0.5982920000000  0.4817710000000  0.4475110000000 1.0
C      1  0.5383520000000  0.4548330000000  0.4784590000000 1.0
C      1  0.5117620000000  0.5571280000000  0.4285270000000 1.0
C      1  0.5240410000000  0.4777780000000  0.4286770000000 1.0
C      1  0.4375420000000  0.5247910000000  0.4844710000000 1.0
C      1  0.4634920000000  0.4471800000000  0.5718450000000 1.0
C      1  0.6048920000000  0.5295510000000  0.4857390000000 1.0
C      1  0.5313870000000  0.4761030000000  0.5701040000000 1.0
C      1  0.6020870000000  0.4986800000000  0.5559560000000 1.0
C      1  0.4507590000000  0.5320400000000  0.5079760000000 1.0
C      1  0.5940560000000  0.5667920000000  0.4550030000000 1.0
C      1  0.4617500000000  0.4326490000000  0.5479440000000 1.0
C      1  0.5545550000000  0.5116790000000  0.5459030000000 1.0
C      1  0.5872570000000  0.5012880000000  0.4297250000000 1.0
C      1  0.4446230000000  0.4573220000000  0.4710810000000 1.0
C      1  0.4485850000000  0.4028740000000  0.4671580000000 1.0
C      1  0.5225630000000  0.4837710000000  0.5258330000000 1.0
C      1  0.5576890000000  0.6002030000000  0.4424330000000 1.0
C      1  0.4241030000000  0.5620650000000  0.5321570000000 1.0
C      1  0.4991000000000  0.5242510000000  0.3877920000000 1.0
C      1  0.5735470000000  0.4340050000000  0.5756860000000 1.0
C      1  0.5260110000000  0.5755830000000  0.5868470000000 1.0
C      1  0.4962840000000  0.4792710000000  0.4242630000000 1.0
C      1  0.4127230000000  0.5453160000000  0.4278260000000 1.0
C      1  0.4669230000000  0.5662540000000  0.5791990000000 1.0
C      1  0.4782180000000  0.4723030000000  0.5706200000000 1.0
C      1  0.3968670000000  0.4991930000000  0.5657530000000 1.0
C      1  0.6187560000000  0.4902870000000  0.5100420000000 1.0
C      1  0.5375050000000  0.4952140000000  0.4467140000000 1.0
C      1  0.5140610000000  0.4338500000000  0.5978110000000 1.0
C      1  0.4914910000000  0.4122450000000  0.4483570000000 1.0
C      1  0.5032460000000  0.5765950000000  0.5438650000000 1.0
C      1  0.4799160000000  0.5014470000000  0.6133110000000 1.0
C      1  0.3889090000000  0.5198380000000  0.4859460000000 1.0
C      1  0.5027590000000  0.5057370000000  0.5958230000000 1.0
C      1  0.5268390000000  0.3572770000000  0.4836290000000 1.0
C      1  0.3706390000000  0.5086150000000  0.5602190000000 1.0
C      1  0.5099060000000  0.5303770000000  0.5845140000000 1.0
C      1  0.4902420000000  0.4752420000000  0.4875510000000 1.0
C      1  0.5137030000000  0.5634610000000  0.5182040000000 1.0
C      1  0.5167300000000  0.4243510000000  0.4414490000000 1.0
C      1  0.5338780000000  0.4753730000000  0.3831290000000 1.0
C      1  0.6210060000000  0.5052710000000  0.4855860000000 1.0
C      1  0.4272780000000  0.4423400000000  0.4892540000000 1.0
C      1  0.6057760000000  0.5927000000000  0.5178070000000 1.0
C      1  0.4894770000000  0.5662180000000  0.5023340000000 1.0
C      1  0.4833300000000  0.5586410000000  0.4230670000000 1.0
C      1  0.5827450000000  0.4841170000000  0.5714120000000 1.0
C      1  0.5859930000000  0.4574110000000  0.5792600000000 1.0
C      1  0.4239070000000  0.4576430000000  0.5134090000000 1.0
C      1  0.4837070000000  0.5026570000000  0.3751980000000 1.0
C      1  0.4574830000000  0.4976080000000  0.3886400000000 1.0
C      1  0.4820470000000  0.5003960000000  0.4343480000000 1.0
C      1  0.5424660000000  0.5999180000000  0.5010390000000 1.0
C      1  0.5256110000000  0.4197230000000  0.5746600000000 1.0
C      1  0.5312500000000  0.5369970000000  0.4223330000000 1.0
C      1  0.5455500000000  0.5989000000000  0.5487120000000 1.0
C      1  0.5194750000000  0.3830070000000  0.4781240000000 1.0
C      1  0.5000590000000  0.5342680000000  0.5583140000000 1.0
C      1  0.4632410000000  0.6175620000000  0.4993830000000 1.0
C      1  0.5523940000000  0.4208960000000  0.5627110000000 1.0
C      1  0.5085560000000  0.4137240000000  0.5298840000000 1.0
C      1  0.4521250000000  0.5051850000000  0.4710600000000 1.0
C      1  0.4128020000000  0.4734120000000  0.4286380000000 1.0
C      1  0.4235110000000  0.5364320000000  0.5467910000000 1.0
C      1  0.4476750000000  0.5816530000000  0.5358890000000 1.0
C      1  0.4638620000000  0.5721150000000  0.4407910000000 1.0
END
