TITL C-612601-4209-621 0.0781133531170568 125000 -512.952280731784 0 0 85 (C1) n - 1
REM
REM in /home/nfs/bkarasulu/CARBON/AIRSS/Generating-Clusters/TERSOFF/Only-C1/FIRE-HFTN
REM
REM
REM
REM
REM
REM ./C.cell (11c1c37f851c82e70ff6c80c92926a4b)
REM AIRSS Version 0.9.1 bugfix July 2018 build 013d7b7c2542+ Fri, 06 Jul 2018 19:26:36 +0100
REM compiler GCC version 9.2.1 20190827 (Red Hat 9.2.1-1)
REM options -cpp -mtune=generic -march=x86-64 -g -O0 -fpre-include=/usr/include/finclude/math-vector-fortran.h
REM seed -1443037994 -2113491890 -1349688362 -1271863890 1981924964 1305458591 -1389183009 -1887993274 1015799181 -319394155 1360472111 -1211488766 187135704 1836892109 1976730917 -2004224650 474963931 -1800562862 -1636663155 1019612935 1359159645 1458467507 -1976675852 1576297079 -795056526 1566947939 186600799 1550257137 250619811 -1798294317 -1490282146 1157896761 -2070828292
REM
CELL 1.54180   50.00000   50.00000   50.00000   90.00000   90.00000   90.00000
LATT -1
SFAC C  
C      1  0.4728950000000  0.5846090000000  0.5093650000000 1.0
C      1  0.4899280000000  0.4638300000000  0.4231740000000 1.0
C      1  0.5746580000000  0.4714400000000  0.4647870000000 1.0
C      1  0.5806380000000  0.4815050000000  0.4388570000000 1.0
C      1  0.5412030000000  0.4657280000000  0.5854730000000 1.0
C      1  0.5541890000000  0.4906080000000  0.5791920000000 1.0
C      1  0.6051460000000  0.4650440000000  0.5031770000000 1.0
C      1  0.4243750000000  0.4881570000000  0.4307110000000 1.0
C      1  0.5416300000000  0.4914320000000  0.5310210000000 1.0
C      1  0.5558310000000  0.4306110000000  0.5482560000000 1.0
C      1  0.4509380000000  0.4505170000000  0.6068100000000 1.0
C      1  0.6186180000000  0.4503560000000  0.5199680000000 1.0
C      1  0.5098920000000  0.5497460000000  0.5268720000000 1.0
C      1  0.5205530000000  0.5057260000000  0.4155190000000 1.0
C      1  0.5389260000000  0.4230440000000  0.4983880000000 1.0
C      1  0.4928740000000  0.4184850000000  0.4854030000000 1.0
C      1  0.4319200000000  0.4484600000000  0.5260110000000 1.0
C      1  0.5219080000000  0.5138380000000  0.4622460000000 1.0
C      1  0.5159290000000  0.5436840000000  0.5792670000000 1.0
C      1  0.5337250000000  0.4415530000000  0.4761180000000 1.0
C      1  0.4285130000000  0.6082020000000  0.4425170000000 1.0
C      1  0.4190600000000  0.4702120000000  0.4522080000000 1.0
C      1  0.5317430000000  0.5207980000000  0.4365200000000 1.0
C      1  0.5518660000000  0.5145740000000  0.5935390000000 1.0
C      1  0.5130650000000  0.5871760000000  0.4812050000000 1.0
C      1  0.4357250000000  0.4705040000000  0.5454480000000 1.0
C      1  0.4900770000000  0.5990010000000  0.4923490000000 1.0
C      1  0.4649600000000  0.4649890000000  0.4096370000000 1.0
C      1  0.5358430000000  0.5786300000000  0.4703330000000 1.0
C      1  0.3958480000000  0.4631600000000  0.4661630000000 1.0
C      1  0.5153360000000  0.4062580000000  0.4988940000000 1.0
C      1  0.4594390000000  0.4624350000000  0.5608370000000 1.0
C      1  0.5764580000000  0.5058970000000  0.4278840000000 1.0
C      1  0.5056470000000  0.4378080000000  0.4666130000000 1.0
C      1  0.4264190000000  0.5155120000000  0.4369970000000 1.0
C      1  0.3933510000000  0.4517610000000  0.4904120000000 1.0
C      1  0.4580400000000  0.5666290000000  0.5223170000000 1.0
C      1  0.4689640000000  0.5944570000000  0.4215130000000 1.0
C      1  0.5361350000000  0.5130570000000  0.5142560000000 1.0
C      1  0.5309960000000  0.4885560000000  0.4706980000000 1.0
C      1  0.4867360000000  0.5057300000000  0.5989640000000 1.0
C      1  0.4419510000000  0.5227160000000  0.5465050000000 1.0
C      1  0.5603780000000  0.4934520000000  0.5517320000000 1.0
C      1  0.4949300000000  0.5299990000000  0.5918380000000 1.0
C      1  0.5417000000000  0.5408370000000  0.5913230000000 1.0
C      1  0.4578530000000  0.4355380000000  0.5217960000000 1.0
C      1  0.5596150000000  0.5272260000000  0.4362780000000 1.0
C      1  0.4843880000000  0.4819200000000  0.5089400000000 1.0
C      1  0.5537770000000  0.4259590000000  0.5219210000000 1.0
C      1  0.5557040000000  0.5624700000000  0.6003380000000 1.0
C      1  0.4771350000000  0.5170450000000  0.4782410000000 1.0
C      1  0.4455850000000  0.5418760000000  0.5248280000000 1.0
C      1  0.5150810000000  0.4666790000000  0.5960210000000 1.0
C      1  0.5758630000000  0.5919770000000  0.4473500000000 1.0
C      1  0.4515150000000  0.5293470000000  0.4766100000000 1.0
C      1  0.5912720000000  0.4817260000000  0.4858060000000 1.0
C      1  0.4689150000000  0.4220050000000  0.4997780000000 1.0
C      1  0.5163240000000  0.5317760000000  0.5063520000000 1.0
C      1  0.5848210000000  0.5331900000000  0.4768230000000 1.0
C      1  0.5691590000000  0.5451280000000  0.4565720000000 1.0
C      1  0.5505070000000  0.4428280000000  0.5715560000000 1.0
C      1  0.4234480000000  0.5037950000000  0.5099320000000 1.0
C      1  0.4305740000000  0.4971710000000  0.5375970000000 1.0
C      1  0.4405700000000  0.5618980000000  0.4420660000000 1.0
C      1  0.4843060000000  0.6251470000000  0.4865130000000 1.0
C      1  0.4409410000000  0.4771380000000  0.4104890000000 1.0
C      1  0.4428940000000  0.4603110000000  0.4633880000000 1.0
C      1  0.5472760000000  0.4657170000000  0.4706610000000 1.0
C      1  0.4661380000000  0.4633800000000  0.5880740000000 1.0
C      1  0.4692760000000  0.4685700000000  0.4659410000000 1.0
C      1  0.4892800000000  0.4780120000000  0.5957930000000 1.0
C      1  0.4761070000000  0.4491970000000  0.5407810000000 1.0
C      1  0.5927460000000  0.5099040000000  0.4874430000000 1.0
C      1  0.4955520000000  0.4657570000000  0.5285810000000 1.0
C      1  0.5223800000000  0.4709570000000  0.5332040000000 1.0
C      1  0.4758800000000  0.4891090000000  0.4837530000000 1.0
C      1  0.5096320000000  0.4813350000000  0.4133750000000 1.0
C      1  0.4392650000000  0.5358010000000  0.4517620000000 1.0
C      1  0.5123100000000  0.5535980000000  0.5532520000000 1.0
C      1  0.4082930000000  0.4450360000000  0.5115770000000 1.0
C      1  0.5603320000000  0.5721150000000  0.4580650000000 1.0
C      1  0.4364530000000  0.5279360000000  0.5005970000000 1.0
C      1  0.5041060000000  0.5267240000000  0.4805520000000 1.0
C      1  0.4460510000000  0.5884730000000  0.4352570000000 1.0
C      1  0.4897180000000  0.4555040000000  0.4508210000000 1.0
END
