TITL C-612601-4209-1424 -0.157390739858047 125000 -228.65543728401 0 0 39 (C1) n - 1
REM
REM in /home/nfs/bkarasulu/CARBON/AIRSS/Generating-Clusters/TERSOFF/Only-C1/FIRE-HFTN
REM
REM
REM
REM
REM
REM ./C.cell (11c1c37f851c82e70ff6c80c92926a4b)
REM AIRSS Version 0.9.1 bugfix July 2018 build 013d7b7c2542+ Fri, 06 Jul 2018 19:26:36 +0100
REM compiler GCC version 9.2.1 20190827 (Red Hat 9.2.1-1)
REM options -cpp -mtune=generic -march=x86-64 -g -O0 -fpre-include=/usr/include/finclude/math-vector-fortran.h
REM seed 202247310 13277684 -525106709 -2057836203 -1274314258 1516002432 52675834 110983013 1740164689 845808776 1532254028 -1292136117 -682125812 373858131 1648146000 1113542921 -1747585193 -553754779 827560553 2059458280 1813373886 1638300331 23247032 1131487073 -514564231 -914979261 -1580618075 -58837940 -1661494390 -46143474 -876656683 -1794449665 1264434318
REM
CELL 1.54180   50.00000   50.00000   50.00000   90.00000   90.00000   90.00000
LATT -1
SFAC C  
C      1  0.5363060000000  0.5798030000000  0.4893710000000 1.0
C      1  0.5693040000000  0.4924770000000  0.5385420000000 1.0
C      1  0.4904400000000  0.4425270000000  0.5235130000000 1.0
C      1  0.5047700000000  0.3949010000000  0.4982600000000 1.0
C      1  0.4424190000000  0.5465370000000  0.4350980000000 1.0
C      1  0.5552280000000  0.4700290000000  0.5379560000000 1.0
C      1  0.4367110000000  0.4944810000000  0.4391370000000 1.0
C      1  0.4882980000000  0.4739130000000  0.4647290000000 1.0
C      1  0.5343010000000  0.5751780000000  0.5372420000000 1.0
C      1  0.4423670000000  0.4370380000000  0.5768070000000 1.0
C      1  0.4954510000000  0.5954520000000  0.4592440000000 1.0
C      1  0.5597850000000  0.6113310000000  0.5178910000000 1.0
C      1  0.5418860000000  0.5287280000000  0.4751150000000 1.0
C      1  0.5111740000000  0.4871120000000  0.4668690000000 1.0
C      1  0.4975840000000  0.5090290000000  0.5526580000000 1.0
C      1  0.5383160000000  0.4500200000000  0.5339970000000 1.0
C      1  0.4873110000000  0.4853020000000  0.5468770000000 1.0
C      1  0.5437930000000  0.5893760000000  0.5150540000000 1.0
C      1  0.4604770000000  0.4477880000000  0.5614580000000 1.0
C      1  0.4440430000000  0.4681410000000  0.4450850000000 1.0
C      1  0.4809910000000  0.4066300000000  0.4924410000000 1.0
C      1  0.4793250000000  0.4587050000000  0.5439530000000 1.0
C      1  0.4735310000000  0.5867930000000  0.4470350000000 1.0
C      1  0.4740090000000  0.4324400000000  0.5020190000000 1.0
C      1  0.5098170000000  0.5324460000000  0.5548250000000 1.0
C      1  0.4341290000000  0.4472350000000  0.4304920000000 1.0
C      1  0.5938930000000  0.5387370000000  0.5341950000000 1.0
C      1  0.4623930000000  0.4634990000000  0.4663170000000 1.0
C      1  0.5178230000000  0.4335370000000  0.5249600000000 1.0
C      1  0.5817800000000  0.5157990000000  0.5367910000000 1.0
C      1  0.5175160000000  0.5935180000000  0.4738700000000 1.0
C      1  0.4545740000000  0.4484950000000  0.4892060000000 1.0
C      1  0.5446980000000  0.5544100000000  0.4811230000000 1.0
C      1  0.4551370000000  0.5695230000000  0.4388130000000 1.0
C      1  0.4362680000000  0.5207390000000  0.4355170000000 1.0
C      1  0.5225020000000  0.5552670000000  0.5501950000000 1.0
C      1  0.5227230000000  0.4077870000000  0.5140240000000 1.0
C      1  0.5299190000000  0.5055180000000  0.4704640000000 1.0
C      1  0.4290040000000  0.4497620000000  0.4988560000000 1.0
END
