TITL C-612605-9286-1188 0.000237653879787141 125000 -451.507081411316 0 0 75 (C1) n - 1
REM
REM in /home/nfs/bkarasulu/CARBON/AIRSS/Generating-Clusters/TERSOFF/Only-C1/FIRE-HFTN
REM
REM
REM
REM
REM
REM ./C.cell (11c1c37f851c82e70ff6c80c92926a4b)
REM AIRSS Version 0.9.1 bugfix July 2018 build 013d7b7c2542+ Fri, 06 Jul 2018 19:26:36 +0100
REM compiler GCC version 9.2.1 20190827 (Red Hat 9.2.1-1)
REM options -cpp -mtune=generic -march=x86-64 -g -O0 -fpre-include=/usr/include/finclude/math-vector-fortran.h
REM seed 1028288963 -253229084 -1131162246 741098710 -647148359 -641265911 -2025325569 1799351681 270364778 -909133640 -944675175 1719392424 -1002282424 -1829636986 -599412787 -921479832 1769719290 -1187686228 -693862225 -2146054282 1284160958 -135338765 -1890730141 1004134998 1077333638 -1536517252 -5296275 2028890031 1170892612 1351098065 166471225 1793628137 449076959
REM
CELL 1.54180   50.00000   50.00000   50.00000   90.00000   90.00000   90.00000
LATT -1
SFAC C  
C      1  0.5536660000000  0.4372660000000  0.4899140000000 1.0
C      1  0.5746580000000  0.4571490000000  0.4935340000000 1.0
C      1  0.3953140000000  0.4817090000000  0.4672820000000 1.0
C      1  0.5104400000000  0.4883420000000  0.5144230000000 1.0
C      1  0.5202890000000  0.5182880000000  0.5524810000000 1.0
C      1  0.3975450000000  0.4849450000000  0.5175860000000 1.0
C      1  0.4711070000000  0.5735500000000  0.4567140000000 1.0
C      1  0.5801340000000  0.5045410000000  0.5080580000000 1.0
C      1  0.4773130000000  0.4908220000000  0.5737880000000 1.0
C      1  0.5637760000000  0.4717930000000  0.5400330000000 1.0
C      1  0.5517710000000  0.4966650000000  0.4219360000000 1.0
C      1  0.5023670000000  0.5606240000000  0.5627500000000 1.0
C      1  0.5324570000000  0.5564280000000  0.5252110000000 1.0
C      1  0.4843530000000  0.5093380000000  0.4472440000000 1.0
C      1  0.5129780000000  0.4443060000000  0.6262860000000 1.0
C      1  0.4202160000000  0.5497530000000  0.5076670000000 1.0
C      1  0.5658430000000  0.5470590000000  0.4848140000000 1.0
C      1  0.5109520000000  0.4477540000000  0.6005360000000 1.0
C      1  0.5709990000000  0.5315400000000  0.5084770000000 1.0
C      1  0.5137930000000  0.5140670000000  0.5246150000000 1.0
C      1  0.5822400000000  0.4898300000000  0.4579040000000 1.0
C      1  0.4650560000000  0.5094050000000  0.4054740000000 1.0
C      1  0.5686480000000  0.4446700000000  0.4471630000000 1.0
C      1  0.4742460000000  0.5175290000000  0.5646450000000 1.0
C      1  0.4921740000000  0.4709010000000  0.5607190000000 1.0
C      1  0.4685880000000  0.5105110000000  0.4922960000000 1.0
C      1  0.5832780000000  0.4625730000000  0.4658490000000 1.0
C      1  0.4375600000000  0.4598330000000  0.5370310000000 1.0
C      1  0.4476820000000  0.5580270000000  0.4614480000000 1.0
C      1  0.4919970000000  0.4843960000000  0.4337050000000 1.0
C      1  0.3936780000000  0.4729400000000  0.4925840000000 1.0
C      1  0.5469240000000  0.5589450000000  0.4691360000000 1.0
C      1  0.5667900000000  0.4508510000000  0.4196760000000 1.0
C      1  0.5157580000000  0.5380430000000  0.5097140000000 1.0
C      1  0.5235650000000  0.4369210000000  0.5536450000000 1.0
C      1  0.4982100000000  0.5746720000000  0.4555310000000 1.0
C      1  0.5194650000000  0.5737720000000  0.5438940000000 1.0
C      1  0.4556590000000  0.4398270000000  0.5357130000000 1.0
C      1  0.4989190000000  0.5326010000000  0.5651980000000 1.0
C      1  0.5266270000000  0.6271150000000  0.5429050000000 1.0
C      1  0.5563720000000  0.5400340000000  0.5321520000000 1.0
C      1  0.4029070000000  0.5013900000000  0.4509040000000 1.0
C      1  0.4328040000000  0.5590510000000  0.4857120000000 1.0
C      1  0.5483920000000  0.4485930000000  0.5460000000000 1.0
C      1  0.4218970000000  0.4832060000000  0.5341940000000 1.0
C      1  0.4294750000000  0.5114310000000  0.5402720000000 1.0
C      1  0.5168640000000  0.3968060000000  0.5264300000000 1.0
C      1  0.3890050000000  0.5126160000000  0.5194220000000 1.0
C      1  0.5227420000000  0.4844710000000  0.4895010000000 1.0
C      1  0.4670570000000  0.5238840000000  0.5168410000000 1.0
C      1  0.5185090000000  0.5583990000000  0.4666910000000 1.0
C      1  0.5492710000000  0.5200320000000  0.5528750000000 1.0
C      1  0.4879600000000  0.5192110000000  0.4734460000000 1.0
C      1  0.5578140000000  0.4738580000000  0.4084310000000 1.0
C      1  0.5452890000000  0.4348670000000  0.4622450000000 1.0
C      1  0.5071540000000  0.5380360000000  0.4829780000000 1.0
C      1  0.5088400000000  0.4518230000000  0.5732130000000 1.0
C      1  0.5230550000000  0.6013120000000  0.5436580000000 1.0
C      1  0.5565670000000  0.4995790000000  0.4497520000000 1.0
C      1  0.4112190000000  0.5298610000000  0.5256310000000 1.0
C      1  0.5066470000000  0.4193260000000  0.5381450000000 1.0
C      1  0.4534310000000  0.4884130000000  0.4869120000000 1.0
C      1  0.4870390000000  0.4689710000000  0.3858750000000 1.0
C      1  0.4423580000000  0.5361180000000  0.4434550000000 1.0
C      1  0.4787400000000  0.4257070000000  0.5356320000000 1.0
C      1  0.4958440000000  0.4725160000000  0.5322590000000 1.0
C      1  0.5750960000000  0.4768370000000  0.5139680000000 1.0
C      1  0.5196520000000  0.4417240000000  0.4528820000000 1.0
C      1  0.4639210000000  0.5228500000000  0.4308200000000 1.0
C      1  0.5027590000000  0.4606100000000  0.4440170000000 1.0
C      1  0.4817290000000  0.4859490000000  0.4063400000000 1.0
C      1  0.5361780000000  0.4954430000000  0.4689040000000 1.0
C      1  0.4177590000000  0.5224370000000  0.4439610000000 1.0
C      1  0.4562710000000  0.5201500000000  0.5425010000000 1.0
C      1  0.5623520000000  0.4951840000000  0.5564010000000 1.0
END
