TITL C-612606-7351-894 37.2318427445 125000 -404.927853701703 0 0 69 (C1) n - 1
REM
REM in /home/nfs/bkarasulu/CARBON/AIRSS/Generating-Clusters/TERSOFF/Only-C1/FIRE-HFTN
REM
REM
REM
REM
REM
REM ./C.cell (11c1c37f851c82e70ff6c80c92926a4b)
REM AIRSS Version 0.9.1 bugfix July 2018 build 013d7b7c2542+ Fri, 06 Jul 2018 19:26:36 +0100
REM compiler GCC version 9.2.1 20190827 (Red Hat 9.2.1-1)
REM options -cpp -mtune=generic -march=x86-64 -g -O0 -fpre-include=/usr/include/finclude/math-vector-fortran.h
REM seed -2028594677 520022976 -370834661 2032094254 -1373567083 946880427 1173046620 -1989920528 -76825754 -377781676 -93154896 319682700 1975767479 1017737535 -1216159851 -786636999 697660558 -393890183 1957715288 -499254431 880024934 -1746925428 1542173597 -2138377269 -1939800634 2134580610 353769818 1589731712 -1181891059 895647755 -1245729106 -2057052934 -2102633680
REM
CELL 1.54180   50.00000   50.00000   50.00000   90.00000   90.00000   90.00000
LATT -1
SFAC C  
C      1  0.5504950000000  0.4809260000000  0.5235600000000 1.0
C      1  0.5206610000000  0.5688250000000  0.5555530000000 1.0
C      1  0.5920050000000  0.5011040000000  0.5239470000000 1.0
C      1  0.6075560000000  0.5883440000000  0.4649210000000 1.0
C      1  0.5962460000000  0.5699810000000  0.5082250000000 1.0
C      1  0.5262550000000  0.5523210000000  0.5331790000000 1.0
C      1  0.4726800000000  0.4963090000000  0.5811070000000 1.0
C      1  0.4960770000000  0.5257890000000  0.4754850000000 1.0
C      1  0.5023510000000  0.5373220000000  0.4491340000000 1.0
C      1  0.4666850000000  0.4683620000000  0.4569870000000 1.0
C      1  0.5805110000000  0.5782140000000  0.5851850000000 1.0
C      1  0.4539540000000  0.5451400000000  0.5029950000000 1.0
C      1  0.5582050000000  0.5757300000000  0.6327080000000 1.0
C      1  0.5885010000000  0.5779600000000  0.5599190000000 1.0
C      1  0.5369970000000  0.4694100000000  0.4400530000000 1.0
C      1  0.5040210000000  0.5637200000000  0.5761170000000 1.0
C      1  0.3668190000000  0.4698830000000  0.5217060000000 1.0
C      1  0.3385510000000  0.4188170000000  0.4971660000000 1.0
C      1  0.5979170000000  0.5672450000000  0.4804990000000 1.0
C      1  0.5251060000000  0.4442240000000  0.4969630000000 1.0
C      1  0.3295630000000  0.4403600000000  0.5128280000000 1.0
C      1  0.5896310000000  0.5432400000000  0.4679890000000 1.0
C      1  0.6083330000000  0.5252680000000  0.4568520000000 1.0
C      1  0.5515150000000  0.4252270000000  0.4638100000000 1.0
C      1  0.3628410000000  0.4216800000000  0.4827810000000 1.0
C      1  0.5617480000000  0.5369720000000  0.4651800000000 1.0
C      1  0.4355380000000  0.5558690000000  0.5180020000000 1.0
C      1  0.4052340000000  0.4336240000000  0.4683140000000 1.0
C      1  0.5638720000000  0.4765880000000  0.4360370000000 1.0
C      1  0.6161750000000  0.6078240000000  0.4499090000000 1.0
C      1  0.3241880000000  0.3949010000000  0.4968990000000 1.0
C      1  0.5765860000000  0.5141250000000  0.5429090000000 1.0
C      1  0.4935100000000  0.4673020000000  0.4598290000000 1.0
C      1  0.3894490000000  0.4596460000000  0.5085610000000 1.0
C      1  0.5691720000000  0.4917840000000  0.4805260000000 1.0
C      1  0.3412910000000  0.4619280000000  0.5235740000000 1.0
C      1  0.5326920000000  0.4423390000000  0.4502240000000 1.0
C      1  0.5004240000000  0.5121010000000  0.5441450000000 1.0
C      1  0.3104630000000  0.3727610000000  0.4977500000000 1.0
C      1  0.6055270000000  0.4991800000000  0.4505760000000 1.0
C      1  0.4737700000000  0.5332500000000  0.4900130000000 1.0
C      1  0.5281260000000  0.4685750000000  0.5112850000000 1.0
C      1  0.4149250000000  0.4689720000000  0.5150260000000 1.0
C      1  0.5236510000000  0.5637870000000  0.5074350000000 1.0
C      1  0.5172130000000  0.5702120000000  0.4819820000000 1.0
C      1  0.5487380000000  0.5063070000000  0.5401670000000 1.0
C      1  0.4896870000000  0.5415340000000  0.5810660000000 1.0
C      1  0.5750080000000  0.4847070000000  0.5071660000000 1.0
C      1  0.5470450000000  0.4261510000000  0.4911170000000 1.0
C      1  0.5698560000000  0.5771740000000  0.6094320000000 1.0
C      1  0.4644780000000  0.4861840000000  0.5220320000000 1.0
C      1  0.4904420000000  0.4961550000000  0.5227700000000 1.0
C      1  0.4868980000000  0.5162110000000  0.5689440000000 1.0
C      1  0.5068900000000  0.5131830000000  0.4331450000000 1.0
C      1  0.3858030000000  0.4396520000000  0.4889640000000 1.0
C      1  0.5186260000000  0.5043530000000  0.4787120000000 1.0
C      1  0.5820310000000  0.4847140000000  0.4559830000000 1.0
C      1  0.5143440000000  0.4885660000000  0.4501790000000 1.0
C      1  0.5196930000000  0.5593790000000  0.4554680000000 1.0
C      1  0.3532820000000  0.3886640000000  0.4451600000000 1.0
C      1  0.5493230000000  0.5130620000000  0.4767770000000 1.0
C      1  0.5104530000000  0.4463620000000  0.4706640000000 1.0
C      1  0.4396270000000  0.4773680000000  0.5195770000000 1.0
C      1  0.5263470000000  0.5239430000000  0.5393500000000 1.0
C      1  0.5935600000000  0.5751820000000  0.5340560000000 1.0
C      1  0.3955400000000  0.4146240000000  0.4508560000000 1.0
C      1  0.5098050000000  0.4888030000000  0.5032550000000 1.0
C      1  0.5465040000000  0.5542240000000  0.4489200000000 1.0
C      1  0.3689890000000  0.4063550000000  0.4583970000000 1.0
END
