TITL C-612601-4209-528 0.332739912123928 125000 -589.409088901823 0 0 97 (C1) n - 1
REM
REM in /home/nfs/bkarasulu/CARBON/AIRSS/Generating-Clusters/TERSOFF/Only-C1/FIRE-HFTN
REM
REM
REM
REM
REM
REM ./C.cell (11c1c37f851c82e70ff6c80c92926a4b)
REM AIRSS Version 0.9.1 bugfix July 2018 build 013d7b7c2542+ Fri, 06 Jul 2018 19:26:36 +0100
REM compiler GCC version 9.2.1 20190827 (Red Hat 9.2.1-1)
REM options -cpp -mtune=generic -march=x86-64 -g -O0 -fpre-include=/usr/include/finclude/math-vector-fortran.h
REM seed 1911698093 376916313 -357827720 1530649495 -1660106939 -293634181 -1340677357 -1147670571 1721590360 -66985059 -342963293 19282736 2139027103 481108323 1228503210 -1623320837 -1813984046 -10499826 197381633 -1798123201 -1443346465 -1255016651 1668302693 -250169154 1866055677 1011151763 985273395 266543507 1677028963 -2032683476 651096134 -857539957 -819684079
REM
CELL 1.54180   50.00000   50.00000   50.00000   90.00000   90.00000   90.00000
LATT -1
SFAC C  
C      1  0.5002640000000  0.5270210000000  0.5861510000000 1.0
C      1  0.5009460000000  0.4368200000000  0.5889760000000 1.0
C      1  0.5576440000000  0.5003140000000  0.4302190000000 1.0
C      1  0.5262210000000  0.5796290000000  0.5173640000000 1.0
C      1  0.5828210000000  0.5579030000000  0.4814720000000 1.0
C      1  0.4085020000000  0.5323200000000  0.4999470000000 1.0
C      1  0.5206100000000  0.5521090000000  0.5212770000000 1.0
C      1  0.4047020000000  0.4961260000000  0.4379880000000 1.0
C      1  0.4259590000000  0.5407530000000  0.4441750000000 1.0
C      1  0.5442790000000  0.4640230000000  0.5250440000000 1.0
C      1  0.5874010000000  0.4915020000000  0.5041270000000 1.0
C      1  0.4298820000000  0.5614270000000  0.4640840000000 1.0
C      1  0.4349740000000  0.5106510000000  0.5596930000000 1.0
C      1  0.5376670000000  0.5213980000000  0.4925880000000 1.0
C      1  0.4654830000000  0.4369160000000  0.5547640000000 1.0
C      1  0.5137220000000  0.4466800000000  0.4575700000000 1.0
C      1  0.5263600000000  0.4688080000000  0.4469700000000 1.0
C      1  0.5936710000000  0.5126910000000  0.4623570000000 1.0
C      1  0.4537990000000  0.5762210000000  0.4699060000000 1.0
C      1  0.4149540000000  0.5273770000000  0.5497810000000 1.0
C      1  0.4590770000000  0.5881260000000  0.4950450000000 1.0
C      1  0.4756360000000  0.4846190000000  0.6017470000000 1.0
C      1  0.5681140000000  0.4780370000000  0.5192930000000 1.0
C      1  0.4759960000000  0.5718980000000  0.4533530000000 1.0
C      1  0.5811220000000  0.5145870000000  0.4369510000000 1.0
C      1  0.5003200000000  0.5155030000000  0.3129270000000 1.0
C      1  0.5062530000000  0.4850440000000  0.4997620000000 1.0
C      1  0.5533980000000  0.5230600000000  0.5433830000000 1.0
C      1  0.5991930000000  0.5177880000000  0.5086220000000 1.0
C      1  0.4689680000000  0.5241160000000  0.3849900000000 1.0
C      1  0.4214680000000  0.4487790000000  0.5675340000000 1.0
C      1  0.4586110000000  0.5058410000000  0.5437290000000 1.0
C      1  0.5484840000000  0.5135560000000  0.5695100000000 1.0
C      1  0.4844920000000  0.5016330000000  0.4477250000000 1.0
C      1  0.5433170000000  0.5333050000000  0.5193540000000 1.0
C      1  0.5886650000000  0.3889930000000  0.4791310000000 1.0
C      1  0.3998680000000  0.4745060000000  0.4560720000000 1.0
C      1  0.4738550000000  0.4405100000000  0.5819250000000 1.0
C      1  0.4375300000000  0.4507560000000  0.5183190000000 1.0
C      1  0.5869740000000  0.4876180000000  0.5832640000000 1.0
C      1  0.4324660000000  0.5294730000000  0.4175890000000 1.0
C      1  0.4374980000000  0.4401830000000  0.5458390000000 1.0
C      1  0.4677850000000  0.5819600000000  0.5433340000000 1.0
C      1  0.4125100000000  0.5572250000000  0.4865160000000 1.0
C      1  0.4792410000000  0.5213160000000  0.3607400000000 1.0
C      1  0.5534350000000  0.5861960000000  0.5123980000000 1.0
C      1  0.4597750000000  0.5262590000000  0.4111270000000 1.0
C      1  0.5823220000000  0.4394590000000  0.4645150000000 1.0
C      1  0.5282630000000  0.5262500000000  0.5844500000000 1.0
C      1  0.5885000000000  0.4869660000000  0.4756460000000 1.0
C      1  0.5249520000000  0.4486410000000  0.5903200000000 1.0
C      1  0.6118400000000  0.5259780000000  0.5312670000000 1.0
C      1  0.4495690000000  0.5059420000000  0.4888840000000 1.0
C      1  0.5902530000000  0.3642790000000  0.4885790000000 1.0
C      1  0.4084930000000  0.4796200000000  0.4834650000000 1.0
C      1  0.4773000000000  0.5254540000000  0.4334870000000 1.0
C      1  0.4755950000000  0.5909070000000  0.5177490000000 1.0
C      1  0.4688770000000  0.4921590000000  0.4715140000000 1.0
C      1  0.5431490000000  0.5356840000000  0.4690520000000 1.0
C      1  0.4892540000000  0.4451320000000  0.4709920000000 1.0
C      1  0.4898530000000  0.5183900000000  0.3366280000000 1.0
C      1  0.4327990000000  0.4670030000000  0.5864710000000 1.0
C      1  0.4825860000000  0.4946530000000  0.5554370000000 1.0
C      1  0.5433040000000  0.4677520000000  0.5869570000000 1.0
C      1  0.4871690000000  0.5021010000000  0.5827030000000 1.0
C      1  0.4990570000000  0.5358620000000  0.5100300000000 1.0
C      1  0.4723310000000  0.4238580000000  0.4680930000000 1.0
C      1  0.5974500000000  0.5332170000000  0.4837530000000 1.0
C      1  0.4278820000000  0.4941640000000  0.5812930000000 1.0
C      1  0.5753520000000  0.4661960000000  0.4614670000000 1.0
C      1  0.4805530000000  0.4512860000000  0.5352950000000 1.0
C      1  0.4596560000000  0.4616240000000  0.5956630000000 1.0
C      1  0.5183040000000  0.4754980000000  0.5240470000000 1.0
C      1  0.4868860000000  0.5503410000000  0.4421030000000 1.0
C      1  0.4970860000000  0.4730280000000  0.5428420000000 1.0
C      1  0.5598630000000  0.4894750000000  0.5798420000000 1.0
C      1  0.4149690000000  0.5062860000000  0.4132450000000 1.0
C      1  0.4820320000000  0.4690920000000  0.4877660000000 1.0
C      1  0.5034140000000  0.5958960000000  0.5147030000000 1.0
C      1  0.5611950000000  0.5547980000000  0.4632240000000 1.0
C      1  0.4570800000000  0.5104800000000  0.5159940000000 1.0
C      1  0.5104040000000  0.4919980000000  0.4392890000000 1.0
C      1  0.5766100000000  0.5770620000000  0.5015450000000 1.0
C      1  0.4653500000000  0.4564620000000  0.5108140000000 1.0
C      1  0.4021770000000  0.5317360000000  0.5269200000000 1.0
C      1  0.4196560000000  0.5086430000000  0.4843490000000 1.0
C      1  0.5543220000000  0.4745110000000  0.4443320000000 1.0
C      1  0.5099580000000  0.5126980000000  0.4957370000000 1.0
C      1  0.5467690000000  0.4107970000000  0.5341990000000 1.0
C      1  0.4165450000000  0.4609270000000  0.5027990000000 1.0
C      1  0.5916250000000  0.3400610000000  0.4981310000000 1.0
C      1  0.4132020000000  0.5176480000000  0.4562940000000 1.0
C      1  0.4734430000000  0.5684120000000  0.5656690000000 1.0
C      1  0.5463230000000  0.4365710000000  0.5303760000000 1.0
C      1  0.5303310000000  0.5086600000000  0.4253120000000 1.0
C      1  0.4859380000000  0.5507310000000  0.5813060000000 1.0
C      1  0.5862480000000  0.4140370000000  0.4708170000000 1.0
END
