TITL C-612604-1799-69 346469.062863743 125000 -1143.30756944659 0 0 186 (C1) n - 1
REM
REM in /home/nfs/bkarasulu/CARBON/AIRSS/Generating-Clusters/TERSOFF/Only-C1/FIRE-HFTN
REM
REM
REM
REM
REM
REM ./C.cell (11c1c37f851c82e70ff6c80c92926a4b)
REM AIRSS Version 0.9.1 bugfix July 2018 build 013d7b7c2542+ Fri, 06 Jul 2018 19:26:36 +0100
REM compiler GCC version 9.2.1 20190827 (Red Hat 9.2.1-1)
REM options -cpp -mtune=generic -march=x86-64 -g -O0 -fpre-include=/usr/include/finclude/math-vector-fortran.h
REM seed 1722993513 1988218271 -1321833091 1777314762 1245552995 -1403923421 1466134345 2124128977 -1867380833 -1590960766 1784154742 -903265718 -744273003 1554145479 -421145265 -478200006 -1872484535 -954406378 2062452711 -1441570387 -1410022893 -937939475 -567366016 1723263268 -1390586625 1342299156 -354367449 -1714262224 -1756020969 -833743676 1155686838 722121537 -1236157577
REM
CELL 1.54180   50.00000   50.00000   50.00000   90.00000   90.00000   90.00000
LATT -1
SFAC C  
C      1  0.5843700000000  0.5417170000000  0.5828840000000 1.0
C      1  0.4427990000000  0.5722190000000  0.4485320000000 1.0
C      1  0.5139250000000  0.4935530000000  0.5772770000000 1.0
C      1  0.5569780000000  0.4276090000000  0.4121610000000 1.0
C      1  0.4635290000000  0.4507980000000  0.5492500000000 1.0
C      1  0.4610230000000  0.4139090000000  0.4221300000000 1.0
C      1  0.5377740000000  0.6284130000000  0.5285210000000 1.0
C      1  0.5171240000000  0.5124560000000  0.4092520000000 1.0
C      1  0.5384920000000  0.5785750000000  0.5464690000000 1.0
C      1  0.4308630000000  0.4974050000000  0.3910730000000 1.0
C      1  0.4099540000000  0.4622040000000  0.5993760000000 1.0
C      1  0.3962190000000  0.4801540000000  0.4591070000000 1.0
C      1  0.4671160000000  0.3911760000000  0.4662870000000 1.0
C      1  0.4412710000000  0.4046480000000  0.4730510000000 1.0
C      1  0.5891550000000  0.4958390000000  0.3926180000000 1.0
C      1  0.4872260000000  0.4466400000000  0.4557360000000 1.0
C      1  0.4389600000000  0.4625070000000  0.4762360000000 1.0
C      1  0.5354100000000  0.3971570000000  0.5457310000000 1.0
C      1  0.4926610000000  0.4642140000000  0.3499860000000 1.0
C      1  0.5384430000000  0.3915400000000  0.4605760000000 1.0
C      1  0.5599990000000  0.4943530000000  0.5040670000000 1.0
C      1  0.4354650000000  0.4888080000000  0.5514010000000 1.0
C      1  0.5227970000000  0.5469470000000  0.3804120000000 1.0
C      1  0.5995880000000  0.5416710000000  0.5581960000000 1.0
C      1  0.4429040000000  0.5357900000000  0.4776320000000 1.0
C      1  0.6057690000000  0.4696380000000  0.6355460000000 1.0
C      1  0.5659040000000  0.5723890000000  0.5518140000000 1.0
C      1  0.4168820000000  0.5050010000000  0.6188330000000 1.0
C      1  0.5366320000000  0.5554980000000  0.5885200000000 1.0
C      1  0.4720360000000  0.4131040000000  0.5062790000000 1.0
C      1  0.4567550000000  0.5761790000000  0.4956430000000 1.0
C      1  0.5555380000000  0.4304590000000  0.4400800000000 1.0
C      1  0.4827080000000  0.3615650000000  0.5877510000000 1.0
C      1  0.4929260000000  0.5858400000000  0.5589720000000 1.0
C      1  0.5106170000000  0.4329300000000  0.4661920000000 1.0
C      1  0.5866150000000  0.3959600000000  0.4681950000000 1.0
C      1  0.5054210000000  0.3794510000000  0.5063910000000 1.0
C      1  0.5357800000000  0.4778940000000  0.4386750000000 1.0
C      1  0.5706010000000  0.5207690000000  0.4988280000000 1.0
C      1  0.5634890000000  0.3820650000000  0.4652230000000 1.0
C      1  0.5466430000000  0.5159820000000  0.4051800000000 1.0
C      1  0.5311300000000  0.4097160000000  0.5716930000000 1.0
C      1  0.4527010000000  0.5328290000000  0.4178210000000 1.0
C      1  0.5540090000000  0.5641450000000  0.4154400000000 1.0
C      1  0.5623940000000  0.4285010000000  0.5115860000000 1.0
C      1  0.4594010000000  0.5235500000000  0.5322140000000 1.0
C      1  0.5356790000000  0.5507610000000  0.4696060000000 1.0
C      1  0.4035530000000  0.5113190000000  0.6417920000000 1.0
C      1  0.3912040000000  0.4650970000000  0.5357070000000 1.0
C      1  0.5449690000000  0.5245890000000  0.4614350000000 1.0
C      1  0.4787620000000  0.5427470000000  0.5382730000000 1.0
C      1  0.6068690000000  0.4509110000000  0.5099350000000 1.0
C      1  0.6047390000000  0.4789690000000  0.5148920000000 1.0
C      1  0.4589780000000  0.6137830000000  0.4639440000000 1.0
C      1  0.4682680000000  0.5451670000000  0.3969330000000 1.0
C      1  0.5207630000000  0.4563140000000  0.3948980000000 1.0
C      1  0.4034200000000  0.4897740000000  0.5983670000000 1.0
C      1  0.5151790000000  0.4656990000000  0.4214040000000 1.0
C      1  0.4442360000000  0.5656540000000  0.5583960000000 1.0
C      1  0.5514250000000  0.4704360000000  0.4906250000000 1.0
C      1  0.5484330000000  0.4252150000000  0.5896020000000 1.0
C      1  0.4908900000000  0.6098470000000  0.5406720000000 1.0
C      1  0.5066910000000  0.5131610000000  0.4364640000000 1.0
C      1  0.5233750000000  0.4996660000000  0.6052300000000 1.0
C      1  0.4109820000000  0.4598240000000  0.4708580000000 1.0
C      1  0.4258350000000  0.4189960000000  0.4528980000000 1.0
C      1  0.5784920000000  0.4420630000000  0.4541400000000 1.0
C      1  0.4379100000000  0.4859140000000  0.5219500000000 1.0
C      1  0.5818330000000  0.4708720000000  0.4501530000000 1.0
C      1  0.5196900000000  0.5755270000000  0.5700450000000 1.0
C      1  0.5326150000000  0.4185930000000  0.4535730000000 1.0
C      1  0.5266910000000  0.5648660000000  0.5246190000000 1.0
C      1  0.5147110000000  0.4368000000000  0.4947350000000 1.0
C      1  0.5859690000000  0.5440110000000  0.5095540000000 1.0
C      1  0.4825890000000  0.5841190000000  0.4263400000000 1.0
C      1  0.5279540000000  0.5781510000000  0.4147690000000 1.0
C      1  0.5955340000000  0.4812750000000  0.6145590000000 1.0
C      1  0.4299810000000  0.6169120000000  0.4676180000000 1.0
C      1  0.5652150000000  0.5631840000000  0.5798980000000 1.0
C      1  0.4039970000000  0.4431160000000  0.5264480000000 1.0
C      1  0.4439240000000  0.4644990000000  0.5638400000000 1.0
C      1  0.5673430000000  0.4972810000000  0.4088400000000 1.0
C      1  0.4620830000000  0.5927580000000  0.4434690000000 1.0
C      1  0.4443620000000  0.5142150000000  0.6154270000000 1.0
C      1  0.4906000000000  0.4342770000000  0.5113140000000 1.0
C      1  0.5734330000000  0.5198690000000  0.4674150000000 1.0
C      1  0.4645610000000  0.4761930000000  0.4238020000000 1.0
C      1  0.4412490000000  0.5645050000000  0.4758370000000 1.0
C      1  0.5547350000000  0.5899960000000  0.4570290000000 1.0
C      1  0.4635130000000  0.4523220000000  0.4709550000000 1.0
C      1  0.5630760000000  0.4799380000000  0.4305920000000 1.0
C      1  0.4379040000000  0.5405800000000  0.5715250000000 1.0
C      1  0.3940210000000  0.5789950000000  0.4558620000000 1.0
C      1  0.4299980000000  0.4521640000000  0.5846400000000 1.0
C      1  0.5182550000000  0.3774370000000  0.5323160000000 1.0
C      1  0.5309960000000  0.4801200000000  0.5347700000000 1.0
C      1  0.4726910000000  0.5661280000000  0.5538640000000 1.0
C      1  0.5054720000000  0.4222620000000  0.5753070000000 1.0
C      1  0.5006620000000  0.5145520000000  0.5660990000000 1.0
C      1  0.4791770000000  0.3866560000000  0.5957360000000 1.0
C      1  0.5064600000000  0.5751660000000  0.5089450000000 1.0
C      1  0.5881160000000  0.5472200000000  0.4611200000000 1.0
C      1  0.5126200000000  0.4921090000000  0.4825360000000 1.0
C      1  0.5928390000000  0.4858210000000  0.5660540000000 1.0
C      1  0.5587570000000  0.5897760000000  0.5026280000000 1.0
C      1  0.5552140000000  0.6133860000000  0.5149280000000 1.0
C      1  0.5466280000000  0.4484720000000  0.6042510000000 1.0
C      1  0.4824450000000  0.5699840000000  0.4000820000000 1.0
C      1  0.4774200000000  0.4310090000000  0.6137330000000 1.0
C      1  0.4365720000000  0.5520140000000  0.4301850000000 1.0
C      1  0.4199080000000  0.4861280000000  0.4165670000000 1.0
C      1  0.5106790000000  0.5708960000000  0.3912000000000 1.0
C      1  0.5856150000000  0.4945210000000  0.5920700000000 1.0
C      1  0.5066750000000  0.4484230000000  0.5655580000000 1.0
C      1  0.4809010000000  0.6179420000000  0.4844340000000 1.0
C      1  0.3886970000000  0.4922340000000  0.5449960000000 1.0
C      1  0.4049290000000  0.4999130000000  0.4399220000000 1.0
C      1  0.3916050000000  0.5130640000000  0.5253990000000 1.0
C      1  0.5885930000000  0.4319780000000  0.5002140000000 1.0
C      1  0.4851560000000  0.4820190000000  0.5189970000000 1.0
C      1  0.5419080000000  0.5255080000000  0.5997710000000 1.0
C      1  0.4838070000000  0.3905920000000  0.4914080000000 1.0
C      1  0.4801900000000  0.4551920000000  0.5271040000000 1.0
C      1  0.4730880000000  0.3953690000000  0.4386110000000 1.0
C      1  0.4962600000000  0.5054520000000  0.6197800000000 1.0
C      1  0.4642220000000  0.4883260000000  0.6508290000000 1.0
C      1  0.4768170000000  0.5230970000000  0.3801640000000 1.0
C      1  0.5025610000000  0.5306450000000  0.5442230000000 1.0
C      1  0.4617560000000  0.5060420000000  0.4281190000000 1.0
C      1  0.6054970000000  0.5476090000000  0.4862550000000 1.0
C      1  0.5272000000000  0.5009940000000  0.4567170000000 1.0
C      1  0.4432600000000  0.4148140000000  0.5008750000000 1.0
C      1  0.5053670000000  0.5228700000000  0.3843530000000 1.0
C      1  0.5328610000000  0.6108300000000  0.4606510000000 1.0
C      1  0.5089420000000  0.5772890000000  0.4365260000000 1.0
C      1  0.5506120000000  0.5733700000000  0.4811160000000 1.0
C      1  0.4224530000000  0.4261630000000  0.5162590000000 1.0
C      1  0.5492500000000  0.5430850000000  0.3954890000000 1.0
C      1  0.5109350000000  0.3548910000000  0.5477060000000 1.0
C      1  0.6220360000000  0.5228680000000  0.4894040000000 1.0
C      1  0.5590890000000  0.4862980000000  0.5315920000000 1.0
C      1  0.5696600000000  0.5693820000000  0.4400460000000 1.0
C      1  0.4309320000000  0.5759720000000  0.5347810000000 1.0
C      1  0.4453980000000  0.5364100000000  0.5981940000000 1.0
C      1  0.4796150000000  0.5106420000000  0.4509730000000 1.0
C      1  0.4859250000000  0.4904720000000  0.4718940000000 1.0
C      1  0.5871350000000  0.4840900000000  0.5386340000000 1.0
C      1  0.4697940000000  0.5317740000000  0.4680510000000 1.0
C      1  0.5195050000000  0.4724440000000  0.5598060000000 1.0
C      1  0.4020010000000  0.5257750000000  0.4558260000000 1.0
C      1  0.3907660000000  0.4974420000000  0.5735250000000 1.0
C      1  0.3912690000000  0.5521910000000  0.4503950000000 1.0
C      1  0.5421890000000  0.4383520000000  0.3925790000000 1.0
C      1  0.4072490000000  0.6020120000000  0.4628140000000 1.0
C      1  0.5901000000000  0.4238310000000  0.4730200000000 1.0
C      1  0.4887840000000  0.5517930000000  0.4727460000000 1.0
C      1  0.5556320000000  0.4088870000000  0.5300820000000 1.0
C      1  0.5088150000000  0.6179090000000  0.4735830000000 1.0
C      1  0.4490990000000  0.5919740000000  0.5178400000000 1.0
C      1  0.5377680000000  0.4731070000000  0.6123450000000 1.0
C      1  0.4394300000000  0.4319220000000  0.4295900000000 1.0
C      1  0.4164600000000  0.5259280000000  0.4819230000000 1.0
C      1  0.4961880000000  0.3482140000000  0.5688040000000 1.0
C      1  0.4685210000000  0.5031240000000  0.6278020000000 1.0
C      1  0.5052410000000  0.4627600000000  0.3728040000000 1.0
C      1  0.4052200000000  0.5321700000000  0.5088380000000 1.0
C      1  0.4408730000000  0.5176720000000  0.5546310000000 1.0
C      1  0.5418470000000  0.4450700000000  0.5003370000000 1.0
C      1  0.5111680000000  0.5588910000000  0.4578540000000 1.0
C      1  0.4716130000000  0.6113370000000  0.5180470000000 1.0
C      1  0.5913890000000  0.4929970000000  0.4663260000000 1.0
C      1  0.5858340000000  0.5555600000000  0.5361420000000 1.0
C      1  0.5486770000000  0.5259600000000  0.5412300000000 1.0
C      1  0.4630090000000  0.4994630000000  0.5166330000000 1.0
C      1  0.4540290000000  0.5049210000000  0.3774150000000 1.0
C      1  0.4866720000000  0.4136360000000  0.5947210000000 1.0
C      1  0.4124750000000  0.5576140000000  0.5214960000000 1.0
C      1  0.4887790000000  0.4619260000000  0.4314360000000 1.0
C      1  0.5712420000000  0.5190570000000  0.5945900000000 1.0
C      1  0.6098920000000  0.4960040000000  0.4904030000000 1.0
C      1  0.5125040000000  0.4870600000000  0.5118090000000 1.0
C      1  0.5261490000000  0.5376490000000  0.5318780000000 1.0
C      1  0.5131570000000  0.6272050000000  0.5392880000000 1.0
C      1  0.4385680000000  0.4618970000000  0.4228360000000 1.0
C      1  0.4040570000000  0.4336130000000  0.4631470000000 1.0
C      1  0.4839480000000  0.5686640000000  0.4943080000000 1.0
END
