TITL C-612602-9376-746 0.305598104542231 125000 -539.872094529533 0 0 90 (C1) n - 1
REM
REM in /home/nfs/bkarasulu/CARBON/AIRSS/Generating-Clusters/TERSOFF/Only-C1/FIRE-HFTN
REM
REM
REM
REM
REM
REM ./C.cell (11c1c37f851c82e70ff6c80c92926a4b)
REM AIRSS Version 0.9.1 bugfix July 2018 build 013d7b7c2542+ Fri, 06 Jul 2018 19:26:36 +0100
REM compiler GCC version 9.2.1 20190827 (Red Hat 9.2.1-1)
REM options -cpp -mtune=generic -march=x86-64 -g -O0 -fpre-include=/usr/include/finclude/math-vector-fortran.h
REM seed -1815071869 1243048129 -1349590306 -2029165942 893382247 270686078 -361965316 587224921 1288281893 647904802 -576717084 -1940611830 134570640 -378330545 -275574083 -439176211 -1800265005 1412941787 -1726922133 380461143 1120035769 -207675825 1490822140 -633463550 373278721 1454662373 -1194389882 -591372865 1772255427 -1051921592 1686413620 -542748217 70608810
REM
CELL 1.54180   50.00000   50.00000   50.00000   90.00000   90.00000   90.00000
LATT -1
SFAC C  
C      1  0.5663840000000  0.5200970000000  0.6051900000000 1.0
C      1  0.5535790000000  0.4871140000000  0.3809740000000 1.0
C      1  0.4447920000000  0.4870790000000  0.5864960000000 1.0
C      1  0.4663700000000  0.4521490000000  0.3915470000000 1.0
C      1  0.5144390000000  0.5746690000000  0.3905080000000 1.0
C      1  0.4812660000000  0.4962460000000  0.3671390000000 1.0
C      1  0.4250950000000  0.4253190000000  0.5600890000000 1.0
C      1  0.4456530000000  0.4096160000000  0.3999970000000 1.0
C      1  0.4734500000000  0.5316710000000  0.5193030000000 1.0
C      1  0.5104490000000  0.5551230000000  0.4100340000000 1.0
C      1  0.4452830000000  0.5325170000000  0.5131240000000 1.0
C      1  0.5577530000000  0.4401220000000  0.4766720000000 1.0
C      1  0.4187170000000  0.4917120000000  0.5201730000000 1.0
C      1  0.4814470000000  0.4243110000000  0.4821470000000 1.0
C      1  0.4132980000000  0.4754110000000  0.4420210000000 1.0
C      1  0.5339360000000  0.5142310000000  0.4233760000000 1.0
C      1  0.5434390000000  0.4821220000000  0.5840670000000 1.0
C      1  0.5185590000000  0.4771040000000  0.5963170000000 1.0
C      1  0.4164030000000  0.4452100000000  0.5756020000000 1.0
C      1  0.4924820000000  0.4270850000000  0.5481680000000 1.0
C      1  0.5877020000000  0.5854460000000  0.4531420000000 1.0
C      1  0.5574040000000  0.5773190000000  0.5049730000000 1.0
C      1  0.5633700000000  0.5732670000000  0.4552070000000 1.0
C      1  0.5432770000000  0.4700300000000  0.5368230000000 1.0
C      1  0.5012700000000  0.4615590000000  0.4577580000000 1.0
C      1  0.4360280000000  0.5477970000000  0.4923130000000 1.0
C      1  0.4675810000000  0.4357100000000  0.5047580000000 1.0
C      1  0.4850960000000  0.4385160000000  0.4574810000000 1.0
C      1  0.5150440000000  0.4118500000000  0.5411920000000 1.0
C      1  0.5472680000000  0.5757650000000  0.4783240000000 1.0
C      1  0.4399900000000  0.5659780000000  0.5736430000000 1.0
C      1  0.4278610000000  0.4962970000000  0.4364280000000 1.0
C      1  0.5519710000000  0.4636570000000  0.4610290000000 1.0
C      1  0.4817080000000  0.5197580000000  0.5441870000000 1.0
C      1  0.4861590000000  0.5893070000000  0.5065610000000 1.0
C      1  0.5293360000000  0.4015550000000  0.5210110000000 1.0
C      1  0.5245020000000  0.4999310000000  0.4456070000000 1.0
C      1  0.5640120000000  0.4877400000000  0.4723440000000 1.0
C      1  0.5235080000000  0.5974340000000  0.5369960000000 1.0
C      1  0.4695290000000  0.4774030000000  0.5958190000000 1.0
C      1  0.5495200000000  0.4639960000000  0.5632570000000 1.0
C      1  0.5236790000000  0.4906660000000  0.5316590000000 1.0
C      1  0.4905010000000  0.4845570000000  0.4718590000000 1.0
C      1  0.4449540000000  0.4177310000000  0.5439970000000 1.0
C      1  0.4295310000000  0.4686550000000  0.5119340000000 1.0
C      1  0.4188850000000  0.5510940000000  0.5643990000000 1.0
C      1  0.5327250000000  0.5425420000000  0.4224130000000 1.0
C      1  0.5484650000000  0.5326040000000  0.5327820000000 1.0
C      1  0.5573600000000  0.5071310000000  0.5822270000000 1.0
C      1  0.5528340000000  0.5578040000000  0.4343680000000 1.0
C      1  0.5188060000000  0.5929430000000  0.3724490000000 1.0
C      1  0.5220860000000  0.5748970000000  0.5539960000000 1.0
C      1  0.4648620000000  0.5546280000000  0.5757270000000 1.0
C      1  0.4541690000000  0.4607790000000  0.5012450000000 1.0
C      1  0.4969490000000  0.5673450000000  0.4924100000000 1.0
C      1  0.5146280000000  0.5215690000000  0.4929550000000 1.0
C      1  0.4689920000000  0.4255010000000  0.5316080000000 1.0
C      1  0.4263690000000  0.5172780000000  0.5288640000000 1.0
C      1  0.4735750000000  0.4742490000000  0.3788270000000 1.0
C      1  0.5445750000000  0.4153510000000  0.4764080000000 1.0
C      1  0.5623100000000  0.4697680000000  0.5160180000000 1.0
C      1  0.4996570000000  0.4983480000000  0.5431600000000 1.0
C      1  0.5086280000000  0.5068660000000  0.4692500000000 1.0
C      1  0.5589020000000  0.4939030000000  0.4995620000000 1.0
C      1  0.4443200000000  0.5115940000000  0.5728680000000 1.0
C      1  0.4931940000000  0.4435040000000  0.5710740000000 1.0
C      1  0.5276910000000  0.5494010000000  0.5478180000000 1.0
C      1  0.5699920000000  0.4467950000000  0.5017070000000 1.0
C      1  0.4938760000000  0.4651610000000  0.5892610000000 1.0
C      1  0.4236970000000  0.5239820000000  0.5565390000000 1.0
C      1  0.4683320000000  0.4807800000000  0.4876930000000 1.0
C      1  0.5258020000000  0.4024960000000  0.4930870000000 1.0
C      1  0.4233590000000  0.4690520000000  0.5853700000000 1.0
C      1  0.5473490000000  0.5983240000000  0.5214230000000 1.0
C      1  0.5445640000000  0.5005120000000  0.4014270000000 1.0
C      1  0.4942140000000  0.5404220000000  0.5014230000000 1.0
C      1  0.4628150000000  0.5341130000000  0.4243810000000 1.0
C      1  0.5273920000000  0.4701400000000  0.4481670000000 1.0
C      1  0.4683840000000  0.5272930000000  0.5680800000000 1.0
C      1  0.4845800000000  0.5474680000000  0.4173170000000 1.0
C      1  0.5364330000000  0.5118030000000  0.5123120000000 1.0
C      1  0.5648410000000  0.5530530000000  0.5178520000000 1.0
C      1  0.4440700000000  0.5164540000000  0.4306370000000 1.0
C      1  0.4990480000000  0.6046540000000  0.5247570000000 1.0
C      1  0.4612140000000  0.4304470000000  0.4084280000000 1.0
C      1  0.5743690000000  0.5324150000000  0.6267220000000 1.0
C      1  0.4722310000000  0.4305210000000  0.4341160000000 1.0
C      1  0.5192370000000  0.5732040000000  0.4761190000000 1.0
C      1  0.4987920000000  0.4023750000000  0.4850940000000 1.0
C      1  0.5618300000000  0.5186050000000  0.5564130000000 1.0
END
