TITL C-612602-9376-973 -0.236892642255129 125000 -1176.98007376587 0 0 190 (C1) n - 1
REM
REM in /home/nfs/bkarasulu/CARBON/AIRSS/Generating-Clusters/TERSOFF/Only-C1/FIRE-HFTN
REM
REM
REM
REM
REM
REM ./C.cell (11c1c37f851c82e70ff6c80c92926a4b)
REM AIRSS Version 0.9.1 bugfix July 2018 build 013d7b7c2542+ Fri, 06 Jul 2018 19:26:36 +0100
REM compiler GCC version 9.2.1 20190827 (Red Hat 9.2.1-1)
REM options -cpp -mtune=generic -march=x86-64 -g -O0 -fpre-include=/usr/include/finclude/math-vector-fortran.h
REM seed 1998036572 862633087 -963358016 1138122103 624448941 -1534412097 1044793176 680427744 1863963567 -1192741238 145716161 94887618 651577181 82158302 -1249157833 71654938 1329683907 -499341117 -1294324869 -384736077 -1159535743 2135257939 146937720 -2089907310 1716220862 -1563759751 -1371750841 -187044752 -641457155 -264352603 -1684830887 1991179264 122200565
REM
CELL 1.54180   50.00000   50.00000   50.00000   90.00000   90.00000   90.00000
LATT -1
SFAC C  
C      1  0.4340260000000  0.4029890000000  0.4236560000000 1.0
C      1  0.4747780000000  0.4295640000000  0.4770260000000 1.0
C      1  0.5604960000000  0.4148220000000  0.4998670000000 1.0
C      1  0.4102990000000  0.4436620000000  0.4124270000000 1.0
C      1  0.5079610000000  0.6191860000000  0.5076440000000 1.0
C      1  0.5307050000000  0.4657390000000  0.5283070000000 1.0
C      1  0.5511550000000  0.3946650000000  0.5676010000000 1.0
C      1  0.4847150000000  0.5713600000000  0.5335970000000 1.0
C      1  0.4573660000000  0.5143220000000  0.5728800000000 1.0
C      1  0.5071640000000  0.5577980000000  0.5212450000000 1.0
C      1  0.4855680000000  0.4270160000000  0.4217310000000 1.0
C      1  0.5398110000000  0.4466660000000  0.5469780000000 1.0
C      1  0.5312850000000  0.5167390000000  0.6407950000000 1.0
C      1  0.5234720000000  0.4085550000000  0.4720130000000 1.0
C      1  0.5233570000000  0.5800560000000  0.4520720000000 1.0
C      1  0.5876730000000  0.5951830000000  0.4864020000000 1.0
C      1  0.4987000000000  0.5345490000000  0.4668950000000 1.0
C      1  0.4730700000000  0.4832380000000  0.5329360000000 1.0
C      1  0.4424440000000  0.4027690000000  0.5212290000000 1.0
C      1  0.4850960000000  0.5328780000000  0.3755520000000 1.0
C      1  0.5944750000000  0.5082210000000  0.5764670000000 1.0
C      1  0.4854740000000  0.4581210000000  0.6252180000000 1.0
C      1  0.4008890000000  0.4470830000000  0.5535070000000 1.0
C      1  0.4967700000000  0.4257590000000  0.5448950000000 1.0
C      1  0.4247230000000  0.4205110000000  0.4048380000000 1.0
C      1  0.4799750000000  0.4037710000000  0.5501450000000 1.0
C      1  0.6146360000000  0.5319120000000  0.5398830000000 1.0
C      1  0.5856440000000  0.5588880000000  0.5134770000000 1.0
C      1  0.6056750000000  0.4075040000000  0.4971750000000 1.0
C      1  0.3901800000000  0.6246600000000  0.3935510000000 1.0
C      1  0.4347340000000  0.4724140000000  0.5816730000000 1.0
C      1  0.5999770000000  0.5427640000000  0.4925930000000 1.0
C      1  0.5316210000000  0.4699060000000  0.4653150000000 1.0
C      1  0.6349230000000  0.4689410000000  0.5171340000000 1.0
C      1  0.3738330000000  0.4814870000000  0.4335450000000 1.0
C      1  0.5961590000000  0.4190600000000  0.5473040000000 1.0
C      1  0.5039630000000  0.4295200000000  0.4741660000000 1.0
C      1  0.4675760000000  0.4797270000000  0.4977550000000 1.0
C      1  0.5512480000000  0.4639120000000  0.5879450000000 1.0
C      1  0.5696810000000  0.4160370000000  0.4547340000000 1.0
C      1  0.5002170000000  0.5153950000000  0.3945010000000 1.0
C      1  0.5671600000000  0.5119100000000  0.5806050000000 1.0
C      1  0.5944310000000  0.5525000000000  0.4641730000000 1.0
C      1  0.4268270000000  0.5324360000000  0.4025300000000 1.0
C      1  0.3911780000000  0.4765030000000  0.4980750000000 1.0
C      1  0.5296500000000  0.6093390000000  0.4917820000000 1.0
C      1  0.5428640000000  0.5260620000000  0.6636520000000 1.0
C      1  0.4814380000000  0.4697480000000  0.5591280000000 1.0
C      1  0.3778350000000  0.4325960000000  0.5525160000000 1.0
C      1  0.6180290000000  0.5172010000000  0.5638870000000 1.0
C      1  0.5165870000000  0.6196100000000  0.5596430000000 1.0
C      1  0.3826550000000  0.5783050000000  0.5909570000000 1.0
C      1  0.4393340000000  0.5081760000000  0.4084220000000 1.0
C      1  0.5955610000000  0.5024900000000  0.4135450000000 1.0
C      1  0.4753480000000  0.5582550000000  0.5858500000000 1.0
C      1  0.5272630000000  0.5297040000000  0.4000910000000 1.0
C      1  0.4978450000000  0.5990310000000  0.6011310000000 1.0
C      1  0.4876900000000  0.3746930000000  0.4816540000000 1.0
C      1  0.5283980000000  0.5459790000000  0.5744880000000 1.0
C      1  0.4581720000000  0.4082560000000  0.4662940000000 1.0
C      1  0.5223430000000  0.5657640000000  0.4989490000000 1.0
C      1  0.4948010000000  0.5216130000000  0.5465520000000 1.0
C      1  0.4088640000000  0.4700620000000  0.4012460000000 1.0
C      1  0.5533630000000  0.5305950000000  0.4591450000000 1.0
C      1  0.4472190000000  0.5208580000000  0.5226730000000 1.0
C      1  0.4143260000000  0.5140270000000  0.5973040000000 1.0
C      1  0.5774730000000  0.5363030000000  0.4469640000000 1.0
C      1  0.3840940000000  0.4570280000000  0.4795750000000 1.0
C      1  0.4602740000000  0.5067440000000  0.4275540000000 1.0
C      1  0.4364430000000  0.4317980000000  0.5230450000000 1.0
C      1  0.5745040000000  0.5955030000000  0.4413180000000 1.0
C      1  0.4580890000000  0.4641440000000  0.4516130000000 1.0
C      1  0.5526780000000  0.5181400000000  0.4064280000000 1.0
C      1  0.4012100000000  0.5274050000000  0.5159090000000 1.0
C      1  0.5818330000000  0.4085340000000  0.4808400000000 1.0
C      1  0.5239840000000  0.4234570000000  0.5478650000000 1.0
C      1  0.5901860000000  0.4819690000000  0.5149970000000 1.0
C      1  0.5618740000000  0.5822260000000  0.4198860000000 1.0
C      1  0.4760510000000  0.4785310000000  0.3693050000000 1.0
C      1  0.6427320000000  0.5122150000000  0.5743430000000 1.0
C      1  0.4793330000000  0.4844160000000  0.6213320000000 1.0
C      1  0.5235720000000  0.5565180000000  0.4078530000000 1.0
C      1  0.4814670000000  0.5778030000000  0.6056360000000 1.0
C      1  0.4747280000000  0.5481580000000  0.3571810000000 1.0
C      1  0.5527880000000  0.4890320000000  0.4079790000000 1.0
C      1  0.3967020000000  0.6013880000000  0.3825550000000 1.0
C      1  0.4879080000000  0.4000790000000  0.4330490000000 1.0
C      1  0.3956300000000  0.6385240000000  0.4652470000000 1.0
C      1  0.5349170000000  0.5739510000000  0.4261760000000 1.0
C      1  0.4921270000000  0.3811180000000  0.5098840000000 1.0
C      1  0.5653270000000  0.4406170000000  0.5095400000000 1.0
C      1  0.5566120000000  0.6156270000000  0.4517580000000 1.0
C      1  0.5860430000000  0.4463300000000  0.5509820000000 1.0
C      1  0.4619770000000  0.4431250000000  0.5203040000000 1.0
C      1  0.4110980000000  0.4581830000000  0.5771710000000 1.0
C      1  0.5040580000000  0.4396030000000  0.4044440000000 1.0
C      1  0.4572120000000  0.4923870000000  0.4516970000000 1.0
C      1  0.3822260000000  0.4613620000000  0.4511880000000 1.0
C      1  0.5296670000000  0.5158860000000  0.5137190000000 1.0
C      1  0.3896590000000  0.6458350000000  0.4404260000000 1.0
C      1  0.5192330000000  0.4977410000000  0.5806630000000 1.0
C      1  0.5791650000000  0.3993880000000  0.5604180000000 1.0
C      1  0.5821350000000  0.4573860000000  0.5247490000000 1.0
C      1  0.4692050000000  0.3909440000000  0.5267720000000 1.0
C      1  0.3943040000000  0.5304500000000  0.6030540000000 1.0
C      1  0.4570380000000  0.5398100000000  0.5022240000000 1.0
C      1  0.5736170000000  0.4933780000000  0.4956800000000 1.0
C      1  0.5526430000000  0.5093100000000  0.5030540000000 1.0
C      1  0.4496510000000  0.4766190000000  0.3734360000000 1.0
C      1  0.5157670000000  0.5994530000000  0.5791620000000 1.0
C      1  0.5262140000000  0.5739010000000  0.5734350000000 1.0
C      1  0.5732380000000  0.5799000000000  0.3952130000000 1.0
C      1  0.4037970000000  0.6216580000000  0.4840360000000 1.0
C      1  0.5236650000000  0.4532560000000  0.5883200000000 1.0
C      1  0.4211650000000  0.5073510000000  0.5205520000000 1.0
C      1  0.5058160000000  0.4723890000000  0.5748680000000 1.0
C      1  0.5597850000000  0.4637560000000  0.4610880000000 1.0
C      1  0.5969700000000  0.5541040000000  0.5388940000000 1.0
C      1  0.4817770000000  0.6084270000000  0.5031370000000 1.0
C      1  0.4590650000000  0.4605190000000  0.5741690000000 1.0
C      1  0.4102090000000  0.4227190000000  0.4591820000000 1.0
C      1  0.3962270000000  0.4307390000000  0.4827730000000 1.0
C      1  0.5047040000000  0.5231050000000  0.6338660000000 1.0
C      1  0.3814880000000  0.5536660000000  0.6010380000000 1.0
C      1  0.4797490000000  0.5280090000000  0.5903720000000 1.0
C      1  0.5796990000000  0.4783480000000  0.4098650000000 1.0
C      1  0.4318210000000  0.4847220000000  0.3935120000000 1.0
C      1  0.4693650000000  0.5849030000000  0.5127380000000 1.0
C      1  0.5050570000000  0.5133070000000  0.4461880000000 1.0
C      1  0.5139870000000  0.5595790000000  0.4714530000000 1.0
C      1  0.5104260000000  0.5307420000000  0.5262730000000 1.0
C      1  0.5708930000000  0.5817730000000  0.5052800000000 1.0
C      1  0.4662270000000  0.4458940000000  0.4316740000000 1.0
C      1  0.6046120000000  0.4845720000000  0.4601070000000 1.0
C      1  0.4030320000000  0.5531190000000  0.5081480000000 1.0
C      1  0.3855620000000  0.4845580000000  0.4092030000000 1.0
C      1  0.5067050000000  0.5240470000000  0.5740130000000 1.0
C      1  0.4700230000000  0.5699230000000  0.5592450000000 1.0
C      1  0.4986900000000  0.4344840000000  0.6204010000000 1.0
C      1  0.4779700000000  0.3882720000000  0.4582470000000 1.0
C      1  0.4846240000000  0.5125570000000  0.6167390000000 1.0
C      1  0.5210480000000  0.3880930000000  0.5182510000000 1.0
C      1  0.6170530000000  0.4911400000000  0.5141940000000 1.0
C      1  0.3994130000000  0.4412260000000  0.4387880000000 1.0
C      1  0.4124650000000  0.5993150000000  0.4953540000000 1.0
C      1  0.5292510000000  0.4786700000000  0.4191550000000 1.0
C      1  0.4464130000000  0.5858390000000  0.5593420000000 1.0
C      1  0.5452250000000  0.5002320000000  0.6226780000000 1.0
C      1  0.4055990000000  0.5763910000000  0.3823470000000 1.0
C      1  0.4872930000000  0.5148440000000  0.4227430000000 1.0
C      1  0.5102490000000  0.4583420000000  0.5106170000000 1.0
C      1  0.4155320000000  0.5532510000000  0.3906460000000 1.0
C      1  0.5428100000000  0.4056540000000  0.4511040000000 1.0
C      1  0.4638200000000  0.4557380000000  0.4790460000000 1.0
C      1  0.6320740000000  0.4419140000000  0.5207240000000 1.0
C      1  0.3987630000000  0.5942980000000  0.5769950000000 1.0
C      1  0.5328330000000  0.3962370000000  0.5446540000000 1.0
C      1  0.5621440000000  0.4520150000000  0.5647240000000 1.0
C      1  0.4213320000000  0.5736500000000  0.5015920000000 1.0
C      1  0.4350860000000  0.5007400000000  0.5843620000000 1.0
C      1  0.4893410000000  0.4428880000000  0.5236910000000 1.0
C      1  0.6301280000000  0.4832970000000  0.4547900000000 1.0
C      1  0.5211060000000  0.4880550000000  0.4456210000000 1.0
C      1  0.3875980000000  0.6409230000000  0.4143980000000 1.0
C      1  0.4122000000000  0.4790070000000  0.5173850000000 1.0
C      1  0.5785700000000  0.4828130000000  0.4702950000000 1.0
C      1  0.4981750000000  0.4861510000000  0.3849550000000 1.0
C      1  0.5827600000000  0.4525620000000  0.4207790000000 1.0
C      1  0.5372310000000  0.4061630000000  0.5920010000000 1.0
C      1  0.5195610000000  0.4280530000000  0.6013750000000 1.0
C      1  0.5320670000000  0.6063770000000  0.4632940000000 1.0
C      1  0.6140420000000  0.4190220000000  0.5228000000000 1.0
C      1  0.5136440000000  0.6273870000000  0.5341620000000 1.0
C      1  0.4491620000000  0.5674500000000  0.5027190000000 1.0
C      1  0.5548930000000  0.5361080000000  0.5734760000000 1.0
C      1  0.5717550000000  0.4428400000000  0.4450230000000 1.0
C      1  0.4653590000000  0.5015760000000  0.4779860000000 1.0
C      1  0.5355570000000  0.4015000000000  0.4970700000000 1.0
C      1  0.5787950000000  0.5256170000000  0.4201710000000 1.0
C      1  0.4742900000000  0.5280530000000  0.4823700000000 1.0
C      1  0.4666180000000  0.5116100000000  0.5434890000000 1.0
C      1  0.5427930000000  0.5855550000000  0.5030800000000 1.0
C      1  0.5113250000000  0.4666840000000  0.4011910000000 1.0
C      1  0.4226560000000  0.5959610000000  0.5654290000000 1.0
C      1  0.4168450000000  0.4522880000000  0.5302550000000 1.0
C      1  0.5477020000000  0.4935950000000  0.5936670000000 1.0
C      1  0.6175020000000  0.5200600000000  0.5132140000000 1.0
C      1  0.4334890000000  0.4084540000000  0.4519740000000 1.0
C      1  0.5905330000000  0.5820250000000  0.4611180000000 1.0
C      1  0.5154070000000  0.4545590000000  0.4829360000000 1.0
END
