TITL C-612600-6631-344 0.0193895730402003 125000 -908.226438203128 0 0 149 (C1) n - 1
REM
REM in /home/nfs/bkarasulu/CARBON/AIRSS/Generating-Clusters/TERSOFF/Only-C1/FIRE-HFTN
REM
REM
REM
REM
REM
REM ./C.cell (11c1c37f851c82e70ff6c80c92926a4b)
REM AIRSS Version 0.9.1 bugfix July 2018 build 013d7b7c2542+ Fri, 06 Jul 2018 19:26:36 +0100
REM compiler GCC version 9.2.1 20190827 (Red Hat 9.2.1-1)
REM options -cpp -mtune=generic -march=x86-64 -g -O0 -fpre-include=/usr/include/finclude/math-vector-fortran.h
REM seed 1410698974 -1462363329 2032401106 -785940398 1099244319 1767360662 -963747808 1903967415 -2067816677 -1855542613 -1810467455 1423176632 -2062566083 -1492027968 -1707234281 423579512 -25043819 90866044 -10646203 1684342576 -1489793645 -641099343 424271248 1442504481 549645308 1990099399 -1504863298 -729360444 1563482203 443183037 471178418 695423897 -903145926
REM
CELL 1.54180   50.00000   50.00000   50.00000   90.00000   90.00000   90.00000
LATT -1
SFAC C  
C      1  0.4024670000000  0.4437720000000  0.5332560000000 1.0
C      1  0.5682530000000  0.4957890000000  0.4817150000000 1.0
C      1  0.4429330000000  0.4161560000000  0.5330630000000 1.0
C      1  0.5036730000000  0.5277430000000  0.5623850000000 1.0
C      1  0.5768440000000  0.3989610000000  0.4954060000000 1.0
C      1  0.4708080000000  0.4147290000000  0.5756630000000 1.0
C      1  0.3900090000000  0.4941250000000  0.5274880000000 1.0
C      1  0.5908800000000  0.5652320000000  0.4623140000000 1.0
C      1  0.5123930000000  0.4017800000000  0.5230870000000 1.0
C      1  0.5155050000000  0.4465160000000  0.4771730000000 1.0
C      1  0.4764030000000  0.5041870000000  0.4049830000000 1.0
C      1  0.4957700000000  0.5206600000000  0.3918990000000 1.0
C      1  0.6369330000000  0.4659600000000  0.5199760000000 1.0
C      1  0.3971510000000  0.5170670000000  0.5438400000000 1.0
C      1  0.4982810000000  0.5910740000000  0.5573440000000 1.0
C      1  0.4748440000000  0.4642220000000  0.4417150000000 1.0
C      1  0.5692690000000  0.4251690000000  0.5370990000000 1.0
C      1  0.3868600000000  0.4999700000000  0.4747480000000 1.0
C      1  0.5338510000000  0.4768960000000  0.4004280000000 1.0
C      1  0.5539290000000  0.4340740000000  0.4201370000000 1.0
C      1  0.5931820000000  0.5004150000000  0.5520840000000 1.0
C      1  0.5694550000000  0.6416170000000  0.5367410000000 1.0
C      1  0.5309800000000  0.5727160000000  0.4215860000000 1.0
C      1  0.4193140000000  0.4255880000000  0.5178840000000 1.0
C      1  0.4265410000000  0.5752020000000  0.4571800000000 1.0
C      1  0.4287170000000  0.5077420000000  0.3937130000000 1.0
C      1  0.4524070000000  0.4779080000000  0.6013190000000 1.0
C      1  0.4854320000000  0.4595790000000  0.5517030000000 1.0
C      1  0.5753990000000  0.5004280000000  0.5743290000000 1.0
C      1  0.4796600000000  0.5771920000000  0.4359500000000 1.0
C      1  0.5223210000000  0.4633680000000  0.5884390000000 1.0
C      1  0.4020270000000  0.4375430000000  0.5612770000000 1.0
C      1  0.5863850000000  0.5376450000000  0.4601040000000 1.0
C      1  0.5364240000000  0.4461620000000  0.5679290000000 1.0
C      1  0.5913040000000  0.4791420000000  0.5330890000000 1.0
C      1  0.5026650000000  0.4138900000000  0.4317090000000 1.0
C      1  0.4341070000000  0.4790170000000  0.5307630000000 1.0
C      1  0.4306630000000  0.4891100000000  0.4521470000000 1.0
C      1  0.4486890000000  0.5992740000000  0.4994020000000 1.0
C      1  0.4654020000000  0.4097660000000  0.5168740000000 1.0
C      1  0.5917040000000  0.5485350000000  0.5478500000000 1.0
C      1  0.4176780000000  0.4727820000000  0.4341600000000 1.0
C      1  0.4840950000000  0.4767040000000  0.4137140000000 1.0
C      1  0.5136670000000  0.4667880000000  0.5178720000000 1.0
C      1  0.4370900000000  0.4659910000000  0.5797080000000 1.0
C      1  0.5007890000000  0.5128170000000  0.4673050000000 1.0
C      1  0.5057570000000  0.5068630000000  0.6067550000000 1.0
C      1  0.5166840000000  0.3876710000000  0.4990160000000 1.0
C      1  0.4251860000000  0.5281940000000  0.4818680000000 1.0
C      1  0.5210280000000  0.3976110000000  0.4490640000000 1.0
C      1  0.4760150000000  0.5480380000000  0.5972780000000 1.0
C      1  0.4538230000000  0.5520400000000  0.5783620000000 1.0
C      1  0.4765160000000  0.4136480000000  0.4465100000000 1.0
C      1  0.4960880000000  0.6070950000000  0.5038260000000 1.0
C      1  0.5983450000000  0.4416260000000  0.5016390000000 1.0
C      1  0.5643810000000  0.4710780000000  0.5281420000000 1.0
C      1  0.4511080000000  0.4792300000000  0.5086570000000 1.0
C      1  0.5519160000000  0.4515510000000  0.4408170000000 1.0
C      1  0.3958570000000  0.5413550000000  0.5293220000000 1.0
C      1  0.5685240000000  0.6459110000000  0.5624370000000 1.0
C      1  0.3789090000000  0.4982440000000  0.5018230000000 1.0
C      1  0.4731750000000  0.5890190000000  0.5446730000000 1.0
C      1  0.5753380000000  0.4567500000000  0.4558990000000 1.0
C      1  0.5493540000000  0.5784470000000  0.5579330000000 1.0
C      1  0.5703630000000  0.6377300000000  0.5105510000000 1.0
C      1  0.4355700000000  0.5460150000000  0.5007560000000 1.0
C      1  0.4454400000000  0.4804820000000  0.5561240000000 1.0
C      1  0.5228420000000  0.5179400000000  0.5224950000000 1.0
C      1  0.5554580000000  0.4489740000000  0.5458260000000 1.0
C      1  0.5702250000000  0.6346700000000  0.4827650000000 1.0
C      1  0.5623590000000  0.6097620000000  0.4716430000000 1.0
C      1  0.5063190000000  0.3887190000000  0.4726430000000 1.0
C      1  0.4594280000000  0.4873570000000  0.4540140000000 1.0
C      1  0.4867180000000  0.5081080000000  0.5587910000000 1.0
C      1  0.5408270000000  0.5492080000000  0.4331390000000 1.0
C      1  0.5351110000000  0.5236920000000  0.4372300000000 1.0
C      1  0.4663590000000  0.5002700000000  0.4990020000000 1.0
C      1  0.5299190000000  0.5951150000000  0.4387020000000 1.0
C      1  0.4639690000000  0.5491990000000  0.5028420000000 1.0
C      1  0.6066420000000  0.5247940000000  0.5462280000000 1.0
C      1  0.4716140000000  0.5996170000000  0.5168920000000 1.0
C      1  0.5719500000000  0.5245320000000  0.4817660000000 1.0
C      1  0.5241430000000  0.4008140000000  0.5486680000000 1.0
C      1  0.5084260000000  0.4621320000000  0.4041470000000 1.0
C      1  0.5532360000000  0.5405790000000  0.4951040000000 1.0
C      1  0.4732700000000  0.4840860000000  0.5560690000000 1.0
C      1  0.4142280000000  0.5186820000000  0.5672050000000 1.0
C      1  0.5075650000000  0.5443690000000  0.3871730000000 1.0
C      1  0.4467340000000  0.4209220000000  0.5618610000000 1.0
C      1  0.4962060000000  0.4240990000000  0.5840930000000 1.0
C      1  0.5761060000000  0.4846910000000  0.4563870000000 1.0
C      1  0.5570690000000  0.4891510000000  0.4097210000000 1.0
C      1  0.5038580000000  0.4595310000000  0.4550940000000 1.0
C      1  0.5210210000000  0.4203410000000  0.5689540000000 1.0
C      1  0.4092610000000  0.5010800000000  0.3776980000000 1.0
C      1  0.5257360000000  0.4749950000000  0.4457890000000 1.0
C      1  0.4910590000000  0.4210220000000  0.5221210000000 1.0
C      1  0.4505260000000  0.5178410000000  0.4082240000000 1.0
C      1  0.4803760000000  0.5204010000000  0.6061930000000 1.0
C      1  0.5074580000000  0.4336050000000  0.4111930000000 1.0
C      1  0.5487350000000  0.3938690000000  0.4517620000000 1.0
C      1  0.4965660000000  0.4478890000000  0.5293040000000 1.0
C      1  0.5349100000000  0.6051910000000  0.4648010000000 1.0
C      1  0.4475090000000  0.5441320000000  0.4202730000000 1.0
C      1  0.5671020000000  0.3923050000000  0.4713200000000 1.0
C      1  0.3684800000000  0.4975760000000  0.4546460000000 1.0
C      1  0.4184440000000  0.5560830000000  0.5216240000000 1.0
C      1  0.6331790000000  0.5252870000000  0.5397840000000 1.0
C      1  0.4980200000000  0.4496950000000  0.5981450000000 1.0
C      1  0.4344810000000  0.5913110000000  0.4776050000000 1.0
C      1  0.4753240000000  0.4626360000000  0.6092140000000 1.0
C      1  0.4522840000000  0.5726920000000  0.5573580000000 1.0
C      1  0.4785460000000  0.3955400000000  0.4692840000000 1.0
C      1  0.4284020000000  0.5552660000000  0.4386000000000 1.0
C      1  0.4276280000000  0.4394250000000  0.5739440000000 1.0
C      1  0.4535650000000  0.4565340000000  0.4931650000000 1.0
C      1  0.5872090000000  0.5240500000000  0.4348950000000 1.0
C      1  0.5271220000000  0.4906750000000  0.5956950000000 1.0
C      1  0.4433120000000  0.4385380000000  0.4739420000000 1.0
C      1  0.4218610000000  0.4253590000000  0.4887210000000 1.0
C      1  0.5814150000000  0.5896830000000  0.4669990000000 1.0
C      1  0.4682460000000  0.5629380000000  0.4162780000000 1.0
C      1  0.4630760000000  0.3952960000000  0.4926440000000 1.0
C      1  0.4542630000000  0.5070860000000  0.5998610000000 1.0
C      1  0.5165030000000  0.4927360000000  0.5275480000000 1.0
C      1  0.5525990000000  0.5006340000000  0.5884390000000 1.0
C      1  0.5752100000000  0.4985350000000  0.4309380000000 1.0
C      1  0.5836550000000  0.4196650000000  0.5133510000000 1.0
C      1  0.5266000000000  0.5357790000000  0.5014730000000 1.0
C      1  0.5721570000000  0.5658820000000  0.5526420000000 1.0
C      1  0.5775180000000  0.6553550000000  0.4664110000000 1.0
C      1  0.5303510000000  0.4610560000000  0.4961850000000 1.0
C      1  0.5149980000000  0.6085470000000  0.4847470000000 1.0
C      1  0.4286810000000  0.5725170000000  0.5418810000000 1.0
C      1  0.5931200000000  0.4446820000000  0.4738480000000 1.0
C      1  0.5212800000000  0.5031080000000  0.4497220000000 1.0
C      1  0.4753260000000  0.5019340000000  0.4723870000000 1.0
C      1  0.5550360000000  0.4761250000000  0.5005410000000 1.0
C      1  0.5057610000000  0.5366850000000  0.4823790000000 1.0
C      1  0.4743930000000  0.5421830000000  0.5271480000000 1.0
C      1  0.4144710000000  0.5056800000000  0.4691490000000 1.0
C      1  0.4068880000000  0.4716750000000  0.5289790000000 1.0
C      1  0.5243720000000  0.5871180000000  0.5605620000000 1.0
C      1  0.4379460000000  0.5259870000000  0.5819460000000 1.0
C      1  0.6098470000000  0.4626110000000  0.5183150000000 1.0
C      1  0.4837030000000  0.5547450000000  0.4829170000000 1.0
C      1  0.5184470000000  0.5672370000000  0.3967760000000 1.0
C      1  0.4823730000000  0.5732390000000  0.4621710000000 1.0
C      1  0.4605380000000  0.4373370000000  0.4500020000000 1.0
END
