TITL C-612606-7351-580 -556.624936668968 125000 -795.653520295122 0 0 129 (C1) n - 1
REM
REM in /home/nfs/bkarasulu/CARBON/AIRSS/Generating-Clusters/TERSOFF/Only-C1/FIRE-HFTN
REM
REM
REM
REM
REM
REM ./C.cell (11c1c37f851c82e70ff6c80c92926a4b)
REM AIRSS Version 0.9.1 bugfix July 2018 build 013d7b7c2542+ Fri, 06 Jul 2018 19:26:36 +0100
REM compiler GCC version 9.2.1 20190827 (Red Hat 9.2.1-1)
REM options -cpp -mtune=generic -march=x86-64 -g -O0 -fpre-include=/usr/include/finclude/math-vector-fortran.h
REM seed 482341751 1638086853 1870351704 1525638146 1329554350 -221519068 1501405211 713616819 1748275753 118199203 -633748678 1152926184 -2100799618 -176796460 196914512 1505028106 -1607686746 1714883161 1679370740 1558392628 -2017164129 -1208987430 1825380476 1197562749 -781597263 1783170200 889516095 1356000923 1998654813 -1922844470 2134898881 -1882339113 -433441528
REM
CELL 1.54180   50.00000   50.00000   50.00000   90.00000   90.00000   90.00000
LATT -1
SFAC C  
C      1  0.5658580000000  0.4599350000000  0.4251950000000 1.0
C      1  0.4402520000000  0.5723800000000  0.4327170000000 1.0
C      1  0.5111880000000  0.4109690000000  0.4241840000000 1.0
C      1  0.5586140000000  0.5347290000000  0.3935900000000 1.0
C      1  0.4438340000000  0.5235050000000  0.5579230000000 1.0
C      1  0.4782420000000  0.4637430000000  0.4970840000000 1.0
C      1  0.5269510000000  0.5485630000000  0.5381710000000 1.0
C      1  0.4048100000000  0.5214610000000  0.4661790000000 1.0
C      1  0.4555310000000  0.5073970000000  0.5795040000000 1.0
C      1  0.5643150000000  0.4066070000000  0.4763070000000 1.0
C      1  0.5660540000000  0.4737260000000  0.4514110000000 1.0
C      1  0.5829020000000  0.5065230000000  0.5045090000000 1.0
C      1  0.4908760000000  0.4967730000000  0.6105150000000 1.0
C      1  0.4079250000000  0.5497220000000  0.4696290000000 1.0
C      1  0.4851650000000  0.5181590000000  0.3983300000000 1.0
C      1  0.4648880000000  0.5190970000000  0.4194600000000 1.0
C      1  0.4724050000000  0.5271910000000  0.5135670000000 1.0
C      1  0.4254630000000  0.5110940000000  0.5391210000000 1.0
C      1  0.4995970000000  0.4140600000000  0.6274890000000 1.0
C      1  0.5838600000000  0.5324160000000  0.4595290000000 1.0
C      1  0.4086160000000  0.4717660000000  0.4827260000000 1.0
C      1  0.5032920000000  0.4942650000000  0.3985280000000 1.0
C      1  0.4262930000000  0.5225230000000  0.5130050000000 1.0
C      1  0.5182800000000  0.5077080000000  0.6078390000000 1.0
C      1  0.5194510000000  0.5236540000000  0.5497280000000 1.0
C      1  0.5284500000000  0.4424310000000  0.5389320000000 1.0
C      1  0.4951910000000  0.5768740000000  0.4927220000000 1.0
C      1  0.4921700000000  0.5168800000000  0.4938710000000 1.0
C      1  0.5711050000000  0.5581620000000  0.4544500000000 1.0
C      1  0.5087840000000  0.4609830000000  0.5492610000000 1.0
C      1  0.4942670000000  0.5757120000000  0.4286740000000 1.0
C      1  0.4702130000000  0.5745340000000  0.4778140000000 1.0
C      1  0.5439190000000  0.4916210000000  0.4593650000000 1.0
C      1  0.5494430000000  0.5962630000000  0.4738590000000 1.0
C      1  0.5399160000000  0.5082240000000  0.5618060000000 1.0
C      1  0.4918300000000  0.5151280000000  0.5533020000000 1.0
C      1  0.4649520000000  0.4012710000000  0.4958260000000 1.0
C      1  0.5724640000000  0.4611710000000  0.5196800000000 1.0
C      1  0.4108460000000  0.4571340000000  0.3832070000000 1.0
C      1  0.4949980000000  0.4702810000000  0.5990370000000 1.0
C      1  0.4859000000000  0.3888080000000  0.4837210000000 1.0
C      1  0.5375660000000  0.3959430000000  0.4872300000000 1.0
C      1  0.5325280000000  0.5165050000000  0.6301130000000 1.0
C      1  0.4196620000000  0.5640500000000  0.4479590000000 1.0
C      1  0.5257570000000  0.4377040000000  0.6659020000000 1.0
C      1  0.5591050000000  0.5599130000000  0.4072720000000 1.0
C      1  0.5828540000000  0.4474390000000  0.4963140000000 1.0
C      1  0.4675200000000  0.6093260000000  0.5090020000000 1.0
C      1  0.5154260000000  0.5717090000000  0.5508680000000 1.0
C      1  0.5787270000000  0.4528520000000  0.4684120000000 1.0
C      1  0.5646360000000  0.5729750000000  0.4781510000000 1.0
C      1  0.4403080000000  0.5791410000000  0.5346320000000 1.0
C      1  0.4655920000000  0.5654310000000  0.5439070000000 1.0
C      1  0.5564470000000  0.4421050000000  0.5345900000000 1.0
C      1  0.4826220000000  0.4274920000000  0.5800250000000 1.0
C      1  0.4970910000000  0.4753610000000  0.5170800000000 1.0
C      1  0.4209960000000  0.4831370000000  0.5419720000000 1.0
C      1  0.4567220000000  0.6004540000000  0.4814810000000 1.0
C      1  0.4166280000000  0.4959180000000  0.4677250000000 1.0
C      1  0.4742250000000  0.4919780000000  0.5628500000000 1.0
C      1  0.5059630000000  0.5394020000000  0.3956010000000 1.0
C      1  0.4906610000000  0.5941140000000  0.5155190000000 1.0
C      1  0.4395240000000  0.4424440000000  0.5185770000000 1.0
C      1  0.4878610000000  0.4148020000000  0.4378220000000 1.0
C      1  0.5287730000000  0.5082090000000  0.4405370000000 1.0
C      1  0.5287600000000  0.5385340000000  0.4373260000000 1.0
C      1  0.5123700000000  0.3867720000000  0.4777890000000 1.0
C      1  0.5125510000000  0.4215210000000  0.6494610000000 1.0
C      1  0.5771950000000  0.5177420000000  0.4089190000000 1.0
C      1  0.5740180000000  0.4888890000000  0.5244780000000 1.0
C      1  0.4610360000000  0.4210720000000  0.5161160000000 1.0
C      1  0.4852350000000  0.4239570000000  0.5319740000000 1.0
C      1  0.4795240000000  0.5260120000000  0.4677590000000 1.0
C      1  0.4182230000000  0.5671890000000  0.5202460000000 1.0
C      1  0.5518480000000  0.5564980000000  0.4344270000000 1.0
C      1  0.5290610000000  0.6037030000000  0.4578380000000 1.0
C      1  0.4605030000000  0.5476630000000  0.4760660000000 1.0
C      1  0.4904350000000  0.5802290000000  0.5402870000000 1.0
C      1  0.5344360000000  0.4242240000000  0.4323480000000 1.0
C      1  0.4653590000000  0.5094540000000  0.6062650000000 1.0
C      1  0.5182610000000  0.4541550000000  0.4750830000000 1.0
C      1  0.4910460000000  0.4474030000000  0.4777360000000 1.0
C      1  0.5277110000000  0.5844450000000  0.5716320000000 1.0
C      1  0.5779570000000  0.4182540000000  0.5004780000000 1.0
C      1  0.5737530000000  0.4253920000000  0.4551390000000 1.0
C      1  0.4482730000000  0.5346340000000  0.4996010000000 1.0
C      1  0.5619720000000  0.4309390000000  0.4281160000000 1.0
C      1  0.4673880000000  0.5065020000000  0.4479240000000 1.0
C      1  0.4068860000000  0.5613790000000  0.4960160000000 1.0
C      1  0.5149980000000  0.4710180000000  0.5774720000000 1.0
C      1  0.5873500000000  0.5180170000000  0.4347530000000 1.0
C      1  0.4509470000000  0.4560370000000  0.4171480000000 1.0
C      1  0.5101800000000  0.4951120000000  0.5000590000000 1.0
C      1  0.4308380000000  0.4561660000000  0.3999080000000 1.0
C      1  0.4433790000000  0.6069380000000  0.5261010000000 1.0
C      1  0.4226560000000  0.6173790000000  0.5081620000000 1.0
C      1  0.5093620000000  0.5961840000000  0.4411790000000 1.0
C      1  0.5356850000000  0.4035300000000  0.5155890000000 1.0
C      1  0.4457640000000  0.4930130000000  0.4658300000000 1.0
C      1  0.4390750000000  0.4610540000000  0.5414820000000 1.0
C      1  0.5429690000000  0.4862460000000  0.6695250000000 1.0
C      1  0.4794340000000  0.4375750000000  0.4528010000000 1.0
C      1  0.5626500000000  0.5518260000000  0.4987580000000 1.0
C      1  0.5268940000000  0.4813520000000  0.4803990000000 1.0
C      1  0.4302400000000  0.6122230000000  0.4818310000000 1.0
C      1  0.5167050000000  0.5596420000000  0.4934600000000 1.0
C      1  0.4518420000000  0.5223030000000  0.6261360000000 1.0
C      1  0.5783680000000  0.5288170000000  0.4884400000000 1.0
C      1  0.5624370000000  0.5000160000000  0.5475370000000 1.0
C      1  0.4889460000000  0.4162130000000  0.6032340000000 1.0
C      1  0.4849940000000  0.4832360000000  0.4403920000000 1.0
C      1  0.5368380000000  0.4606490000000  0.6735270000000 1.0
C      1  0.4636170000000  0.4659260000000  0.5549340000000 1.0
C      1  0.5085740000000  0.4913040000000  0.4266990000000 1.0
C      1  0.4698440000000  0.5348550000000  0.5426240000000 1.0
C      1  0.5304900000000  0.4946960000000  0.5844020000000 1.0
C      1  0.4659960000000  0.5769350000000  0.4262460000000 1.0
C      1  0.5302240000000  0.4372100000000  0.4574030000000 1.0
C      1  0.5082990000000  0.5520910000000  0.4211850000000 1.0
C      1  0.5416470000000  0.5075340000000  0.6535390000000 1.0
C      1  0.4832950000000  0.4436770000000  0.5551740000000 1.0
C      1  0.5139300000000  0.4187990000000  0.5272180000000 1.0
C      1  0.4710530000000  0.4588850000000  0.4361530000000 1.0
C      1  0.5369910000000  0.5512680000000  0.5113760000000 1.0
C      1  0.5252730000000  0.4996870000000  0.3812680000000 1.0
C      1  0.4307370000000  0.4576040000000  0.4953250000000 1.0
C      1  0.5321950000000  0.5277890000000  0.3840340000000 1.0
C      1  0.5613430000000  0.4150590000000  0.5236540000000 1.0
C      1  0.4538380000000  0.4737240000000  0.4867090000000 1.0
END
