TITL C-612607-4507-305 2802.75788429966 125000 -877.672752189911 0 0 146 (C1) n - 1
REM
REM in /home/nfs/bkarasulu/CARBON/AIRSS/Generating-Clusters/TERSOFF/Only-C1/FIRE-HFTN
REM
REM
REM
REM
REM
REM ./C.cell (11c1c37f851c82e70ff6c80c92926a4b)
REM AIRSS Version 0.9.1 bugfix July 2018 build 013d7b7c2542+ Fri, 06 Jul 2018 19:26:36 +0100
REM compiler GCC version 9.2.1 20190827 (Red Hat 9.2.1-1)
REM options -cpp -mtune=generic -march=x86-64 -g -O0 -fpre-include=/usr/include/finclude/math-vector-fortran.h
REM seed -724208501 1130732951 1983427795 -759708111 1057148084 -1587284374 -1093969132 1036068889 -1659081035 77757328 519817788 -1165169136 2055891804 789349445 2093473211 -720213443 129304630 -2018784656 -308902195 -2049223721 812523065 700384458 1967006339 98675535 -182348797 -1308093291 -186617762 1195618847 -1239051768 1790525268 -901464712 475474755 1081304520
REM
CELL 1.54180   50.00000   50.00000   50.00000   90.00000   90.00000   90.00000
LATT -1
SFAC C  
C      1  0.5692090000000  0.5628270000000  0.4805800000000 1.0
C      1  0.5036990000000  0.4035550000000  0.4318030000000 1.0
C      1  0.5411340000000  0.3202750000000  0.5385590000000 1.0
C      1  0.5026980000000  0.4199500000000  0.5613910000000 1.0
C      1  0.5784500000000  0.4876760000000  0.4657930000000 1.0
C      1  0.4415440000000  0.5004400000000  0.5306880000000 1.0
C      1  0.5014240000000  0.6024710000000  0.4371540000000 1.0
C      1  0.5006240000000  0.5336190000000  0.5508080000000 1.0
C      1  0.4053080000000  0.4594050000000  0.4963750000000 1.0
C      1  0.4966750000000  0.4590150000000  0.4591920000000 1.0
C      1  0.5489180000000  0.4434490000000  0.5536060000000 1.0
C      1  0.5209220000000  0.5530440000000  0.4598810000000 1.0
C      1  0.3956240000000  0.5073350000000  0.4833470000000 1.0
C      1  0.5275540000000  0.4322810000000  0.5712940000000 1.0
C      1  0.5782230000000  0.5598170000000  0.5089650000000 1.0
C      1  0.5605200000000  0.4846630000000  0.5284580000000 1.0
C      1  0.4089120000000  0.5794020000000  0.5060020000000 1.0
C      1  0.4653770000000  0.4852750000000  0.4767930000000 1.0
C      1  0.5243110000000  0.5251510000000  0.5005040000000 1.0
C      1  0.4646530000000  0.5551150000000  0.4304180000000 1.0
C      1  0.5196440000000  0.4746410000000  0.4641270000000 1.0
C      1  0.4946710000000  0.5054810000000  0.5512990000000 1.0
C      1  0.4408120000000  0.5105950000000  0.4203560000000 1.0
C      1  0.5147720000000  0.4456110000000  0.4131490000000 1.0
C      1  0.5129570000000  0.5585680000000  0.5918920000000 1.0
C      1  0.4501730000000  0.4518540000000  0.5050070000000 1.0
C      1  0.4728920000000  0.5101760000000  0.4158200000000 1.0
C      1  0.5892440000000  0.5582160000000  0.4612100000000 1.0
C      1  0.6297940000000  0.5194590000000  0.3644890000000 1.0
C      1  0.4984450000000  0.5405090000000  0.5024700000000 1.0
C      1  0.4562880000000  0.5877700000000  0.4989640000000 1.0
C      1  0.4499640000000  0.5541920000000  0.4066350000000 1.0
C      1  0.5359380000000  0.4328890000000  0.6247620000000 1.0
C      1  0.3955880000000  0.5372310000000  0.5326750000000 1.0
C      1  0.4098340000000  0.4751060000000  0.4311020000000 1.0
C      1  0.4068490000000  0.5323080000000  0.5602560000000 1.0
C      1  0.4163460000000  0.5024640000000  0.4345400000000 1.0
C      1  0.4914060000000  0.4620330000000  0.5325480000000 1.0
C      1  0.4663150000000  0.4507530000000  0.5718760000000 1.0
C      1  0.4593660000000  0.5786030000000  0.4445200000000 1.0
C      1  0.5117480000000  0.6003610000000  0.5722000000000 1.0
C      1  0.4948080000000  0.5461930000000  0.3862680000000 1.0
C      1  0.4785570000000  0.4819670000000  0.4243110000000 1.0
C      1  0.5589270000000  0.4272770000000  0.4649770000000 1.0
C      1  0.5543240000000  0.3981400000000  0.5356540000000 1.0
C      1  0.5334460000000  0.4656690000000  0.4867710000000 1.0
C      1  0.4471190000000  0.6018030000000  0.4450210000000 1.0
C      1  0.4731650000000  0.5403010000000  0.6049510000000 1.0
C      1  0.4469220000000  0.5597380000000  0.5690450000000 1.0
C      1  0.5428610000000  0.5708290000000  0.4696680000000 1.0
C      1  0.4818450000000  0.4962910000000  0.4995360000000 1.0
C      1  0.4717190000000  0.4733630000000  0.5873800000000 1.0
C      1  0.5303470000000  0.5964430000000  0.4767830000000 1.0
C      1  0.5321040000000  0.4323410000000  0.5989930000000 1.0
C      1  0.4038660000000  0.4155820000000  0.5608720000000 1.0
C      1  0.5602070000000  0.4256090000000  0.5330480000000 1.0
C      1  0.4169660000000  0.4494370000000  0.4294510000000 1.0
C      1  0.5893170000000  0.5037560000000  0.3941080000000 1.0
C      1  0.4749240000000  0.4378210000000  0.4974940000000 1.0
C      1  0.4527870000000  0.4071840000000  0.5597750000000 1.0
C      1  0.5644350000000  0.5338040000000  0.5699770000000 1.0
C      1  0.4916510000000  0.4914150000000  0.5777780000000 1.0
C      1  0.5592890000000  0.4871820000000  0.5784810000000 1.0
C      1  0.5418760000000  0.5552730000000  0.5314430000000 1.0
C      1  0.4399000000000  0.4981400000000  0.4801370000000 1.0
C      1  0.4522070000000  0.4100540000000  0.4297010000000 1.0
C      1  0.5028010000000  0.6024860000000  0.4654990000000 1.0
C      1  0.5461010000000  0.3458590000000  0.5379270000000 1.0
C      1  0.4321900000000  0.5753120000000  0.4901770000000 1.0
C      1  0.5237670000000  0.4231110000000  0.4280370000000 1.0
C      1  0.5173860000000  0.5042750000000  0.3914380000000 1.0
C      1  0.5359550000000  0.6031650000000  0.5592560000000 1.0
C      1  0.4949410000000  0.4636540000000  0.4099790000000 1.0
C      1  0.4753310000000  0.4760300000000  0.4518370000000 1.0
C      1  0.5680020000000  0.4980450000000  0.4113600000000 1.0
C      1  0.5430100000000  0.4707660000000  0.5107950000000 1.0
C      1  0.4955300000000  0.5806170000000  0.5857850000000 1.0
C      1  0.4453680000000  0.5276470000000  0.5330310000000 1.0
C      1  0.5397530000000  0.5133120000000  0.4803050000000 1.0
C      1  0.6189630000000  0.4616610000000  0.4742510000000 1.0
C      1  0.6312130000000  0.4339770000000  0.5112460000000 1.0
C      1  0.3959500000000  0.5647630000000  0.5245820000000 1.0
C      1  0.5831300000000  0.5327630000000  0.5231970000000 1.0
C      1  0.5737450000000  0.5067820000000  0.5133250000000 1.0
C      1  0.4818440000000  0.6008330000000  0.4886080000000 1.0
C      1  0.4319490000000  0.4273860000000  0.4292210000000 1.0
C      1  0.3899170000000  0.5198660000000  0.5094070000000 1.0
C      1  0.6097150000000  0.5113170000000  0.3789850000000 1.0
C      1  0.4483330000000  0.5270560000000  0.4848640000000 1.0
C      1  0.4491280000000  0.5558310000000  0.5408080000000 1.0
C      1  0.4241400000000  0.4157250000000  0.5181610000000 1.0
C      1  0.5742840000000  0.5834560000000  0.5265400000000 1.0
C      1  0.4744460000000  0.4232980000000  0.5705290000000 1.0
C      1  0.5001060000000  0.5991490000000  0.5130080000000 1.0
C      1  0.5794890000000  0.4317640000000  0.5122230000000 1.0
C      1  0.4125660000000  0.5448250000000  0.4581530000000 1.0
C      1  0.5032920000000  0.4163120000000  0.5330150000000 1.0
C      1  0.4607230000000  0.5773280000000  0.5262780000000 1.0
C      1  0.5509030000000  0.3719090000000  0.5370360000000 1.0
C      1  0.5439100000000  0.5481410000000  0.5573320000000 1.0
C      1  0.3814290000000  0.4566910000000  0.5112230000000 1.0
C      1  0.5228770000000  0.5036310000000  0.4583550000000 1.0
C      1  0.4252160000000  0.4391460000000  0.5018630000000 1.0
C      1  0.5100640000000  0.5283980000000  0.4469210000000 1.0
C      1  0.6065780000000  0.4273700000000  0.5196970000000 1.0
C      1  0.5268900000000  0.6033460000000  0.5045140000000 1.0
C      1  0.4478900000000  0.4724100000000  0.5267800000000 1.0
C      1  0.4693390000000  0.5664100000000  0.5872890000000 1.0
C      1  0.5868340000000  0.5325890000000  0.5521770000000 1.0
C      1  0.4892640000000  0.5789320000000  0.5299410000000 1.0
C      1  0.4869530000000  0.4362240000000  0.4722570000000 1.0
C      1  0.6370830000000  0.4496420000000  0.4901000000000 1.0
C      1  0.5907790000000  0.4633270000000  0.4743350000000 1.0
C      1  0.4967880000000  0.5515600000000  0.5292520000000 1.0
C      1  0.3822470000000  0.4304310000000  0.5546350000000 1.0
C      1  0.5033560000000  0.5906480000000  0.4130460000000 1.0
C      1  0.4655140000000  0.4614380000000  0.5460020000000 1.0
C      1  0.5755000000000  0.4403560000000  0.4842740000000 1.0
C      1  0.4464270000000  0.5272060000000  0.6009080000000 1.0
C      1  0.4275340000000  0.4100630000000  0.5462090000000 1.0
C      1  0.5503020000000  0.4201850000000  0.4387260000000 1.0
C      1  0.5533000000000  0.5138450000000  0.5884180000000 1.0
C      1  0.3735180000000  0.4460240000000  0.5345790000000 1.0
C      1  0.6077000000000  0.5534190000000  0.4434500000000 1.0
C      1  0.5665800000000  0.5051850000000  0.4851250000000 1.0
C      1  0.4750410000000  0.5241880000000  0.4966180000000 1.0
C      1  0.5418340000000  0.4987340000000  0.4008730000000 1.0
C      1  0.5584030000000  0.4717080000000  0.5546570000000 1.0
C      1  0.4289320000000  0.5384800000000  0.5795500000000 1.0
C      1  0.5739220000000  0.4922690000000  0.4382930000000 1.0
C      1  0.5583100000000  0.5973830000000  0.5442790000000 1.0
C      1  0.4026670000000  0.5182900000000  0.4559320000000 1.0
C      1  0.4331960000000  0.5500970000000  0.4768550000000 1.0
C      1  0.5125430000000  0.4923820000000  0.5964230000000 1.0
C      1  0.5265290000000  0.5161580000000  0.6038880000000 1.0
C      1  0.4824590000000  0.5320680000000  0.4359670000000 1.0
C      1  0.4925360000000  0.5182720000000  0.3926000000000 1.0
C      1  0.5011980000000  0.5709540000000  0.3948460000000 1.0
C      1  0.4938900000000  0.4896010000000  0.5259330000000 1.0
C      1  0.5037840000000  0.5367510000000  0.6089790000000 1.0
C      1  0.4143130000000  0.4851830000000  0.4861560000000 1.0
C      1  0.5193540000000  0.5448090000000  0.5684680000000 1.0
C      1  0.5001940000000  0.5584100000000  0.4793880000000 1.0
C      1  0.4942140000000  0.4380870000000  0.5181060000000 1.0
C      1  0.5693440000000  0.4095980000000  0.4218550000000 1.0
C      1  0.4771010000000  0.4004840000000  0.4309320000000 1.0
END
