TITL C-612602-9376-1448 -354.84012816732 125000 -726.920974264806 0 0 119 (C1) n - 1
REM
REM in /home/nfs/bkarasulu/CARBON/AIRSS/Generating-Clusters/TERSOFF/Only-C1/FIRE-HFTN
REM
REM
REM
REM
REM
REM ./C.cell (11c1c37f851c82e70ff6c80c92926a4b)
REM AIRSS Version 0.9.1 bugfix July 2018 build 013d7b7c2542+ Fri, 06 Jul 2018 19:26:36 +0100
REM compiler GCC version 9.2.1 20190827 (Red Hat 9.2.1-1)
REM options -cpp -mtune=generic -march=x86-64 -g -O0 -fpre-include=/usr/include/finclude/math-vector-fortran.h
REM seed -769669696 668245383 609929804 743449945 36778644 -127134392 -610301881 -522071506 -596327285 -578063359 -581642644 630369947 -508251915 395755694 -1782957559 -404774245 274531209 -1627992088 -1087387159 -1338649132 84877896 604312853 1829245129 -2043349985 710978146 -832587252 -734665732 -1833817620 25887312 307870977 -773044545 -1443143095 540996276
REM
CELL 1.54180   50.00000   50.00000   50.00000   90.00000   90.00000   90.00000
LATT -1
SFAC C  
C      1  0.5285890000000  0.5225430000000  0.4721540000000 1.0
C      1  0.4500130000000  0.4218620000000  0.5672420000000 1.0
C      1  0.4971540000000  0.4882060000000  0.5913150000000 1.0
C      1  0.4995090000000  0.4950330000000  0.4098970000000 1.0
C      1  0.5516790000000  0.4167060000000  0.4801940000000 1.0
C      1  0.6312660000000  0.5518430000000  0.4107360000000 1.0
C      1  0.5934320000000  0.4925240000000  0.4767030000000 1.0
C      1  0.5897700000000  0.5314500000000  0.4237180000000 1.0
C      1  0.5943950000000  0.5059250000000  0.5400360000000 1.0
C      1  0.4276010000000  0.5893680000000  0.5258370000000 1.0
C      1  0.4566260000000  0.4775350000000  0.4334490000000 1.0
C      1  0.4734790000000  0.5749440000000  0.4732330000000 1.0
C      1  0.5507800000000  0.4950930000000  0.5766130000000 1.0
C      1  0.5115210000000  0.5776790000000  0.4408150000000 1.0
C      1  0.6140880000000  0.5441190000000  0.4306420000000 1.0
C      1  0.3641910000000  0.5193960000000  0.4753960000000 1.0
C      1  0.4809820000000  0.5509900000000  0.5942550000000 1.0
C      1  0.5129850000000  0.4753210000000  0.5471080000000 1.0
C      1  0.5272750000000  0.4705570000000  0.4833610000000 1.0
C      1  0.4843550000000  0.4968180000000  0.5206910000000 1.0
C      1  0.5905710000000  0.5328430000000  0.5269940000000 1.0
C      1  0.5930610000000  0.4686070000000  0.5783360000000 1.0
C      1  0.4591990000000  0.5524830000000  0.4060980000000 1.0
C      1  0.3827830000000  0.5071900000000  0.4583790000000 1.0
C      1  0.5108730000000  0.4372020000000  0.5162830000000 1.0
C      1  0.4564730000000  0.5463970000000  0.5808060000000 1.0
C      1  0.4424570000000  0.4479820000000  0.5582860000000 1.0
C      1  0.4877670000000  0.4104550000000  0.4438760000000 1.0
C      1  0.4553440000000  0.5719150000000  0.4488870000000 1.0
C      1  0.3943430000000  0.4615110000000  0.4803800000000 1.0
C      1  0.4739330000000  0.4872560000000  0.4132880000000 1.0
C      1  0.5945240000000  0.5429770000000  0.4998760000000 1.0
C      1  0.3842920000000  0.4789840000000  0.4589650000000 1.0
C      1  0.4406740000000  0.5113230000000  0.4916810000000 1.0
C      1  0.5474030000000  0.5210320000000  0.5660010000000 1.0
C      1  0.4521010000000  0.5673670000000  0.5610170000000 1.0
C      1  0.5703970000000  0.5383500000000  0.4833310000000 1.0
C      1  0.5321980000000  0.4559380000000  0.5084680000000 1.0
C      1  0.5228440000000  0.5683670000000  0.4890310000000 1.0
C      1  0.4302550000000  0.5667280000000  0.5425630000000 1.0
C      1  0.6069320000000  0.4820350000000  0.4973180000000 1.0
C      1  0.4622020000000  0.5972920000000  0.4893180000000 1.0
C      1  0.4342930000000  0.4486600000000  0.5297000000000 1.0
C      1  0.5048220000000  0.5704670000000  0.4158970000000 1.0
C      1  0.6168020000000  0.5496960000000  0.4841190000000 1.0
C      1  0.5648330000000  0.5435590000000  0.5325870000000 1.0
C      1  0.5180730000000  0.5808820000000  0.5154640000000 1.0
C      1  0.4828530000000  0.5059910000000  0.4669210000000 1.0
C      1  0.5500760000000  0.5436280000000  0.5822040000000 1.0
C      1  0.5718390000000  0.4561240000000  0.4511690000000 1.0
C      1  0.4421350000000  0.6013030000000  0.5066870000000 1.0
C      1  0.4717750000000  0.4292000000000  0.4579800000000 1.0
C      1  0.5780850000000  0.4888410000000  0.5666530000000 1.0
C      1  0.4014000000000  0.5231130000000  0.4440250000000 1.0
C      1  0.5222920000000  0.4397250000000  0.4428620000000 1.0
C      1  0.5354860000000  0.6006810000000  0.5234870000000 1.0
C      1  0.5682540000000  0.4351250000000  0.4684480000000 1.0
C      1  0.5565400000000  0.4693700000000  0.4303430000000 1.0
C      1  0.4886260000000  0.5462940000000  0.5319420000000 1.0
C      1  0.4327570000000  0.4233750000000  0.5157600000000 1.0
C      1  0.5117400000000  0.4581860000000  0.4625330000000 1.0
C      1  0.6082570000000  0.4876480000000  0.5235200000000 1.0
C      1  0.4961800000000  0.5738710000000  0.5333030000000 1.0
C      1  0.5037370000000  0.5761110000000  0.4679850000000 1.0
C      1  0.5150290000000  0.4130310000000  0.4504330000000 1.0
C      1  0.4588660000000  0.4023310000000  0.5505480000000 1.0
C      1  0.5766800000000  0.5127840000000  0.4711980000000 1.0
C      1  0.4847350000000  0.5598370000000  0.4016110000000 1.0
C      1  0.4985830000000  0.5296250000000  0.5532950000000 1.0
C      1  0.5253520000000  0.4863110000000  0.5895090000000 1.0
C      1  0.6363110000000  0.4093640000000  0.6089690000000 1.0
C      1  0.4692470000000  0.5488160000000  0.4869090000000 1.0
C      1  0.4603820000000  0.5250520000000  0.4737460000000 1.0
C      1  0.5089410000000  0.5148980000000  0.4520200000000 1.0
C      1  0.4146310000000  0.4473350000000  0.4414190000000 1.0
C      1  0.6074530000000  0.4489240000000  0.5886760000000 1.0
C      1  0.4378540000000  0.4569870000000  0.4291310000000 1.0
C      1  0.4434360000000  0.5551080000000  0.4294070000000 1.0
C      1  0.6504760000000  0.3898710000000  0.6189220000000 1.0
C      1  0.5374010000000  0.4500330000000  0.4219950000000 1.0
C      1  0.5272950000000  0.5567370000000  0.5868980000000 1.0
C      1  0.4480860000000  0.4677120000000  0.5133220000000 1.0
C      1  0.5367010000000  0.4753760000000  0.5299130000000 1.0
C      1  0.4742460000000  0.4703640000000  0.5227190000000 1.0
C      1  0.4668380000000  0.5421900000000  0.5147900000000 1.0
C      1  0.5255490000000  0.5006930000000  0.4925420000000 1.0
C      1  0.5419610000000  0.5463240000000  0.4816720000000 1.0
C      1  0.4667360000000  0.4799150000000  0.4619050000000 1.0
C      1  0.4953730000000  0.5026200000000  0.4958520000000 1.0
C      1  0.4681880000000  0.4918170000000  0.5834570000000 1.0
C      1  0.5036600000000  0.4145350000000  0.4999020000000 1.0
C      1  0.4992000000000  0.5019690000000  0.5451900000000 1.0
C      1  0.6218920000000  0.4291640000000  0.5988380000000 1.0
C      1  0.4558590000000  0.4056430000000  0.5227720000000 1.0
C      1  0.4832140000000  0.4553600000000  0.4638810000000 1.0
C      1  0.4436560000000  0.4831340000000  0.4897920000000 1.0
C      1  0.4748240000000  0.4073110000000  0.5006240000000 1.0
C      1  0.3912510000000  0.4634820000000  0.4356650000000 1.0
C      1  0.4575190000000  0.4174080000000  0.4786490000000 1.0
C      1  0.4203950000000  0.5396590000000  0.4347410000000 1.0
C      1  0.4217560000000  0.5411380000000  0.5325620000000 1.0
C      1  0.4541430000000  0.5174010000000  0.5813700000000 1.0
C      1  0.5457410000000  0.5237650000000  0.5376790000000 1.0
C      1  0.3953380000000  0.5329620000000  0.5353580000000 1.0
C      1  0.5034260000000  0.5445450000000  0.5786550000000 1.0
C      1  0.3714910000000  0.5296180000000  0.5240910000000 1.0
C      1  0.4409760000000  0.5279080000000  0.5163830000000 1.0
C      1  0.4308450000000  0.4253070000000  0.4866120000000 1.0
C      1  0.5678930000000  0.5163460000000  0.4206570000000 1.0
C      1  0.5196540000000  0.5036460000000  0.4277520000000 1.0
C      1  0.6211160000000  0.5489940000000  0.4575760000000 1.0
C      1  0.4755360000000  0.5838150000000  0.5518240000000 1.0
C      1  0.5237440000000  0.4087820000000  0.4780830000000 1.0
C      1  0.4528960000000  0.4697470000000  0.5733300000000 1.0
C      1  0.5482130000000  0.4967360000000  0.4257490000000 1.0
C      1  0.4135590000000  0.4411590000000  0.4707260000000 1.0
C      1  0.4951280000000  0.4538420000000  0.5344480000000 1.0
C      1  0.5402590000000  0.5024950000000  0.5193780000000 1.0
C      1  0.3592920000000  0.5260810000000  0.5006910000000 1.0
END
