TITL C-612601-4209-265 -2926.60326351884 125000 -600.00114132861 0 0 99 (C1) n - 1
REM
REM in /home/nfs/bkarasulu/CARBON/AIRSS/Generating-Clusters/TERSOFF/Only-C1/FIRE-HFTN
REM
REM
REM
REM
REM
REM ./C.cell (11c1c37f851c82e70ff6c80c92926a4b)
REM AIRSS Version 0.9.1 bugfix July 2018 build 013d7b7c2542+ Fri, 06 Jul 2018 19:26:36 +0100
REM compiler GCC version 9.2.1 20190827 (Red Hat 9.2.1-1)
REM options -cpp -mtune=generic -march=x86-64 -g -O0 -fpre-include=/usr/include/finclude/math-vector-fortran.h
REM seed 1142551348 -1585132378 -2141247588 1977142385 408195289 97607111 1858465306 -2004950948 -1331206134 528328632 -1286672296 -1950399207 -1129233166 125330290 89134198 467269517 1813228445 -1197606095 1260838966 -1855360813 -2008168741 -1120316850 466250561 -1654337790 -1974554599 -159922484 -1226451991 -601112337 -1967383757 1547919857 1262549691 1222249107 -486441063
REM
CELL 1.54180   50.00000   50.00000   50.00000   90.00000   90.00000   90.00000
LATT -1
SFAC C  
C      1  0.4868770000000  0.4611840000000  0.6014420000000 1.0
C      1  0.5817460000000  0.5164080000000  0.5916380000000 1.0
C      1  0.5125140000000  0.5456450000000  0.4196660000000 1.0
C      1  0.4244280000000  0.4788630000000  0.4962860000000 1.0
C      1  0.5342100000000  0.4715730000000  0.5197660000000 1.0
C      1  0.4908620000000  0.5031380000000  0.4936250000000 1.0
C      1  0.4803710000000  0.4666470000000  0.4104450000000 1.0
C      1  0.5653560000000  0.5430500000000  0.5535730000000 1.0
C      1  0.4703680000000  0.5645630000000  0.5123650000000 1.0
C      1  0.5373880000000  0.5526920000000  0.4273970000000 1.0
C      1  0.4088830000000  0.4788810000000  0.4710080000000 1.0
C      1  0.4576390000000  0.5195300000000  0.4621950000000 1.0
C      1  0.5548260000000  0.5692900000000  0.4944690000000 1.0
C      1  0.5112080000000  0.5042450000000  0.4740880000000 1.0
C      1  0.5531180000000  0.4047270000000  0.4230250000000 1.0
C      1  0.5716880000000  0.5358050000000  0.5266670000000 1.0
C      1  0.5840690000000  0.4572780000000  0.4744780000000 1.0
C      1  0.3803060000000  0.5155000000000  0.4516600000000 1.0
C      1  0.4235690000000  0.5469930000000  0.4884550000000 1.0
C      1  0.4839250000000  0.4787950000000  0.4542380000000 1.0
C      1  0.5369060000000  0.5076230000000  0.5722910000000 1.0
C      1  0.4738160000000  0.5670030000000  0.4387090000000 1.0
C      1  0.4656240000000  0.4795000000000  0.5982340000000 1.0
C      1  0.4654580000000  0.4432620000000  0.4252230000000 1.0
C      1  0.5679720000000  0.5548360000000  0.4716810000000 1.0
C      1  0.5253650000000  0.5868090000000  0.5330740000000 1.0
C      1  0.4704410000000  0.5187650000000  0.4332790000000 1.0
C      1  0.4245990000000  0.5048820000000  0.5397110000000 1.0
C      1  0.4790940000000  0.5755920000000  0.4874990000000 1.0
C      1  0.5168920000000  0.5245830000000  0.5599060000000 1.0
C      1  0.4878140000000  0.4356440000000  0.4761960000000 1.0
C      1  0.4321590000000  0.5947340000000  0.5131810000000 1.0
C      1  0.4635450000000  0.5673250000000  0.4649970000000 1.0
C      1  0.5599300000000  0.4400660000000  0.4715870000000 1.0
C      1  0.5418750000000  0.4287590000000  0.4923060000000 1.0
C      1  0.5247470000000  0.4819390000000  0.4237400000000 1.0
C      1  0.5503000000000  0.5476430000000  0.5129940000000 1.0
C      1  0.5491460000000  0.4529240000000  0.5355510000000 1.0
C      1  0.5884530000000  0.5079370000000  0.4590050000000 1.0
C      1  0.4659860000000  0.5566260000000  0.5594770000000 1.0
C      1  0.4520950000000  0.6109410000000  0.5224830000000 1.0
C      1  0.4526140000000  0.4756680000000  0.4928100000000 1.0
C      1  0.4162560000000  0.4607500000000  0.4497100000000 1.0
C      1  0.5384570000000  0.5674610000000  0.5532050000000 1.0
C      1  0.5219350000000  0.4383660000000  0.4066240000000 1.0
C      1  0.5408980000000  0.4289750000000  0.4256770000000 1.0
C      1  0.5368860000000  0.4736500000000  0.4480240000000 1.0
C      1  0.4720500000000  0.4957190000000  0.4138650000000 1.0
C      1  0.4800970000000  0.4332570000000  0.6037940000000 1.0
C      1  0.4175620000000  0.5023760000000  0.5127190000000 1.0
C      1  0.5313110000000  0.5867990000000  0.5025410000000 1.0
C      1  0.5024540000000  0.4473680000000  0.5623860000000 1.0
C      1  0.5907580000000  0.4683670000000  0.5002470000000 1.0
C      1  0.5824380000000  0.5185810000000  0.5060640000000 1.0
C      1  0.4851010000000  0.5436300000000  0.4267390000000 1.0
C      1  0.4644690000000  0.5015820000000  0.4854810000000 1.0
C      1  0.5115420000000  0.4236800000000  0.4913850000000 1.0
C      1  0.4503870000000  0.4294180000000  0.5075010000000 1.0
C      1  0.5623540000000  0.5220510000000  0.5732460000000 1.0
C      1  0.5747630000000  0.4911100000000  0.5059980000000 1.0
C      1  0.5523430000000  0.4619510000000  0.5622730000000 1.0
C      1  0.5151690000000  0.5305660000000  0.4662520000000 1.0
C      1  0.5110700000000  0.5219250000000  0.5319460000000 1.0
C      1  0.4397180000000  0.5106810000000  0.5628790000000 1.0
C      1  0.5090490000000  0.4634740000000  0.4084300000000 1.0
C      1  0.4802740000000  0.4116380000000  0.5873370000000 1.0
C      1  0.4977670000000  0.5002620000000  0.5202910000000 1.0
C      1  0.5097400000000  0.4648230000000  0.5839310000000 1.0
C      1  0.5567120000000  0.5573950000000  0.4455700000000 1.0
C      1  0.4482810000000  0.4918040000000  0.5819520000000 1.0
C      1  0.5238170000000  0.5384840000000  0.5126300000000 1.0
C      1  0.5071660000000  0.4749010000000  0.5253450000000 1.0
C      1  0.5473110000000  0.4851340000000  0.4989050000000 1.0
C      1  0.4333740000000  0.4137730000000  0.5195490000000 1.0
C      1  0.4214760000000  0.5718470000000  0.5028290000000 1.0
C      1  0.4458940000000  0.5450380000000  0.4702400000000 1.0
C      1  0.4424150000000  0.4572810000000  0.4381450000000 1.0
C      1  0.4577570000000  0.4777790000000  0.4503050000000 1.0
C      1  0.4651320000000  0.4484400000000  0.4922190000000 1.0
C      1  0.5827120000000  0.5292630000000  0.4781330000000 1.0
C      1  0.4090230000000  0.5223620000000  0.4925940000000 1.0
C      1  0.4778900000000  0.6138730000000  0.5318030000000 1.0
C      1  0.4496910000000  0.5367200000000  0.5660530000000 1.0
C      1  0.4792130000000  0.5693260000000  0.5386440000000 1.0
C      1  0.3980060000000  0.5062420000000  0.4701800000000 1.0
C      1  0.5340420000000  0.4791300000000  0.5772260000000 1.0
C      1  0.5462500000000  0.4465270000000  0.4475800000000 1.0
C      1  0.5192000000000  0.5520810000000  0.5679470000000 1.0
C      1  0.5078240000000  0.5764350000000  0.4871460000000 1.0
C      1  0.4965910000000  0.5927720000000  0.5389580000000 1.0
C      1  0.4936370000000  0.4548850000000  0.5384600000000 1.0
C      1  0.5028680000000  0.4064970000000  0.5133560000000 1.0
C      1  0.4943010000000  0.3991050000000  0.5378340000000 1.0
C      1  0.4858130000000  0.4003230000000  0.5634230000000 1.0
C      1  0.5527050000000  0.4297410000000  0.5194680000000 1.0
C      1  0.5138300000000  0.5482180000000  0.4873120000000 1.0
C      1  0.4813230000000  0.4307310000000  0.4476000000000 1.0
C      1  0.5890990000000  0.4803910000000  0.4563320000000 1.0
C      1  0.5336240000000  0.4871740000000  0.4732900000000 1.0
END
