TITL C-612607-4507-1255 0.454022764588735 125000 -449.174053087418 0 0 75 (C1) n - 1
REM
REM in /home/nfs/bkarasulu/CARBON/AIRSS/Generating-Clusters/TERSOFF/Only-C1/FIRE-HFTN
REM
REM
REM
REM
REM
REM ./C.cell (11c1c37f851c82e70ff6c80c92926a4b)
REM AIRSS Version 0.9.1 bugfix July 2018 build 013d7b7c2542+ Fri, 06 Jul 2018 19:26:36 +0100
REM compiler GCC version 9.2.1 20190827 (Red Hat 9.2.1-1)
REM options -cpp -mtune=generic -march=x86-64 -g -O0 -fpre-include=/usr/include/finclude/math-vector-fortran.h
REM seed 2140451555 680754059 55930853 2071872801 1884774969 1894703769 -545945321 -1853286924 -650483507 363173536 -1095822137 978810940 1203439023 230554328 1811111231 -958824543 -880647760 -2034739021 -1540274178 270460100 -2026198229 1468349833 -341912050 893431627 708564284 -1626692751 -2087607518 33763880 -295341038 1821653347 -1656353496 -688980592 1712032809
REM
CELL 1.54180   50.00000   50.00000   50.00000   90.00000   90.00000   90.00000
LATT -1
SFAC C  
C      1  0.4926330000000  0.5758780000000  0.4664370000000 1.0
C      1  0.5273120000000  0.5009460000000  0.5488530000000 1.0
C      1  0.4771980000000  0.5518060000000  0.5017340000000 1.0
C      1  0.5401480000000  0.4377260000000  0.5583290000000 1.0
C      1  0.4901780000000  0.5293630000000  0.4567470000000 1.0
C      1  0.5924690000000  0.5133230000000  0.5409570000000 1.0
C      1  0.5050520000000  0.4457070000000  0.4154560000000 1.0
C      1  0.5025390000000  0.4877440000000  0.5108590000000 1.0
C      1  0.3686620000000  0.5266860000000  0.5043610000000 1.0
C      1  0.4782350000000  0.5335270000000  0.5222210000000 1.0
C      1  0.5001410000000  0.5184780000000  0.4079120000000 1.0
C      1  0.5531370000000  0.5687050000000  0.5634150000000 1.0
C      1  0.5590660000000  0.5228330000000  0.4408670000000 1.0
C      1  0.4584730000000  0.4736020000000  0.4235260000000 1.0
C      1  0.6165350000000  0.5074040000000  0.5525040000000 1.0
C      1  0.4774670000000  0.5216000000000  0.6039610000000 1.0
C      1  0.4862280000000  0.5013560000000  0.4558250000000 1.0
C      1  0.5502340000000  0.4616430000000  0.5653560000000 1.0
C      1  0.5367990000000  0.5059030000000  0.4412010000000 1.0
C      1  0.4826350000000  0.4806470000000  0.4371920000000 1.0
C      1  0.4998880000000  0.5984260000000  0.4819570000000 1.0
C      1  0.5075220000000  0.4827410000000  0.5392290000000 1.0
C      1  0.4867670000000  0.4722270000000  0.5831870000000 1.0
C      1  0.4027470000000  0.4886070000000  0.4920890000000 1.0
C      1  0.5233530000000  0.4232140000000  0.5432800000000 1.0
C      1  0.4686990000000  0.4546600000000  0.5408970000000 1.0
C      1  0.4744700000000  0.5460660000000  0.6124460000000 1.0
C      1  0.5229000000000  0.5270810000000  0.5384080000000 1.0
C      1  0.5093160000000  0.5506830000000  0.4650830000000 1.0
C      1  0.4778220000000  0.4347520000000  0.5211920000000 1.0
C      1  0.4436490000000  0.4647600000000  0.5314310000000 1.0
C      1  0.5015740000000  0.4214060000000  0.5276630000000 1.0
C      1  0.5069150000000  0.4731990000000  0.4229750000000 1.0
C      1  0.4807760000000  0.5067240000000  0.5117140000000 1.0
C      1  0.4633630000000  0.5428200000000  0.4552350000000 1.0
C      1  0.5192770000000  0.4991870000000  0.4191780000000 1.0
C      1  0.5306630000000  0.5363470000000  0.5121290000000 1.0
C      1  0.4741490000000  0.5276300000000  0.4108260000000 1.0
C      1  0.4810780000000  0.4970960000000  0.5945600000000 1.0
C      1  0.4391560000000  0.4575310000000  0.5039670000000 1.0
C      1  0.4975850000000  0.5415870000000  0.5428130000000 1.0
C      1  0.4909920000000  0.4499920000000  0.5995500000000 1.0
C      1  0.5245750000000  0.4831400000000  0.4919630000000 1.0
C      1  0.5040510000000  0.4273860000000  0.4372720000000 1.0
C      1  0.5895330000000  0.5466960000000  0.5057330000000 1.0
C      1  0.5146170000000  0.5471220000000  0.4923120000000 1.0
C      1  0.5862660000000  0.5447570000000  0.4793740000000 1.0
C      1  0.5762060000000  0.5364760000000  0.4561290000000 1.0
C      1  0.4608500000000  0.4377390000000  0.4977700000000 1.0
C      1  0.4672540000000  0.5625570000000  0.4763250000000 1.0
C      1  0.4226420000000  0.4706030000000  0.4848200000000 1.0
C      1  0.5472100000000  0.4669780000000  0.4995160000000 1.0
C      1  0.4352510000000  0.4828180000000  0.4370040000000 1.0
C      1  0.4839650000000  0.4423260000000  0.3962470000000 1.0
C      1  0.4528150000000  0.5312270000000  0.4309650000000 1.0
C      1  0.4629250000000  0.4297550000000  0.4705520000000 1.0
C      1  0.5519660000000  0.4881430000000  0.5553070000000 1.0
C      1  0.4324840000000  0.5110910000000  0.4341600000000 1.0
C      1  0.5739780000000  0.5575940000000  0.5509450000000 1.0
C      1  0.5030930000000  0.5692450000000  0.5499650000000 1.0
C      1  0.3853950000000  0.5076220000000  0.4983460000000 1.0
C      1  0.4988500000000  0.6023750000000  0.5086810000000 1.0
C      1  0.5689130000000  0.4798650000000  0.5122520000000 1.0
C      1  0.4868210000000  0.4224810000000  0.4574750000000 1.0
C      1  0.4403920000000  0.4382230000000  0.4550710000000 1.0
C      1  0.4280060000000  0.4641610000000  0.4575660000000 1.0
C      1  0.5291380000000  0.4958650000000  0.4669990000000 1.0
C      1  0.5486800000000  0.4406820000000  0.4921940000000 1.0
C      1  0.4609500000000  0.4563300000000  0.4011340000000 1.0
C      1  0.4879830000000  0.4695530000000  0.5550440000000 1.0
C      1  0.5729950000000  0.4932810000000  0.5366940000000 1.0
C      1  0.4961140000000  0.5906060000000  0.5327050000000 1.0
C      1  0.5267440000000  0.5730200000000  0.5652120000000 1.0
C      1  0.4951900000000  0.4286590000000  0.6139170000000 1.0
C      1  0.5863480000000  0.5400120000000  0.5328270000000 1.0
END
