TITL C-612607-4507-584 1.09940198652626 125000 -202.367137919761 0 0 34 (C1) n - 1
REM
REM in /home/nfs/bkarasulu/CARBON/AIRSS/Generating-Clusters/TERSOFF/Only-C1/FIRE-HFTN
REM
REM
REM
REM
REM
REM ./C.cell (11c1c37f851c82e70ff6c80c92926a4b)
REM AIRSS Version 0.9.1 bugfix July 2018 build 013d7b7c2542+ Fri, 06 Jul 2018 19:26:36 +0100
REM compiler GCC version 9.2.1 20190827 (Red Hat 9.2.1-1)
REM options -cpp -mtune=generic -march=x86-64 -g -O0 -fpre-include=/usr/include/finclude/math-vector-fortran.h
REM seed 546679089 1239213288 1121572124 1149454891 666874904 98198409 -363482751 1295100295 998234106 1045447271 -629965839 1905726197 1335219906 -2053591640 1910671610 595143083 566335900 -1151324249 -1240043577 -548884798 1286001255 -865380965 -1217145428 -780660497 -559642393 -350165390 -1079586017 -2104340214 -1291298790 -2055743117 -643360393 -1882910580 1075173073
REM
CELL 1.54180   50.00000   50.00000   50.00000   90.00000   90.00000   90.00000
LATT -1
SFAC C  
C      1  0.4892030000000  0.5086240000000  0.4760660000000 1.0
C      1  0.4352790000000  0.4395290000000  0.5575040000000 1.0
C      1  0.4550530000000  0.4496750000000  0.5430920000000 1.0
C      1  0.5846500000000  0.5492750000000  0.4664870000000 1.0
C      1  0.5126170000000  0.5019780000000  0.4331140000000 1.0
C      1  0.3759340000000  0.4090800000000  0.6007590000000 1.0
C      1  0.5085290000000  0.5786690000000  0.4245180000000 1.0
C      1  0.4758010000000  0.4603450000000  0.5279790000000 1.0
C      1  0.5339070000000  0.4857270000000  0.4727950000000 1.0
C      1  0.5572830000000  0.4989980000000  0.4633630000000 1.0
C      1  0.3561470000000  0.3989270000000  0.6151810000000 1.0
C      1  0.5876160000000  0.5526680000000  0.4926610000000 1.0
C      1  0.5214100000000  0.4483940000000  0.5076750000000 1.0
C      1  0.5350530000000  0.5771230000000  0.4225830000000 1.0
C      1  0.4991100000000  0.4458110000000  0.5221120000000 1.0
C      1  0.4748880000000  0.4863980000000  0.5175350000000 1.0
C      1  0.4729480000000  0.5503090000000  0.4484130000000 1.0
C      1  0.3366860000000  0.3889420000000  0.6293660000000 1.0
C      1  0.3957160000000  0.4192300000000  0.5863400000000 1.0
C      1  0.5575030000000  0.5175150000000  0.4416010000000 1.0
C      1  0.4890130000000  0.5067010000000  0.5044510000000 1.0
C      1  0.5687030000000  0.5434520000000  0.4442560000000 1.0
C      1  0.4154980000000  0.4293790000000  0.5719220000000 1.0
C      1  0.5796720000000  0.5532660000000  0.5195210000000 1.0
C      1  0.4736890000000  0.5283350000000  0.4634480000000 1.0
C      1  0.5358070000000  0.5127490000000  0.4236620000000 1.0
C      1  0.5534820000000  0.5455470000000  0.5258750000000 1.0
C      1  0.5574840000000  0.5643490000000  0.4292290000000 1.0
C      1  0.5970450000000  0.5611830000000  0.5390740000000 1.0
C      1  0.5094780000000  0.4956560000000  0.4608100000000 1.0
C      1  0.4857350000000  0.5687670000000  0.4340970000000 1.0
C      1  0.5063220000000  0.5234150000000  0.5188340000000 1.0
C      1  0.5340140000000  0.4639920000000  0.4901660000000 1.0
C      1  0.5287280000000  0.5359900000000  0.5255110000000 1.0
END
