TITL C-612603-7354-1407 0.0301549917325394 125000 -99.9435106460852 0 0 18 (C1) n - 1
REM
REM in /home/nfs/bkarasulu/CARBON/AIRSS/Generating-Clusters/TERSOFF/Only-C1/FIRE-HFTN
REM
REM
REM
REM
REM
REM ./C.cell (11c1c37f851c82e70ff6c80c92926a4b)
REM AIRSS Version 0.9.1 bugfix July 2018 build 013d7b7c2542+ Fri, 06 Jul 2018 19:26:36 +0100
REM compiler GCC version 9.2.1 20190827 (Red Hat 9.2.1-1)
REM options -cpp -mtune=generic -march=x86-64 -g -O0 -fpre-include=/usr/include/finclude/math-vector-fortran.h
REM seed 441543999 -1620055154 460541214 1566912298 1782068529 -77935264 1960502759 -2040871753 2015780520 1021534722 -724125099 -1287723196 -1852873304 -1072581861 -1437011788 -379085238 1963964655 2085781463 1820105427 -1094327557 -693874976 -1349210880 -854801256 1362455308 233916355 1526311214 -1047511800 -126469479 1158701647 -1411110704 -1434143409 2054250794 852541971
REM
CELL 1.54180   50.00000   50.00000   50.00000   90.00000   90.00000   90.00000
LATT -1
SFAC C  
C      1  0.4921850000000  0.4993620000000  0.5683620000000 1.0
C      1  0.4736580000000  0.5647340000000  0.5422390000000 1.0
C      1  0.5377580000000  0.4939250000000  0.5554460000000 1.0
C      1  0.5029330000000  0.4893650000000  0.5224020000000 1.0
C      1  0.5269550000000  0.4747870000000  0.4404900000000 1.0
C      1  0.4769960000000  0.5580990000000  0.5159150000000 1.0
C      1  0.5092330000000  0.4299910000000  0.4536710000000 1.0
C      1  0.4673130000000  0.5748830000000  0.4957520000000 1.0
C      1  0.4583920000000  0.5903750000000  0.4767860000000 1.0
C      1  0.5110930000000  0.4943130000000  0.5492010000000 1.0
C      1  0.5208200000000  0.4488470000000  0.4386440000000 1.0
C      1  0.4933680000000  0.4413940000000  0.5003670000000 1.0
C      1  0.4949220000000  0.4636200000000  0.5148650000000 1.0
C      1  0.5170860000000  0.5074530000000  0.4790900000000 1.0
C      1  0.4901320000000  0.5344660000000  0.5088640000000 1.0
C      1  0.5252100000000  0.4960090000000  0.4565150000000 1.0
C      1  0.5035060000000  0.5105820000000  0.5033760000000 1.0
C      1  0.4984410000000  0.4277950000000  0.4780160000000 1.0
END
