TITL C-612606-7351-595 143884.334756242 125000 -1173.83058212208 0 0 192 (C1) n - 1
REM
REM in /home/nfs/bkarasulu/CARBON/AIRSS/Generating-Clusters/TERSOFF/Only-C1/FIRE-HFTN
REM
REM
REM
REM
REM
REM ./C.cell (11c1c37f851c82e70ff6c80c92926a4b)
REM AIRSS Version 0.9.1 bugfix July 2018 build 013d7b7c2542+ Fri, 06 Jul 2018 19:26:36 +0100
REM compiler GCC version 9.2.1 20190827 (Red Hat 9.2.1-1)
REM options -cpp -mtune=generic -march=x86-64 -g -O0 -fpre-include=/usr/include/finclude/math-vector-fortran.h
REM seed 1811822676 -615497904 463476624 -1288479650 -694695349 1316823819 -142417950 -1800622638 1316978385 1896262328 781516722 1862936158 -1623472726 1084190454 1597227390 -366061924 190398539 -1646623198 -1663616065 -799456869 1710793520 -611903915 334217390 -217716217 123260269 1925029111 1322967796 -2122065692 -708184943 -2057315617 910938684 1471540106 940929392
REM
CELL 1.54180   50.00000   50.00000   50.00000   90.00000   90.00000   90.00000
LATT -1
SFAC C  
C      1  0.3957550000000  0.4121840000000  0.5521360000000 1.0
C      1  0.4159130000000  0.5954270000000  0.5094410000000 1.0
C      1  0.5328880000000  0.3858060000000  0.5102210000000 1.0
C      1  0.5522100000000  0.5011960000000  0.4581370000000 1.0
C      1  0.5613130000000  0.5886160000000  0.4933620000000 1.0
C      1  0.5434390000000  0.4802580000000  0.5433390000000 1.0
C      1  0.5774210000000  0.5128770000000  0.4974280000000 1.0
C      1  0.5900070000000  0.5024060000000  0.4199050000000 1.0
C      1  0.4372100000000  0.5609370000000  0.4347780000000 1.0
C      1  0.3629090000000  0.4729020000000  0.5120610000000 1.0
C      1  0.4659570000000  0.6433150000000  0.4529880000000 1.0
C      1  0.5457230000000  0.4766990000000  0.6006030000000 1.0
C      1  0.5402650000000  0.4855760000000  0.5003110000000 1.0
C      1  0.4392990000000  0.5199150000000  0.4709340000000 1.0
C      1  0.6156370000000  0.4897050000000  0.4255930000000 1.0
C      1  0.6282570000000  0.4388510000000  0.5551320000000 1.0
C      1  0.4849210000000  0.4994660000000  0.4231420000000 1.0
C      1  0.5207650000000  0.5503700000000  0.4790740000000 1.0
C      1  0.5354010000000  0.5436880000000  0.4321640000000 1.0
C      1  0.4486850000000  0.4565970000000  0.5395430000000 1.0
C      1  0.4816100000000  0.6285860000000  0.4353610000000 1.0
C      1  0.4266730000000  0.5325580000000  0.5409780000000 1.0
C      1  0.5517140000000  0.5778730000000  0.5596030000000 1.0
C      1  0.5314170000000  0.4861060000000  0.4704020000000 1.0
C      1  0.3861450000000  0.5032900000000  0.5771210000000 1.0
C      1  0.4452840000000  0.5117530000000  0.4444610000000 1.0
C      1  0.5020900000000  0.4778480000000  0.4718960000000 1.0
C      1  0.4795890000000  0.4500940000000  0.5397550000000 1.0
C      1  0.5281080000000  0.5005520000000  0.3969680000000 1.0
C      1  0.5848450000000  0.4339100000000  0.5780610000000 1.0
C      1  0.5950650000000  0.4745190000000  0.5548890000000 1.0
C      1  0.4752170000000  0.4611680000000  0.6043760000000 1.0
C      1  0.5807730000000  0.5276280000000  0.4313630000000 1.0
C      1  0.4304820000000  0.4284290000000  0.4112430000000 1.0
C      1  0.4506960000000  0.5201300000000  0.6138470000000 1.0
C      1  0.4222570000000  0.4807510000000  0.4993520000000 1.0
C      1  0.5733430000000  0.4517190000000  0.4633820000000 1.0
C      1  0.5340230000000  0.5903870000000  0.5030540000000 1.0
C      1  0.3966750000000  0.5368730000000  0.4293470000000 1.0
C      1  0.4444490000000  0.4826770000000  0.4436750000000 1.0
C      1  0.4390470000000  0.4278630000000  0.5417320000000 1.0
C      1  0.4212890000000  0.5014870000000  0.3944780000000 1.0
C      1  0.5531680000000  0.3980770000000  0.5280810000000 1.0
C      1  0.4198510000000  0.5338740000000  0.4874660000000 1.0
C      1  0.5001930000000  0.4949810000000  0.4006250000000 1.0
C      1  0.5416800000000  0.6065320000000  0.4546810000000 1.0
C      1  0.4844360000000  0.5113220000000  0.5821610000000 1.0
C      1  0.4641670000000  0.4849950000000  0.3727400000000 1.0
C      1  0.4422320000000  0.5326090000000  0.5663060000000 1.0
C      1  0.5336900000000  0.4525210000000  0.5322050000000 1.0
C      1  0.4651340000000  0.5180830000000  0.4825320000000 1.0
C      1  0.4514760000000  0.4502300000000  0.4742390000000 1.0
C      1  0.5682140000000  0.4918700000000  0.5177450000000 1.0
C      1  0.4366700000000  0.5455090000000  0.4077770000000 1.0
C      1  0.4771410000000  0.4090760000000  0.4600690000000 1.0
C      1  0.5528690000000  0.5782080000000  0.6097680000000 1.0
C      1  0.4722270000000  0.4760060000000  0.4341020000000 1.0
C      1  0.5040770000000  0.5357710000000  0.3724540000000 1.0
C      1  0.4103550000000  0.5559210000000  0.4465220000000 1.0
C      1  0.5209920000000  0.3919780000000  0.4835190000000 1.0
C      1  0.4808490000000  0.5457920000000  0.3856030000000 1.0
C      1  0.5039470000000  0.5994570000000  0.5669280000000 1.0
C      1  0.5335400000000  0.5281170000000  0.5347840000000 1.0
C      1  0.5803770000000  0.5775870000000  0.4458050000000 1.0
C      1  0.3810550000000  0.4888070000000  0.5261490000000 1.0
C      1  0.5341400000000  0.4006530000000  0.4598340000000 1.0
C      1  0.5512240000000  0.5486690000000  0.4835530000000 1.0
C      1  0.4719680000000  0.5221740000000  0.4339980000000 1.0
C      1  0.5534260000000  0.5236600000000  0.4411110000000 1.0
C      1  0.4334140000000  0.6031470000000  0.5279590000000 1.0
C      1  0.4052400000000  0.5140180000000  0.5923710000000 1.0
C      1  0.5921490000000  0.5510960000000  0.4449040000000 1.0
C      1  0.4870570000000  0.4151570000000  0.5063390000000 1.0
C      1  0.4137190000000  0.4747130000000  0.3991870000000 1.0
C      1  0.4130990000000  0.5259820000000  0.4081580000000 1.0
C      1  0.3687600000000  0.4427290000000  0.4433400000000 1.0
C      1  0.5124570000000  0.5571160000000  0.5335580000000 1.0
C      1  0.5384980000000  0.4521230000000  0.5861790000000 1.0
C      1  0.4920890000000  0.4617530000000  0.4964540000000 1.0
C      1  0.5831070000000  0.5252890000000  0.5615060000000 1.0
C      1  0.6154370000000  0.5065420000000  0.5280430000000 1.0
C      1  0.5438600000000  0.4777790000000  0.4074580000000 1.0
C      1  0.3554350000000  0.4582290000000  0.4912320000000 1.0
C      1  0.4725490000000  0.4817610000000  0.5779770000000 1.0
C      1  0.4790250000000  0.5139930000000  0.6128640000000 1.0
C      1  0.5569730000000  0.4308880000000  0.5751300000000 1.0
C      1  0.3864920000000  0.4434470000000  0.4236230000000 1.0
C      1  0.4926660000000  0.4406900000000  0.5161770000000 1.0
C      1  0.5264910000000  0.5126560000000  0.5086310000000 1.0
C      1  0.4983220000000  0.4093650000000  0.5549000000000 1.0
C      1  0.5861510000000  0.4712170000000  0.4790200000000 1.0
C      1  0.5837840000000  0.4573010000000  0.4365240000000 1.0
C      1  0.5373330000000  0.5473770000000  0.4041800000000 1.0
C      1  0.6039220000000  0.4492360000000  0.5643550000000 1.0
C      1  0.4549870000000  0.6054600000000  0.5433590000000 1.0
C      1  0.5145440000000  0.3719090000000  0.5272820000000 1.0
C      1  0.4933450000000  0.4695880000000  0.5575480000000 1.0
C      1  0.5773940000000  0.5801090000000  0.5153680000000 1.0
C      1  0.4769040000000  0.5607360000000  0.5896710000000 1.0
C      1  0.4149890000000  0.5245890000000  0.5149590000000 1.0
C      1  0.5245700000000  0.5873000000000  0.5495100000000 1.0
C      1  0.4847750000000  0.5513010000000  0.4376990000000 1.0
C      1  0.5051520000000  0.4520410000000  0.3892610000000 1.0
C      1  0.6134480000000  0.4635560000000  0.4381840000000 1.0
C      1  0.5771060000000  0.5392690000000  0.4897220000000 1.0
C      1  0.4664620000000  0.5650450000000  0.4823200000000 1.0
C      1  0.6452120000000  0.4416440000000  0.5075750000000 1.0
C      1  0.4269600000000  0.4284260000000  0.5855900000000 1.0
C      1  0.5378440000000  0.6320580000000  0.4675740000000 1.0
C      1  0.4859890000000  0.5838480000000  0.4911900000000 1.0
C      1  0.4106320000000  0.4487460000000  0.4102250000000 1.0
C      1  0.5111910000000  0.5236440000000  0.4875000000000 1.0
C      1  0.5670150000000  0.5661110000000  0.5377310000000 1.0
C      1  0.4919340000000  0.4579650000000  0.4488140000000 1.0
C      1  0.4445310000000  0.4707350000000  0.5674930000000 1.0
C      1  0.6093230000000  0.5263970000000  0.5457410000000 1.0
C      1  0.5626010000000  0.5372610000000  0.5404380000000 1.0
C      1  0.4475180000000  0.4764320000000  0.5160260000000 1.0
C      1  0.5837900000000  0.4957210000000  0.5715830000000 1.0
C      1  0.4312510000000  0.4691620000000  0.4665230000000 1.0
C      1  0.5710980000000  0.4877320000000  0.5954090000000 1.0
C      1  0.3778080000000  0.4944870000000  0.5533990000000 1.0
C      1  0.4700700000000  0.5028050000000  0.5269180000000 1.0
C      1  0.5987230000000  0.5461680000000  0.4725080000000 1.0
C      1  0.4468420000000  0.5064850000000  0.3806180000000 1.0
C      1  0.5454720000000  0.5822430000000  0.6344410000000 1.0
C      1  0.4057830000000  0.5800210000000  0.4901770000000 1.0
C      1  0.5173930000000  0.4449370000000  0.4372890000000 1.0
C      1  0.5295240000000  0.6068900000000  0.5259620000000 1.0
C      1  0.4932980000000  0.4923570000000  0.5383860000000 1.0
C      1  0.5969870000000  0.4815270000000  0.5255990000000 1.0
C      1  0.4639300000000  0.4650500000000  0.4948820000000 1.0
C      1  0.5766490000000  0.4968680000000  0.4736080000000 1.0
C      1  0.5111530000000  0.4532430000000  0.5775150000000 1.0
C      1  0.4901980000000  0.5065220000000  0.4776180000000 1.0
C      1  0.4783230000000  0.4189090000000  0.5749370000000 1.0
C      1  0.4495250000000  0.4191170000000  0.5688170000000 1.0
C      1  0.4315720000000  0.5235750000000  0.5922830000000 1.0
C      1  0.6440010000000  0.4358490000000  0.5337230000000 1.0
C      1  0.5305020000000  0.5042960000000  0.5545440000000 1.0
C      1  0.6048290000000  0.4666680000000  0.4999380000000 1.0
C      1  0.5642200000000  0.5920530000000  0.4646120000000 1.0
C      1  0.4731890000000  0.5382460000000  0.5695580000000 1.0
C      1  0.5101950000000  0.6093820000000  0.5916560000000 1.0
C      1  0.4314560000000  0.4562500000000  0.5906870000000 1.0
C      1  0.5281470000000  0.5276900000000  0.3861620000000 1.0
C      1  0.4899000000000  0.4391490000000  0.5925420000000 1.0
C      1  0.5224190000000  0.4268780000000  0.5456440000000 1.0
C      1  0.4941210000000  0.3828750000000  0.5433820000000 1.0
C      1  0.4042480000000  0.4978240000000  0.5126850000000 1.0
C      1  0.5246900000000  0.4961690000000  0.6044900000000 1.0
C      1  0.4784350000000  0.6040110000000  0.5558180000000 1.0
C      1  0.5489980000000  0.4426150000000  0.4758610000000 1.0
C      1  0.5154090000000  0.5074050000000  0.5786650000000 1.0
C      1  0.5608510000000  0.5681410000000  0.5851260000000 1.0
C      1  0.4485440000000  0.4600940000000  0.6134620000000 1.0
C      1  0.4888150000000  0.4752330000000  0.3829380000000 1.0
C      1  0.5785290000000  0.5453550000000  0.5838970000000 1.0
C      1  0.5335930000000  0.6424080000000  0.4923570000000 1.0
C      1  0.4454060000000  0.4082860000000  0.4211530000000 1.0
C      1  0.4609870000000  0.5639620000000  0.4529560000000 1.0
C      1  0.4711310000000  0.5312710000000  0.5236140000000 1.0
C      1  0.3578020000000  0.4476100000000  0.4670160000000 1.0
C      1  0.4858550000000  0.5456500000000  0.5431850000000 1.0
C      1  0.5181500000000  0.5914190000000  0.4468950000000 1.0
C      1  0.4723700000000  0.4372780000000  0.4597240000000 1.0
C      1  0.5327110000000  0.4289920000000  0.4565130000000 1.0
C      1  0.5254520000000  0.4540350000000  0.4107310000000 1.0
C      1  0.4863300000000  0.5614800000000  0.4088150000000 1.0
C      1  0.4662080000000  0.5416870000000  0.4983390000000 1.0
C      1  0.4686850000000  0.3713470000000  0.5403370000000 1.0
C      1  0.4930330000000  0.4005940000000  0.4830410000000 1.0
C      1  0.5120070000000  0.5707370000000  0.4999630000000 1.0
C      1  0.5143880000000  0.5585990000000  0.4492450000000 1.0
C      1  0.4550150000000  0.5340760000000  0.3871440000000 1.0
C      1  0.6285250000000  0.4545210000000  0.4892320000000 1.0
C      1  0.4171100000000  0.4115490000000  0.5331950000000 1.0
C      1  0.5465860000000  0.3839610000000  0.4423280000000 1.0
C      1  0.4675660000000  0.6320080000000  0.4783310000000 1.0
C      1  0.6293160000000  0.4549240000000  0.4604450000000 1.0
C      1  0.4451510000000  0.3710850000000  0.5276830000000 1.0
C      1  0.4245450000000  0.3871290000000  0.5213850000000 1.0
C      1  0.4625520000000  0.3970400000000  0.4389930000000 1.0
C      1  0.5042760000000  0.5039260000000  0.6238560000000 1.0
C      1  0.4842990000000  0.6084150000000  0.4776080000000 1.0
C      1  0.4084410000000  0.5567540000000  0.4749010000000 1.0
C      1  0.4947120000000  0.6070290000000  0.4495040000000 1.0
C      1  0.5298160000000  0.6340630000000  0.5181150000000 1.0
C      1  0.5406810000000  0.4542300000000  0.5030550000000 1.0
C      1  0.5480060000000  0.4139210000000  0.5524830000000 1.0
C      1  0.4014540000000  0.4184120000000  0.5781310000000 1.0
C      1  0.5706380000000  0.4783560000000  0.4186230000000 1.0
END
