TITL C-612607-4507-1365 0.128110097025303 125000 -736.58641111835 0 0 121 (C1) n - 1
REM
REM in /home/nfs/bkarasulu/CARBON/AIRSS/Generating-Clusters/TERSOFF/Only-C1/FIRE-HFTN
REM
REM
REM
REM
REM
REM ./C.cell (11c1c37f851c82e70ff6c80c92926a4b)
REM AIRSS Version 0.9.1 bugfix July 2018 build 013d7b7c2542+ Fri, 06 Jul 2018 19:26:36 +0100
REM compiler GCC version 9.2.1 20190827 (Red Hat 9.2.1-1)
REM options -cpp -mtune=generic -march=x86-64 -g -O0 -fpre-include=/usr/include/finclude/math-vector-fortran.h
REM seed 2073661353 814915553 550465508 463066201 175023340 1898956544 2140488239 -722721747 -1667038298 -426033747 -1853997895 853347418 -37188643 -299206780 -555978595 1073054887 87255529 -1476256997 836176804 -510426486 -1623014337 -1263303431 2137524479 -148302882 -2093039970 1167432952 -1104075944 1832220425 963804859 -1039108336 2032045737 -1142402205 -520731218
REM
CELL 1.54180   50.00000   50.00000   50.00000   90.00000   90.00000   90.00000
LATT -1
SFAC C  
C      1  0.5086400000000  0.4698530000000  0.4845370000000 1.0
C      1  0.4603230000000  0.4743760000000  0.4821010000000 1.0
C      1  0.3599090000000  0.5453540000000  0.4719490000000 1.0
C      1  0.4406310000000  0.5532690000000  0.5371580000000 1.0
C      1  0.5187720000000  0.5743940000000  0.5975850000000 1.0
C      1  0.4468550000000  0.4987860000000  0.4216300000000 1.0
C      1  0.5384330000000  0.5461240000000  0.5241880000000 1.0
C      1  0.4774740000000  0.5778090000000  0.4687140000000 1.0
C      1  0.5132510000000  0.5193280000000  0.5893560000000 1.0
C      1  0.5179490000000  0.5055000000000  0.5386750000000 1.0
C      1  0.4805190000000  0.5848020000000  0.4226760000000 1.0
C      1  0.4874600000000  0.5104830000000  0.5789360000000 1.0
C      1  0.4122830000000  0.4799570000000  0.5269370000000 1.0
C      1  0.5377340000000  0.5047010000000  0.5946350000000 1.0
C      1  0.5261360000000  0.5878860000000  0.5742150000000 1.0
C      1  0.5437500000000  0.5001380000000  0.6217530000000 1.0
C      1  0.3801930000000  0.5313060000000  0.4803370000000 1.0
C      1  0.5634470000000  0.5094820000000  0.5516880000000 1.0
C      1  0.6030840000000  0.5052020000000  0.4716650000000 1.0
C      1  0.5677030000000  0.4381570000000  0.4510870000000 1.0
C      1  0.4100670000000  0.4554460000000  0.5129690000000 1.0
C      1  0.4858960000000  0.4760880000000  0.4687290000000 1.0
C      1  0.5055650000000  0.4631730000000  0.5131580000000 1.0
C      1  0.5364580000000  0.5816830000000  0.4761110000000 1.0
C      1  0.5153050000000  0.5881490000000  0.6215820000000 1.0
C      1  0.5597060000000  0.4662480000000  0.5759790000000 1.0
C      1  0.4025100000000  0.5171500000000  0.4890210000000 1.0
C      1  0.5415970000000  0.5898410000000  0.4285790000000 1.0
C      1  0.5299230000000  0.5128210000000  0.3919660000000 1.0
C      1  0.4712610000000  0.3842220000000  0.4892880000000 1.0
C      1  0.5223250000000  0.5331070000000  0.5034790000000 1.0
C      1  0.5076250000000  0.5310360000000  0.4321700000000 1.0
C      1  0.4256410000000  0.4421440000000  0.4938540000000 1.0
C      1  0.5064500000000  0.6125060000000  0.6673120000000 1.0
C      1  0.4360950000000  0.3876440000000  0.5535200000000 1.0
C      1  0.4344000000000  0.5634300000000  0.5821200000000 1.0
C      1  0.5895720000000  0.4561970000000  0.4546050000000 1.0
C      1  0.5252290000000  0.5097330000000  0.4207930000000 1.0
C      1  0.5314750000000  0.4008100000000  0.4839910000000 1.0
C      1  0.5025790000000  0.5202740000000  0.5200730000000 1.0
C      1  0.5507970000000  0.5128180000000  0.4378730000000 1.0
C      1  0.4465730000000  0.5476490000000  0.4099060000000 1.0
C      1  0.4534990000000  0.4489540000000  0.4942700000000 1.0
C      1  0.4476480000000  0.4999740000000  0.4855820000000 1.0
C      1  0.5622770000000  0.5689090000000  0.4778770000000 1.0
C      1  0.4532720000000  0.5626650000000  0.4556550000000 1.0
C      1  0.4688550000000  0.5309550000000  0.5701550000000 1.0
C      1  0.4500220000000  0.3936620000000  0.5323330000000 1.0
C      1  0.4639320000000  0.4020540000000  0.5097310000000 1.0
C      1  0.4298110000000  0.4814010000000  0.5490450000000 1.0
C      1  0.5262780000000  0.5274210000000  0.4765960000000 1.0
C      1  0.4516670000000  0.4800820000000  0.5644890000000 1.0
C      1  0.5147590000000  0.5467370000000  0.5962590000000 1.0
C      1  0.4940010000000  0.3747850000000  0.4465740000000 1.0
C      1  0.4430670000000  0.5483800000000  0.3830040000000 1.0
C      1  0.4542830000000  0.5452320000000  0.5906520000000 1.0
C      1  0.4368850000000  0.5359560000000  0.4548340000000 1.0
C      1  0.4657310000000  0.5199190000000  0.4944360000000 1.0
C      1  0.5411140000000  0.4473830000000  0.5807580000000 1.0
C      1  0.4878290000000  0.4810170000000  0.4407130000000 1.0
C      1  0.4801880000000  0.5311470000000  0.4733390000000 1.0
C      1  0.4995370000000  0.3488170000000  0.4399780000000 1.0
C      1  0.5355750000000  0.4001220000000  0.4540170000000 1.0
C      1  0.5964280000000  0.5269480000000  0.4894810000000 1.0
C      1  0.5801640000000  0.5032380000000  0.5290210000000 1.0
C      1  0.6192510000000  0.5328560000000  0.5328230000000 1.0
C      1  0.4258330000000  0.5683450000000  0.5557510000000 1.0
C      1  0.4957030000000  0.5872770000000  0.4468370000000 1.0
C      1  0.4715210000000  0.4293380000000  0.5063040000000 1.0
C      1  0.4922410000000  0.4613840000000  0.5843650000000 1.0
C      1  0.5407210000000  0.5239120000000  0.5431910000000 1.0
C      1  0.5993850000000  0.5215050000000  0.5179170000000 1.0
C      1  0.5615300000000  0.5766670000000  0.4165730000000 1.0
C      1  0.5314950000000  0.5737730000000  0.5243040000000 1.0
C      1  0.5117660000000  0.3960390000000  0.4386250000000 1.0
C      1  0.5568750000000  0.3912760000000  0.4942650000000 1.0
C      1  0.5680080000000  0.4869700000000  0.5089940000000 1.0
C      1  0.4754130000000  0.5241130000000  0.5200720000000 1.0
C      1  0.5484960000000  0.4946430000000  0.6472290000000 1.0
C      1  0.4464440000000  0.3902560000000  0.4495340000000 1.0
C      1  0.4705510000000  0.3815240000000  0.4612880000000 1.0
C      1  0.5309820000000  0.5881000000000  0.5480970000000 1.0
C      1  0.5241570000000  0.5882790000000  0.4506150000000 1.0
C      1  0.5741970000000  0.5531080000000  0.4167160000000 1.0
C      1  0.4811240000000  0.4304380000000  0.4111160000000 1.0
C      1  0.4619790000000  0.5353000000000  0.5422080000000 1.0
C      1  0.5464240000000  0.5102300000000  0.4663200000000 1.0
C      1  0.5570770000000  0.4919690000000  0.4848960000000 1.0
C      1  0.4571980000000  0.5687420000000  0.4259840000000 1.0
C      1  0.4770530000000  0.4836990000000  0.5767500000000 1.0
C      1  0.4650110000000  0.4773750000000  0.4238960000000 1.0
C      1  0.4172830000000  0.4242860000000  0.4739500000000 1.0
C      1  0.5309800000000  0.4619850000000  0.4293630000000 1.0
C      1  0.4266750000000  0.5165040000000  0.4740520000000 1.0
C      1  0.5331790000000  0.5159890000000  0.3663170000000 1.0
C      1  0.3858030000000  0.6014220000000  0.5418330000000 1.0
C      1  0.5005590000000  0.4144880000000  0.4204230000000 1.0
C      1  0.5191290000000  0.4247880000000  0.4919110000000 1.0
C      1  0.5192410000000  0.5823210000000  0.4995450000000 1.0
C      1  0.5146340000000  0.4468580000000  0.5848200000000 1.0
C      1  0.5649710000000  0.4093920000000  0.4522770000000 1.0
C      1  0.5712990000000  0.5282680000000  0.4263070000000 1.0
C      1  0.5767160000000  0.3957320000000  0.4753550000000 1.0
C      1  0.5131090000000  0.4833760000000  0.4277280000000 1.0
C      1  0.5530880000000  0.4890640000000  0.6722760000000 1.0
C      1  0.4651660000000  0.4521120000000  0.4113200000000 1.0
C      1  0.5041470000000  0.5327560000000  0.4599060000000 1.0
C      1  0.4908440000000  0.5809390000000  0.4939300000000 1.0
C      1  0.4584710000000  0.5407650000000  0.6173040000000 1.0
C      1  0.5151630000000  0.4780110000000  0.5346640000000 1.0
C      1  0.5419160000000  0.4501620000000  0.4520330000000 1.0
C      1  0.4053110000000  0.5856640000000  0.5489280000000 1.0
C      1  0.6005400000000  0.4801820000000  0.4612260000000 1.0
C      1  0.5571110000000  0.4943890000000  0.5753060000000 1.0
C      1  0.5818830000000  0.5505090000000  0.4817310000000 1.0
C      1  0.4399860000000  0.5255790000000  0.4271240000000 1.0
C      1  0.4990500000000  0.4349420000000  0.5107830000000 1.0
C      1  0.4023580000000  0.5026520000000  0.5133810000000 1.0
C      1  0.4259080000000  0.4061640000000  0.4562290000000 1.0
C      1  0.5109190000000  0.6004730000000  0.6446210000000 1.0
C      1  0.5257110000000  0.4482720000000  0.4749890000000 1.0
END
