TITL C-612606-7351-677 -0.00207215405171012 125000 -619.14348403095 0 0 101 (C1) n - 1
REM
REM in /home/nfs/bkarasulu/CARBON/AIRSS/Generating-Clusters/TERSOFF/Only-C1/FIRE-HFTN
REM
REM
REM
REM
REM
REM ./C.cell (11c1c37f851c82e70ff6c80c92926a4b)
REM AIRSS Version 0.9.1 bugfix July 2018 build 013d7b7c2542+ Fri, 06 Jul 2018 19:26:36 +0100
REM compiler GCC version 9.2.1 20190827 (Red Hat 9.2.1-1)
REM options -cpp -mtune=generic -march=x86-64 -g -O0 -fpre-include=/usr/include/finclude/math-vector-fortran.h
REM seed 28315300 -155837995 -114010522 -1971028724 1052329385 2047850198 -678275497 1743598864 -958717475 926732093 1694645499 -122279730 1925506752 581812463 -497830923 -1590483694 601020161 -1622211319 961033206 -53899401 773445188 -192705132 -1980185058 -1389223459 -577862223 -1315201300 -1794029102 1511970389 -1554529452 1623506363 1662206104 45176022 -1659815
REM
CELL 1.54180   50.00000   50.00000   50.00000   90.00000   90.00000   90.00000
LATT -1
SFAC C  
C      1  0.5445350000000  0.5900880000000  0.6266920000000 1.0
C      1  0.4805200000000  0.5562140000000  0.4092110000000 1.0
C      1  0.5315940000000  0.4936560000000  0.4609820000000 1.0
C      1  0.4838110000000  0.4949860000000  0.4299010000000 1.0
C      1  0.4451190000000  0.4345770000000  0.4636850000000 1.0
C      1  0.5398170000000  0.4482710000000  0.5700900000000 1.0
C      1  0.4188770000000  0.5148510000000  0.4618660000000 1.0
C      1  0.5380440000000  0.3866300000000  0.5448550000000 1.0
C      1  0.4449230000000  0.5982720000000  0.4583950000000 1.0
C      1  0.4390660000000  0.4893470000000  0.5667920000000 1.0
C      1  0.5196260000000  0.4356160000000  0.5859640000000 1.0
C      1  0.4972980000000  0.4823780000000  0.6014830000000 1.0
C      1  0.5028760000000  0.5395600000000  0.4172420000000 1.0
C      1  0.4962130000000  0.4740980000000  0.4766780000000 1.0
C      1  0.4758000000000  0.4284770000000  0.5095040000000 1.0
C      1  0.5045780000000  0.5818650000000  0.4385490000000 1.0
C      1  0.4880380000000  0.4481620000000  0.4356380000000 1.0
C      1  0.5482090000000  0.4842930000000  0.3550730000000 1.0
C      1  0.4667560000000  0.4902560000000  0.6380840000000 1.0
C      1  0.4451190000000  0.5969410000000  0.4850950000000 1.0
C      1  0.5028660000000  0.5902550000000  0.4653730000000 1.0
C      1  0.5185310000000  0.5169810000000  0.4718190000000 1.0
C      1  0.4645570000000  0.5103470000000  0.4731310000000 1.0
C      1  0.4459760000000  0.5126300000000  0.4520730000000 1.0
C      1  0.5415490000000  0.5457100000000  0.6528400000000 1.0
C      1  0.4225140000000  0.5065820000000  0.5543390000000 1.0
C      1  0.5292660000000  0.5222130000000  0.6516960000000 1.0
C      1  0.4422560000000  0.4690400000000  0.4317380000000 1.0
C      1  0.5682750000000  0.5411810000000  0.4413270000000 1.0
C      1  0.5105400000000  0.4393610000000  0.4202830000000 1.0
C      1  0.5744700000000  0.4742290000000  0.4284250000000 1.0
C      1  0.4591210000000  0.5076390000000  0.5209660000000 1.0
C      1  0.5124470000000  0.5039520000000  0.6423850000000 1.0
C      1  0.4040820000000  0.4916700000000  0.4543110000000 1.0
C      1  0.4820170000000  0.4234130000000  0.5584970000000 1.0
C      1  0.4945010000000  0.5385170000000  0.5199740000000 1.0
C      1  0.5013490000000  0.4193670000000  0.5007980000000 1.0
C      1  0.5367250000000  0.4389880000000  0.4684540000000 1.0
C      1  0.5802300000000  0.4913180000000  0.4510780000000 1.0
C      1  0.4547580000000  0.4954070000000  0.4307960000000 1.0
C      1  0.5209490000000  0.4888620000000  0.5867490000000 1.0
C      1  0.5206590000000  0.4368530000000  0.4913630000000 1.0
C      1  0.5322550000000  0.4920610000000  0.3741700000000 1.0
C      1  0.4796740000000  0.4635320000000  0.5885240000000 1.0
C      1  0.3960990000000  0.4308130000000  0.4733520000000 1.0
C      1  0.5355960000000  0.6011230000000  0.6042710000000 1.0
C      1  0.5430280000000  0.5500530000000  0.4496840000000 1.0
C      1  0.4968980000000  0.4893000000000  0.5376390000000 1.0
C      1  0.4760490000000  0.4404240000000  0.5356730000000 1.0
C      1  0.5615530000000  0.4819780000000  0.4995610000000 1.0
C      1  0.4926510000000  0.4741110000000  0.4479960000000 1.0
C      1  0.4624750000000  0.4738680000000  0.5677830000000 1.0
C      1  0.5974840000000  0.4357470000000  0.4580560000000 1.0
C      1  0.4771140000000  0.4683590000000  0.5430020000000 1.0
C      1  0.5975910000000  0.4553000000000  0.4770740000000 1.0
C      1  0.5469540000000  0.5701950000000  0.6441090000000 1.0
C      1  0.4146440000000  0.5308790000000  0.4854690000000 1.0
C      1  0.4919380000000  0.4921060000000  0.6274920000000 1.0
C      1  0.5354530000000  0.4780790000000  0.5123090000000 1.0
C      1  0.4896820000000  0.3966190000000  0.5548080000000 1.0
C      1  0.5150580000000  0.5590460000000  0.5245940000000 1.0
C      1  0.4540490000000  0.4986550000000  0.4963750000000 1.0
C      1  0.4562460000000  0.4292330000000  0.4891150000000 1.0
C      1  0.4594130000000  0.4450350000000  0.4397770000000 1.0
C      1  0.5574160000000  0.4313780000000  0.5563540000000 1.0
C      1  0.4896440000000  0.5229730000000  0.4751870000000 1.0
C      1  0.4153840000000  0.5237280000000  0.5347890000000 1.0
C      1  0.4850510000000  0.5140690000000  0.5301280000000 1.0
C      1  0.4566840000000  0.5928500000000  0.4349640000000 1.0
C      1  0.4801610000000  0.5954660000000  0.5193160000000 1.0
C      1  0.5749020000000  0.4284450000000  0.4422620000000 1.0
C      1  0.5561920000000  0.4062620000000  0.5469530000000 1.0
C      1  0.5375800000000  0.4668220000000  0.4587590000000 1.0
C      1  0.5269070000000  0.5610040000000  0.4965420000000 1.0
C      1  0.5822920000000  0.5188360000000  0.4460940000000 1.0
C      1  0.5016340000000  0.5828830000000  0.5351280000000 1.0
C      1  0.4792940000000  0.5808150000000  0.4238140000000 1.0
C      1  0.5016470000000  0.5686510000000  0.4831640000000 1.0
C      1  0.4898030000000  0.6174300000000  0.5032660000000 1.0
C      1  0.5118320000000  0.3827220000000  0.5488710000000 1.0
C      1  0.5012530000000  0.5113910000000  0.4143700000000 1.0
C      1  0.5104330000000  0.5947260000000  0.5588260000000 1.0
C      1  0.4915280000000  0.4376780000000  0.5818890000000 1.0
C      1  0.4385460000000  0.5624920000000  0.5167850000000 1.0
C      1  0.4213230000000  0.5400450000000  0.5120940000000 1.0
C      1  0.4995720000000  0.6152690000000  0.4779460000000 1.0
C      1  0.5207270000000  0.5574200000000  0.4330550000000 1.0
C      1  0.5250670000000  0.4836780000000  0.5384730000000 1.0
C      1  0.5358410000000  0.5410160000000  0.4766210000000 1.0
C      1  0.5230800000000  0.6021140000000  0.5809070000000 1.0
C      1  0.5811360000000  0.4787510000000  0.4778060000000 1.0
C      1  0.5533370000000  0.4189860000000  0.4580320000000 1.0
C      1  0.5644460000000  0.4479370000000  0.4231120000000 1.0
C      1  0.5339050000000  0.4758060000000  0.5646280000000 1.0
C      1  0.5147740000000  0.4647170000000  0.4964770000000 1.0
C      1  0.4862600000000  0.5458960000000  0.4918760000000 1.0
C      1  0.4164420000000  0.4673590000000  0.4461340000000 1.0
C      1  0.5371130000000  0.4428810000000  0.4143130000000 1.0
C      1  0.4541770000000  0.5850780000000  0.5095250000000 1.0
C      1  0.5168620000000  0.4994840000000  0.3944150000000 1.0
C      1  0.4173970000000  0.4433750000000  0.4621030000000 1.0
END
