TITL C-612604-1799-318 1557.63974700417 125000 -907.46118092571 0 0 148 (C1) n - 1
REM
REM in /home/nfs/bkarasulu/CARBON/AIRSS/Generating-Clusters/TERSOFF/Only-C1/FIRE-HFTN
REM
REM
REM
REM
REM
REM ./C.cell (11c1c37f851c82e70ff6c80c92926a4b)
REM AIRSS Version 0.9.1 bugfix July 2018 build 013d7b7c2542+ Fri, 06 Jul 2018 19:26:36 +0100
REM compiler GCC version 9.2.1 20190827 (Red Hat 9.2.1-1)
REM options -cpp -mtune=generic -march=x86-64 -g -O0 -fpre-include=/usr/include/finclude/math-vector-fortran.h
REM seed -1633897650 262252935 1911857317 -396719575 2134270639 513513889 -1223617768 248159217 395249358 -1060655514 -1203282296 945715787 1397830175 -1659005313 1849705811 498055733 401867710 452578172 121656434 1903804590 -15701338 1815032217 -756939594 -326038189 364732990 -766079913 834318796 -663097783 1604270471 1527186025 -1927279633 -2094611234 -1986205068
REM
CELL 1.54180   50.00000   50.00000   50.00000   90.00000   90.00000   90.00000
LATT -1
SFAC C  
C      1  0.5255230000000  0.4371610000000  0.4136500000000 1.0
C      1  0.4781600000000  0.4717620000000  0.4364610000000 1.0
C      1  0.4640520000000  0.5185250000000  0.5344510000000 1.0
C      1  0.4662830000000  0.4079940000000  0.5826490000000 1.0
C      1  0.5342790000000  0.5223840000000  0.3919080000000 1.0
C      1  0.5407290000000  0.4889630000000  0.5845480000000 1.0
C      1  0.5882150000000  0.5081180000000  0.5451960000000 1.0
C      1  0.5104040000000  0.5251990000000  0.5243610000000 1.0
C      1  0.4591470000000  0.5754030000000  0.4855470000000 1.0
C      1  0.5650290000000  0.5725990000000  0.4545860000000 1.0
C      1  0.5581200000000  0.5584200000000  0.4780920000000 1.0
C      1  0.6286010000000  0.5024760000000  0.5194340000000 1.0
C      1  0.5774430000000  0.4432330000000  0.5676130000000 1.0
C      1  0.5109370000000  0.4353050000000  0.4379180000000 1.0
C      1  0.5185100000000  0.4836290000000  0.4586150000000 1.0
C      1  0.5021430000000  0.4914000000000  0.3966320000000 1.0
C      1  0.5905510000000  0.4849550000000  0.5614910000000 1.0
C      1  0.4887300000000  0.4407820000000  0.4887900000000 1.0
C      1  0.3951200000000  0.5532430000000  0.4998010000000 1.0
C      1  0.4709430000000  0.5233670000000  0.5049580000000 1.0
C      1  0.5017420000000  0.5926270000000  0.5128700000000 1.0
C      1  0.5814130000000  0.5115480000000  0.4822800000000 1.0
C      1  0.5502650000000  0.5343510000000  0.4134430000000 1.0
C      1  0.4415750000000  0.4280900000000  0.4928690000000 1.0
C      1  0.5915060000000  0.5317600000000  0.5017760000000 1.0
C      1  0.4967270000000  0.3965860000000  0.5248190000000 1.0
C      1  0.5076270000000  0.4561790000000  0.5638770000000 1.0
C      1  0.5647260000000  0.6151440000000  0.4745700000000 1.0
C      1  0.4703490000000  0.4119800000000  0.5331580000000 1.0
C      1  0.5073640000000  0.5545800000000  0.5935480000000 1.0
C      1  0.4192670000000  0.5382830000000  0.4966770000000 1.0
C      1  0.4195850000000  0.4490630000000  0.4515800000000 1.0
C      1  0.4871830000000  0.5646630000000  0.4209380000000 1.0
C      1  0.5407110000000  0.5145440000000  0.5969460000000 1.0
C      1  0.5488290000000  0.6049110000000  0.5534440000000 1.0
C      1  0.5613540000000  0.4199930000000  0.5674930000000 1.0
C      1  0.4516350000000  0.5800730000000  0.5517850000000 1.0
C      1  0.6055360000000  0.5182880000000  0.5240740000000 1.0
C      1  0.4552650000000  0.4889040000000  0.5312350000000 1.0
C      1  0.5604830000000  0.4249160000000  0.4732970000000 1.0
C      1  0.5392090000000  0.3874050000000  0.4997280000000 1.0
C      1  0.5412220000000  0.4585720000000  0.4025700000000 1.0
C      1  0.3715400000000  0.5446540000000  0.4890660000000 1.0
C      1  0.5411070000000  0.4439680000000  0.4816960000000 1.0
C      1  0.5218630000000  0.6051190000000  0.5548970000000 1.0
C      1  0.4792810000000  0.4796220000000  0.4083760000000 1.0
C      1  0.4540760000000  0.5179740000000  0.5904300000000 1.0
C      1  0.4819380000000  0.4667480000000  0.4968380000000 1.0
C      1  0.4880950000000  0.5770010000000  0.4916680000000 1.0
C      1  0.4429680000000  0.6274920000000  0.5448040000000 1.0
C      1  0.4578360000000  0.5459200000000  0.5841550000000 1.0
C      1  0.5208500000000  0.4365950000000  0.5219580000000 1.0
C      1  0.6337150000000  0.4762770000000  0.5236790000000 1.0
C      1  0.4408750000000  0.4898080000000  0.5046240000000 1.0
C      1  0.5717210000000  0.5854020000000  0.5137070000000 1.0
C      1  0.5592510000000  0.4001970000000  0.4868630000000 1.0
C      1  0.5346130000000  0.4139740000000  0.5588740000000 1.0
C      1  0.4845420000000  0.4914900000000  0.6178070000000 1.0
C      1  0.4517170000000  0.6519230000000  0.5472040000000 1.0
C      1  0.5777810000000  0.4313500000000  0.4522700000000 1.0
C      1  0.5304640000000  0.4785500000000  0.5128150000000 1.0
C      1  0.5315740000000  0.5538380000000  0.4884390000000 1.0
C      1  0.4454520000000  0.5388700000000  0.4584490000000 1.0
C      1  0.4534500000000  0.5965130000000  0.4405530000000 1.0
C      1  0.5020670000000  0.4818110000000  0.5111680000000 1.0
C      1  0.4839620000000  0.5390920000000  0.4028590000000 1.0
C      1  0.4355810000000  0.6007690000000  0.5416820000000 1.0
C      1  0.3970940000000  0.5772340000000  0.5141080000000 1.0
C      1  0.4269630000000  0.4415500000000  0.5384050000000 1.0
C      1  0.5308310000000  0.5430390000000  0.5165900000000 1.0
C      1  0.6214350000000  0.4562200000000  0.5370180000000 1.0
C      1  0.4785090000000  0.5039570000000  0.5936040000000 1.0
C      1  0.4535460000000  0.5336990000000  0.4020440000000 1.0
C      1  0.5266060000000  0.6049810000000  0.5038820000000 1.0
C      1  0.4668360000000  0.5269190000000  0.4489640000000 1.0
C      1  0.4830670000000  0.5618300000000  0.5813870000000 1.0
C      1  0.4929390000000  0.5209160000000  0.4530630000000 1.0
C      1  0.5603900000000  0.5135440000000  0.4336270000000 1.0
C      1  0.4264440000000  0.4287100000000  0.4329410000000 1.0
C      1  0.4447190000000  0.4247850000000  0.5215810000000 1.0
C      1  0.5612880000000  0.5141260000000  0.5393910000000 1.0
C      1  0.4176040000000  0.5136450000000  0.5381420000000 1.0
C      1  0.5800000000000  0.5151320000000  0.4539780000000 1.0
C      1  0.4640330000000  0.4695980000000  0.5490960000000 1.0
C      1  0.4390600000000  0.5328400000000  0.5436880000000 1.0
C      1  0.4584620000000  0.4786860000000  0.4846590000000 1.0
C      1  0.4411240000000  0.5517670000000  0.4830380000000 1.0
C      1  0.4798260000000  0.4503140000000  0.5615740000000 1.0
C      1  0.4424350000000  0.5600180000000  0.4078620000000 1.0
C      1  0.5785810000000  0.5589250000000  0.4993770000000 1.0
C      1  0.4661030000000  0.4261420000000  0.4786980000000 1.0
C      1  0.5286640000000  0.4824630000000  0.3941130000000 1.0
C      1  0.4298470000000  0.4754970000000  0.4454090000000 1.0
C      1  0.5349860000000  0.5009550000000  0.4420230000000 1.0
C      1  0.5157810000000  0.5230870000000  0.4373650000000 1.0
C      1  0.5102670000000  0.3901880000000  0.4979070000000 1.0
C      1  0.5231370000000  0.4380490000000  0.5492810000000 1.0
C      1  0.4923540000000  0.5192030000000  0.5472810000000 1.0
C      1  0.5048830000000  0.5209880000000  0.3933030000000 1.0
C      1  0.5158370000000  0.4819210000000  0.5724390000000 1.0
C      1  0.5055760000000  0.3636660000000  0.4567410000000 1.0
C      1  0.4403500000000  0.5079240000000  0.4058510000000 1.0
C      1  0.4553920000000  0.4862890000000  0.3951290000000 1.0
C      1  0.4962830000000  0.5030240000000  0.5709510000000 1.0
C      1  0.5182770000000  0.3671570000000  0.5604100000000 1.0
C      1  0.4423430000000  0.5544740000000  0.5609600000000 1.0
C      1  0.5163150000000  0.4357960000000  0.4943570000000 1.0
C      1  0.4907830000000  0.4790060000000  0.6398120000000 1.0
C      1  0.5083930000000  0.5656550000000  0.4727270000000 1.0
C      1  0.5636210000000  0.4742690000000  0.5798910000000 1.0
C      1  0.5032170000000  0.4621150000000  0.4469330000000 1.0
C      1  0.3932470000000  0.4397830000000  0.4919410000000 1.0
C      1  0.5288870000000  0.5473160000000  0.4300070000000 1.0
C      1  0.4722520000000  0.4228430000000  0.5605320000000 1.0
C      1  0.4974440000000  0.5101580000000  0.5014990000000 1.0
C      1  0.5478000000000  0.4939980000000  0.5270720000000 1.0
C      1  0.4174190000000  0.4925260000000  0.5583550000000 1.0
C      1  0.5815510000000  0.4444380000000  0.4292540000000 1.0
C      1  0.4513360000000  0.5961780000000  0.4674210000000 1.0
C      1  0.4119470000000  0.5940940000000  0.5282630000000 1.0
C      1  0.5664600000000  0.5859160000000  0.5420390000000 1.0
C      1  0.4205250000000  0.5112500000000  0.5085040000000 1.0
C      1  0.5022020000000  0.5040290000000  0.4737550000000 1.0
C      1  0.5684890000000  0.4884130000000  0.4925260000000 1.0
C      1  0.4168130000000  0.4643110000000  0.5503700000000 1.0
C      1  0.5047750000000  0.3893630000000  0.4684410000000 1.0
C      1  0.4235320000000  0.4969200000000  0.4269880000000 1.0
C      1  0.5066280000000  0.3400100000000  0.4458630000000 1.0
C      1  0.5172450000000  0.3919930000000  0.5489340000000 1.0
C      1  0.4309560000000  0.5020170000000  0.5825660000000 1.0
C      1  0.4181780000000  0.4393130000000  0.4792270000000 1.0
C      1  0.4799100000000  0.5808830000000  0.5586980000000 1.0
C      1  0.4491200000000  0.4140500000000  0.4341600000000 1.0
C      1  0.5685790000000  0.4565190000000  0.4090680000000 1.0
C      1  0.3692950000000  0.4412380000000  0.5021100000000 1.0
C      1  0.5631470000000  0.5601220000000  0.5521330000000 1.0
C      1  0.5548680000000  0.6047320000000  0.4989930000000 1.0
C      1  0.5688740000000  0.5993490000000  0.4529430000000 1.0
C      1  0.5483170000000  0.4694860000000  0.4911640000000 1.0
C      1  0.4566390000000  0.4772410000000  0.4557700000000 1.0
C      1  0.4994070000000  0.5930130000000  0.5420300000000 1.0
C      1  0.5995140000000  0.4569690000000  0.5543440000000 1.0
C      1  0.5093390000000  0.5663650000000  0.4413000000000 1.0
C      1  0.5277100000000  0.5379860000000  0.5990640000000 1.0
C      1  0.4609040000000  0.5777440000000  0.4212280000000 1.0
C      1  0.4698020000000  0.4150750000000  0.4529010000000 1.0
C      1  0.4982530000000  0.4115680000000  0.4498090000000 1.0
C      1  0.5516270000000  0.5401590000000  0.5365720000000 1.0
END
