TITL C-612607-4507-115 4500.50716679864 125000 -1162.67602771074 0 0 189 (C1) n - 1
REM
REM in /home/nfs/bkarasulu/CARBON/AIRSS/Generating-Clusters/TERSOFF/Only-C1/FIRE-HFTN
REM
REM
REM
REM
REM
REM ./C.cell (11c1c37f851c82e70ff6c80c92926a4b)
REM AIRSS Version 0.9.1 bugfix July 2018 build 013d7b7c2542+ Fri, 06 Jul 2018 19:26:36 +0100
REM compiler GCC version 9.2.1 20190827 (Red Hat 9.2.1-1)
REM options -cpp -mtune=generic -march=x86-64 -g -O0 -fpre-include=/usr/include/finclude/math-vector-fortran.h
REM seed -880641056 71973397 -905107159 752747162 -1119220265 -810535708 1038466732 -385638015 -768695488 -1153093921 1295691533 -598167146 -1519264200 -253069661 1237962982 20846766 2088652899 708474886 -308043331 689534800 -1831096028 262545286 435702952 1111021619 2027808141 -1545202836 -1820242104 -1412069326 -2043632285 -2037332947 518696928 277537879 67902247
REM
CELL 1.54180   50.00000   50.00000   50.00000   90.00000   90.00000   90.00000
LATT -1
SFAC C  
C      1  0.4231420000000  0.4649400000000  0.4587620000000 1.0
C      1  0.4227340000000  0.4582200000000  0.4318240000000 1.0
C      1  0.3660860000000  0.5348200000000  0.4558970000000 1.0
C      1  0.5138470000000  0.5446770000000  0.5458280000000 1.0
C      1  0.5561270000000  0.5419650000000  0.5638930000000 1.0
C      1  0.5112430000000  0.5670910000000  0.3801520000000 1.0
C      1  0.4071370000000  0.5490890000000  0.4938770000000 1.0
C      1  0.4788700000000  0.5971720000000  0.5116250000000 1.0
C      1  0.4001730000000  0.5412990000000  0.4224970000000 1.0
C      1  0.4773080000000  0.4024240000000  0.5833140000000 1.0
C      1  0.4299450000000  0.4600550000000  0.5262710000000 1.0
C      1  0.6006690000000  0.5251610000000  0.4151430000000 1.0
C      1  0.4951170000000  0.4983010000000  0.6400370000000 1.0
C      1  0.4997160000000  0.6149680000000  0.4960010000000 1.0
C      1  0.5880710000000  0.4569880000000  0.5309550000000 1.0
C      1  0.6214290000000  0.5044410000000  0.5299190000000 1.0
C      1  0.5412090000000  0.3903310000000  0.5046950000000 1.0
C      1  0.5239360000000  0.5880080000000  0.3913110000000 1.0
C      1  0.4194340000000  0.4047810000000  0.4899110000000 1.0
C      1  0.4997430000000  0.5233240000000  0.4307630000000 1.0
C      1  0.6060910000000  0.5247430000000  0.5451580000000 1.0
C      1  0.4542970000000  0.4024840000000  0.5686150000000 1.0
C      1  0.4831180000000  0.4551220000000  0.5239970000000 1.0
C      1  0.5664340000000  0.5161700000000  0.5670450000000 1.0
C      1  0.4806200000000  0.5133240000000  0.4497970000000 1.0
C      1  0.4609910000000  0.4634720000000  0.4017750000000 1.0
C      1  0.5247970000000  0.5405100000000  0.5981190000000 1.0
C      1  0.4829800000000  0.3099820000000  0.4675690000000 1.0
C      1  0.5003360000000  0.3274020000000  0.4762260000000 1.0
C      1  0.5022790000000  0.4958930000000  0.5003260000000 1.0
C      1  0.5510330000000  0.4900490000000  0.4541400000000 1.0
C      1  0.4112160000000  0.5226380000000  0.5026370000000 1.0
C      1  0.5708550000000  0.4401180000000  0.4292720000000 1.0
C      1  0.4718340000000  0.5761220000000  0.4195090000000 1.0
C      1  0.5447170000000  0.4542720000000  0.4997100000000 1.0
C      1  0.4425880000000  0.4462090000000  0.4159890000000 1.0
C      1  0.4289320000000  0.5720120000000  0.5630820000000 1.0
C      1  0.5322270000000  0.4060920000000  0.5569620000000 1.0
C      1  0.4201310000000  0.4780080000000  0.6061580000000 1.0
C      1  0.4893740000000  0.4246870000000  0.5964110000000 1.0
C      1  0.4657620000000  0.5698640000000  0.5085280000000 1.0
C      1  0.4236030000000  0.5595430000000  0.3855970000000 1.0
C      1  0.5743440000000  0.4529570000000  0.5560680000000 1.0
C      1  0.5347890000000  0.6127900000000  0.5273490000000 1.0
C      1  0.4128360000000  0.5041460000000  0.4819720000000 1.0
C      1  0.4949270000000  0.4727530000000  0.6274540000000 1.0
C      1  0.4410550000000  0.4553520000000  0.5003140000000 1.0
C      1  0.4311680000000  0.4043280000000  0.4408200000000 1.0
C      1  0.4602070000000  0.5416370000000  0.5825690000000 1.0
C      1  0.3902590000000  0.5472900000000  0.4483700000000 1.0
C      1  0.5274660000000  0.5061840000000  0.4928030000000 1.0
C      1  0.4489020000000  0.5919650000000  0.4574520000000 1.0
C      1  0.4604570000000  0.6084320000000  0.5745790000000 1.0
C      1  0.5596600000000  0.5367290000000  0.4760030000000 1.0
C      1  0.5179010000000  0.5891440000000  0.5315160000000 1.0
C      1  0.5308490000000  0.4735830000000  0.4441120000000 1.0
C      1  0.5583910000000  0.6120240000000  0.5420630000000 1.0
C      1  0.5649700000000  0.5651860000000  0.5497450000000 1.0
C      1  0.4022250000000  0.5610040000000  0.4022320000000 1.0
C      1  0.5164790000000  0.4353460000000  0.5973230000000 1.0
C      1  0.5714660000000  0.5579530000000  0.5222460000000 1.0
C      1  0.4243740000000  0.5818430000000  0.4619860000000 1.0
C      1  0.5287360000000  0.5430470000000  0.5699120000000 1.0
C      1  0.4619410000000  0.4539200000000  0.5724300000000 1.0
C      1  0.5116790000000  0.5610350000000  0.4661130000000 1.0
C      1  0.5441450000000  0.4740520000000  0.6197640000000 1.0
C      1  0.4050930000000  0.5297360000000  0.5496730000000 1.0
C      1  0.5290340000000  0.5279980000000  0.4400470000000 1.0
C      1  0.5311190000000  0.3661540000000  0.4948740000000 1.0
C      1  0.3941930000000  0.4944860000000  0.4114890000000 1.0
C      1  0.5312860000000  0.5567880000000  0.4451770000000 1.0
C      1  0.4494750000000  0.4198430000000  0.4245410000000 1.0
C      1  0.5544620000000  0.4080150000000  0.4863530000000 1.0
C      1  0.4884010000000  0.5005700000000  0.5712490000000 1.0
C      1  0.5109370000000  0.6011020000000  0.5819610000000 1.0
C      1  0.4967340000000  0.4477940000000  0.4804270000000 1.0
C      1  0.5000430000000  0.5307000000000  0.6056720000000 1.0
C      1  0.5399250000000  0.4232860000000  0.4659610000000 1.0
C      1  0.5931490000000  0.5644780000000  0.4616730000000 1.0
C      1  0.4878380000000  0.4523130000000  0.3976100000000 1.0
C      1  0.5754870000000  0.4492800000000  0.5038610000000 1.0
C      1  0.4020720000000  0.4748150000000  0.5864410000000 1.0
C      1  0.4378180000000  0.5158260000000  0.4018570000000 1.0
C      1  0.5403170000000  0.4913660000000  0.5362090000000 1.0
C      1  0.4734170000000  0.4493740000000  0.5489870000000 1.0
C      1  0.5304430000000  0.4738260000000  0.5550050000000 1.0
C      1  0.5893530000000  0.5152480000000  0.4391370000000 1.0
C      1  0.3534570000000  0.5124770000000  0.4633870000000 1.0
C      1  0.5829120000000  0.5366040000000  0.4583350000000 1.0
C      1  0.5439460000000  0.5200930000000  0.4148770000000 1.0
C      1  0.4034750000000  0.4792310000000  0.4734300000000 1.0
C      1  0.4471140000000  0.4601410000000  0.4737530000000 1.0
C      1  0.4334590000000  0.4892720000000  0.5314590000000 1.0
C      1  0.6105990000000  0.4770030000000  0.5308460000000 1.0
C      1  0.5718620000000  0.4674420000000  0.4189810000000 1.0
C      1  0.5858620000000  0.4687260000000  0.5763730000000 1.0
C      1  0.4831370000000  0.4846970000000  0.4508960000000 1.0
C      1  0.5193770000000  0.4596590000000  0.6157660000000 1.0
C      1  0.4064360000000  0.5553020000000  0.5589750000000 1.0
C      1  0.5167920000000  0.5616230000000  0.5230600000000 1.0
C      1  0.4607490000000  0.4983710000000  0.5259700000000 1.0
C      1  0.6086920000000  0.4160230000000  0.4548220000000 1.0
C      1  0.4825770000000  0.3992870000000  0.4515590000000 1.0
C      1  0.4431200000000  0.4760360000000  0.6202750000000 1.0
C      1  0.4491300000000  0.5448220000000  0.6090410000000 1.0
C      1  0.3756670000000  0.4657760000000  0.5124460000000 1.0
C      1  0.4454560000000  0.5426610000000  0.3927720000000 1.0
C      1  0.6070580000000  0.5303400000000  0.5739550000000 1.0
C      1  0.5889370000000  0.4693810000000  0.4857440000000 1.0
C      1  0.4871060000000  0.6039160000000  0.5661040000000 1.0
C      1  0.5585940000000  0.5909300000000  0.5611430000000 1.0
C      1  0.4132350000000  0.4160430000000  0.5135160000000 1.0
C      1  0.6300080000000  0.5410110000000  0.4916560000000 1.0
C      1  0.4645090000000  0.5530240000000  0.4845940000000 1.0
C      1  0.5746860000000  0.5114750000000  0.5094000000000 1.0
C      1  0.5254970000000  0.4446040000000  0.4798010000000 1.0
C      1  0.4528360000000  0.5567490000000  0.5594780000000 1.0
C      1  0.4691590000000  0.5563310000000  0.3995570000000 1.0
C      1  0.3778840000000  0.4672740000000  0.5392700000000 1.0
C      1  0.5071440000000  0.4821500000000  0.5675180000000 1.0
C      1  0.4759000000000  0.4098020000000  0.4992120000000 1.0
C      1  0.5457960000000  0.4274190000000  0.4378430000000 1.0
C      1  0.4827320000000  0.4828730000000  0.5163830000000 1.0
C      1  0.4742810000000  0.5871660000000  0.4454970000000 1.0
C      1  0.5706260000000  0.5213450000000  0.6147300000000 1.0
C      1  0.5917070000000  0.5478010000000  0.4035060000000 1.0
C      1  0.4911020000000  0.5979740000000  0.5386770000000 1.0
C      1  0.5858360000000  0.5328510000000  0.5248800000000 1.0
C      1  0.4144450000000  0.5121450000000  0.5293490000000 1.0
C      1  0.4618260000000  0.5359170000000  0.6318320000000 1.0
C      1  0.5020170000000  0.5229830000000  0.4011580000000 1.0
C      1  0.4659190000000  0.3994410000000  0.4747470000000 1.0
C      1  0.5791770000000  0.4207420000000  0.4943180000000 1.0
C      1  0.5369910000000  0.5945360000000  0.4140520000000 1.0
C      1  0.4089100000000  0.3927320000000  0.4299220000000 1.0
C      1  0.5483360000000  0.5393840000000  0.6140010000000 1.0
C      1  0.4061750000000  0.5611050000000  0.4680850000000 1.0
C      1  0.5785270000000  0.4944020000000  0.5765600000000 1.0
C      1  0.4704740000000  0.4458770000000  0.5976270000000 1.0
C      1  0.5890530000000  0.4957520000000  0.4910250000000 1.0
C      1  0.4748210000000  0.4636370000000  0.4675840000000 1.0
C      1  0.5328790000000  0.4291770000000  0.5736030000000 1.0
C      1  0.5267160000000  0.5097200000000  0.3942680000000 1.0
C      1  0.5083310000000  0.4662550000000  0.3837740000000 1.0
C      1  0.5170730000000  0.3458030000000  0.4853810000000 1.0
C      1  0.4655110000000  0.5257000000000  0.5271140000000 1.0
C      1  0.5690330000000  0.5839270000000  0.4569070000000 1.0
C      1  0.4688860000000  0.4642140000000  0.6185140000000 1.0
C      1  0.5724700000000  0.5645240000000  0.4116820000000 1.0
C      1  0.5459580000000  0.4507960000000  0.5606130000000 1.0
C      1  0.4935480000000  0.5469680000000  0.3888950000000 1.0
C      1  0.6171150000000  0.5607740000000  0.4775970000000 1.0
C      1  0.5950380000000  0.4266060000000  0.4343220000000 1.0
C      1  0.6333420000000  0.5187040000000  0.5073330000000 1.0
C      1  0.5621410000000  0.4944330000000  0.6215550000000 1.0
C      1  0.5369920000000  0.3966370000000  0.5321440000000 1.0
C      1  0.5374820000000  0.5945840000000  0.5807000000000 1.0
C      1  0.4965580000000  0.4290940000000  0.4133280000000 1.0
C      1  0.5169010000000  0.6030720000000  0.4754200000000 1.0
C      1  0.3873430000000  0.4705940000000  0.5642970000000 1.0
C      1  0.6028450000000  0.4133500000000  0.4809500000000 1.0
C      1  0.3565280000000  0.4877440000000  0.4733250000000 1.0
C      1  0.5396150000000  0.5150090000000  0.4664430000000 1.0
C      1  0.3778100000000  0.4732340000000  0.4850580000000 1.0
C      1  0.4618000000000  0.5529620000000  0.5326000000000 1.0
C      1  0.5182990000000  0.6302850000000  0.5123010000000 1.0
C      1  0.4377220000000  0.4010310000000  0.4687790000000 1.0
C      1  0.4354400000000  0.5981390000000  0.5716000000000 1.0
C      1  0.5474310000000  0.5046110000000  0.5132660000000 1.0
C      1  0.5949420000000  0.5286830000000  0.5991950000000 1.0
C      1  0.5578430000000  0.5613160000000  0.4958170000000 1.0
C      1  0.5749050000000  0.4899500000000  0.4382570000000 1.0
C      1  0.4993340000000  0.5861420000000  0.4599310000000 1.0
C      1  0.4826830000000  0.5246460000000  0.5835780000000 1.0
C      1  0.4112730000000  0.5157640000000  0.4142550000000 1.0
C      1  0.5497490000000  0.5871080000000  0.4799190000000 1.0
C      1  0.5239570000000  0.4248910000000  0.4197610000000 1.0
C      1  0.5131630000000  0.5550830000000  0.4948890000000 1.0
C      1  0.4680730000000  0.5317370000000  0.4678040000000 1.0
C      1  0.4864170000000  0.4354560000000  0.5041370000000 1.0
C      1  0.4232360000000  0.4322680000000  0.5350830000000 1.0
C      1  0.5055980000000  0.4756830000000  0.4366210000000 1.0
C      1  0.5565270000000  0.4722570000000  0.3951990000000 1.0
C      1  0.5525370000000  0.5758730000000  0.4317140000000 1.0
C      1  0.5311330000000  0.4826830000000  0.3871320000000 1.0
C      1  0.4525390000000  0.4911350000000  0.3983380000000 1.0
C      1  0.4772370000000  0.4138440000000  0.4277140000000 1.0
C      1  0.4878600000000  0.5239030000000  0.6304810000000 1.0
C      1  0.4350890000000  0.4168080000000  0.5559620000000 1.0
END
