TITL C-612605-9286-899 0.00648889827047211 125000 -662.453928150318 0 0 109 (C1) n - 1
REM
REM in /home/nfs/bkarasulu/CARBON/AIRSS/Generating-Clusters/TERSOFF/Only-C1/FIRE-HFTN
REM
REM
REM
REM
REM
REM ./C.cell (11c1c37f851c82e70ff6c80c92926a4b)
REM AIRSS Version 0.9.1 bugfix July 2018 build 013d7b7c2542+ Fri, 06 Jul 2018 19:26:36 +0100
REM compiler GCC version 9.2.1 20190827 (Red Hat 9.2.1-1)
REM options -cpp -mtune=generic -march=x86-64 -g -O0 -fpre-include=/usr/include/finclude/math-vector-fortran.h
REM seed 1987635693 -1962765345 1139047324 1850590195 2090612012 -1931387981 135133539 822752231 1066963071 1020093719 -1126909370 -1070970607 1221808987 1411041570 1824722280 379646977 235866616 81188241 373036667 -1391835624 -1422103919 801622637 837206336 -899306216 -1255971949 1018567767 -1823191345 2045384850 1448108405 994527263 876952513 194062575 172410806
REM
CELL 1.54180   50.00000   50.00000   50.00000   90.00000   90.00000   90.00000
LATT -1
SFAC C  
C      1  0.5125510000000  0.4708230000000  0.4806390000000 1.0
C      1  0.5779210000000  0.5076670000000  0.4711410000000 1.0
C      1  0.5665830000000  0.5584900000000  0.4693170000000 1.0
C      1  0.4578750000000  0.5050820000000  0.5487150000000 1.0
C      1  0.4293530000000  0.5135120000000  0.4390270000000 1.0
C      1  0.5128210000000  0.4058650000000  0.4856820000000 1.0
C      1  0.4953900000000  0.5576470000000  0.4125330000000 1.0
C      1  0.4715880000000  0.6016140000000  0.5027330000000 1.0
C      1  0.5111180000000  0.5798520000000  0.5020560000000 1.0
C      1  0.5666850000000  0.5517080000000  0.5211690000000 1.0
C      1  0.4942210000000  0.4095990000000  0.5080910000000 1.0
C      1  0.4014110000000  0.4790000000000  0.5245240000000 1.0
C      1  0.4155940000000  0.4919180000000  0.4527610000000 1.0
C      1  0.4473640000000  0.5881020000000  0.5079570000000 1.0
C      1  0.4433430000000  0.5239990000000  0.4889920000000 1.0
C      1  0.5371610000000  0.5454080000000  0.5212320000000 1.0
C      1  0.4508250000000  0.4514690000000  0.5072180000000 1.0
C      1  0.5461420000000  0.5743490000000  0.4571780000000 1.0
C      1  0.5156530000000  0.4958870000000  0.5476800000000 1.0
C      1  0.4544090000000  0.4289300000000  0.5237970000000 1.0
C      1  0.4252230000000  0.5422560000000  0.4346660000000 1.0
C      1  0.5061720000000  0.4303980000000  0.5229210000000 1.0
C      1  0.4571420000000  0.4829530000000  0.5673870000000 1.0
C      1  0.5729550000000  0.5331560000000  0.4566980000000 1.0
C      1  0.5649090000000  0.5326910000000  0.4291890000000 1.0
C      1  0.4970790000000  0.4542720000000  0.5340090000000 1.0
C      1  0.5236510000000  0.4281620000000  0.4314320000000 1.0
C      1  0.5561420000000  0.4308860000000  0.4700840000000 1.0
C      1  0.5316240000000  0.5212300000000  0.5087740000000 1.0
C      1  0.5821760000000  0.5050560000000  0.5007450000000 1.0
C      1  0.5457230000000  0.4828030000000  0.4406260000000 1.0
C      1  0.5313820000000  0.4099040000000  0.6185530000000 1.0
C      1  0.5139830000000  0.4278210000000  0.5707140000000 1.0
C      1  0.4440740000000  0.4983320000000  0.5257060000000 1.0
C      1  0.4830160000000  0.4758620000000  0.5758380000000 1.0
C      1  0.4656920000000  0.4081150000000  0.5080940000000 1.0
C      1  0.5445640000000  0.5458020000000  0.5856870000000 1.0
C      1  0.5285340000000  0.5243650000000  0.4817970000000 1.0
C      1  0.4840450000000  0.4273290000000  0.5654050000000 1.0
C      1  0.4006720000000  0.4715020000000  0.4969020000000 1.0
C      1  0.5415990000000  0.5242720000000  0.4153310000000 1.0
C      1  0.5723530000000  0.5154130000000  0.5525640000000 1.0
C      1  0.4739650000000  0.5612950000000  0.4361480000000 1.0
C      1  0.4905120000000  0.4887310000000  0.4012680000000 1.0
C      1  0.4841070000000  0.5391600000000  0.4967110000000 1.0
C      1  0.4858200000000  0.6154210000000  0.5237710000000 1.0
C      1  0.4050900000000  0.5300810000000  0.5196330000000 1.0
C      1  0.5542030000000  0.5897970000000  0.5511410000000 1.0
C      1  0.5548490000000  0.4656580000000  0.5072580000000 1.0
C      1  0.5011510000000  0.4730400000000  0.5543950000000 1.0
C      1  0.5747670000000  0.5640040000000  0.4957410000000 1.0
C      1  0.5875740000000  0.4845190000000  0.5861390000000 1.0
C      1  0.5233870000000  0.4848400000000  0.4584100000000 1.0
C      1  0.4988160000000  0.4267910000000  0.4445540000000 1.0
C      1  0.5208620000000  0.5807270000000  0.4502150000000 1.0
C      1  0.5135400000000  0.5604550000000  0.5226320000000 1.0
C      1  0.4577590000000  0.5098300000000  0.4336220000000 1.0
C      1  0.4662120000000  0.4620050000000  0.4316530000000 1.0
C      1  0.4404690000000  0.5646210000000  0.5224200000000 1.0
C      1  0.5788170000000  0.4778550000000  0.5085900000000 1.0
C      1  0.5408800000000  0.4389290000000  0.5502760000000 1.0
C      1  0.4619210000000  0.4721060000000  0.4912460000000 1.0
C      1  0.5226700000000  0.4181650000000  0.5954250000000 1.0
C      1  0.5156040000000  0.5371500000000  0.4191760000000 1.0
C      1  0.4412910000000  0.4596130000000  0.5590200000000 1.0
C      1  0.5171200000000  0.5118280000000  0.4607760000000 1.0
C      1  0.5656740000000  0.5418980000000  0.5667620000000 1.0
C      1  0.5282420000000  0.4746800000000  0.5044610000000 1.0
C      1  0.4530890000000  0.4028750000000  0.4822840000000 1.0
C      1  0.5355140000000  0.4283290000000  0.5226490000000 1.0
C      1  0.5398900000000  0.4197430000000  0.4928030000000 1.0
C      1  0.4693000000000  0.4874700000000  0.4199340000000 1.0
C      1  0.4319360000000  0.4191270000000  0.4720390000000 1.0
C      1  0.4817280000000  0.4489620000000  0.4510170000000 1.0
C      1  0.4579190000000  0.4354130000000  0.5520460000000 1.0
C      1  0.4746500000000  0.5313660000000  0.4475440000000 1.0
C      1  0.5394490000000  0.4950430000000  0.4148620000000 1.0
C      1  0.5710060000000  0.4879630000000  0.5639730000000 1.0
C      1  0.5152610000000  0.5158190000000  0.5669860000000 1.0
C      1  0.4490960000000  0.4970500000000  0.4981240000000 1.0
C      1  0.4160790000000  0.4646480000000  0.5451440000000 1.0
C      1  0.5469900000000  0.4230830000000  0.4440930000000 1.0
C      1  0.4504680000000  0.5646350000000  0.5496400000000 1.0
C      1  0.4201180000000  0.4422900000000  0.4644830000000 1.0
C      1  0.4702570000000  0.5647960000000  0.5684590000000 1.0
C      1  0.5028540000000  0.5250110000000  0.4420280000000 1.0
C      1  0.4895990000000  0.5884400000000  0.4845030000000 1.0
C      1  0.5559420000000  0.4633720000000  0.5568540000000 1.0
C      1  0.5086000000000  0.6149030000000  0.5386580000000 1.0
C      1  0.4972610000000  0.4039330000000  0.4614790000000 1.0
C      1  0.4716780000000  0.3918420000000  0.4637630000000 1.0
C      1  0.4851200000000  0.4635600000000  0.4759940000000 1.0
C      1  0.4927560000000  0.5802020000000  0.4571370000000 1.0
C      1  0.5683910000000  0.5651030000000  0.5484360000000 1.0
C      1  0.5238340000000  0.4975670000000  0.5209010000000 1.0
C      1  0.4902310000000  0.5428660000000  0.5241120000000 1.0
C      1  0.3952960000000  0.5065660000000  0.5285270000000 1.0
C      1  0.4663180000000  0.5341830000000  0.4761200000000 1.0
C      1  0.4287480000000  0.5414660000000  0.5084910000000 1.0
C      1  0.5172570000000  0.5405180000000  0.5800520000000 1.0
C      1  0.5732840000000  0.4544020000000  0.4677030000000 1.0
C      1  0.4941240000000  0.5573770000000  0.5793960000000 1.0
C      1  0.4108980000000  0.4688470000000  0.4701910000000 1.0
C      1  0.5172890000000  0.4856910000000  0.3998420000000 1.0
C      1  0.5786070000000  0.5228270000000  0.5237610000000 1.0
C      1  0.5699520000000  0.4814310000000  0.4569860000000 1.0
C      1  0.5325800000000  0.6057090000000  0.5473620000000 1.0
C      1  0.4767920000000  0.5259150000000  0.5430110000000 1.0
C      1  0.4438210000000  0.5629620000000  0.4316070000000 1.0
END
