TITL C-612601-4209-393 2.72607174863025 125000 -149.605569812711 0 0 27 (C1) n - 1
REM
REM in /home/nfs/bkarasulu/CARBON/AIRSS/Generating-Clusters/TERSOFF/Only-C1/FIRE-HFTN
REM
REM
REM
REM
REM
REM ./C.cell (11c1c37f851c82e70ff6c80c92926a4b)
REM AIRSS Version 0.9.1 bugfix July 2018 build 013d7b7c2542+ Fri, 06 Jul 2018 19:26:36 +0100
REM compiler GCC version 9.2.1 20190827 (Red Hat 9.2.1-1)
REM options -cpp -mtune=generic -march=x86-64 -g -O0 -fpre-include=/usr/include/finclude/math-vector-fortran.h
REM seed -7149907 -1296683900 -1803311959 482514814 1307352671 -1959578209 1618177951 -1820646118 491095305 -1251888566 -1942061612 1488677265 -709893184 -853352704 1055416343 1649689032 -2015681084 -196147712 618999627 -1704628594 69848520 -2012289227 -1936300796 329989411 1404637649 1494580688 1343409219 -676052786 806894455 1349824397 -2106712241 3918715 -1422751751
REM
CELL 1.54180   50.00000   50.00000   50.00000   90.00000   90.00000   90.00000
LATT -1
SFAC C  
C      1  0.6030870000000  0.5738420000000  0.4540850000000 1.0
C      1  0.5194420000000  0.5279080000000  0.4879470000000 1.0
C      1  0.4553010000000  0.4110440000000  0.4318570000000 1.0
C      1  0.4931870000000  0.6134640000000  0.5353170000000 1.0
C      1  0.5039230000000  0.5719480000000  0.5135460000000 1.0
C      1  0.4977970000000  0.4783150000000  0.4828540000000 1.0
C      1  0.4760890000000  0.4114400000000  0.5011050000000 1.0
C      1  0.5578060000000  0.6158080000000  0.4969770000000 1.0
C      1  0.4976400000000  0.3942970000000  0.5057480000000 1.0
C      1  0.5067240000000  0.5477920000000  0.5029690000000 1.0
C      1  0.3711900000000  0.4151490000000  0.5835610000000 1.0
C      1  0.4335080000000  0.4126640000000  0.5349480000000 1.0
C      1  0.4543570000000  0.4118720000000  0.5186310000000 1.0
C      1  0.5083460000000  0.5024840000000  0.4853350000000 1.0
C      1  0.5179230000000  0.3784330000000  0.5097590000000 1.0
C      1  0.5639570000000  0.5503040000000  0.4691730000000 1.0
C      1  0.4872610000000  0.4541360000000  0.4804280000000 1.0
C      1  0.5796590000000  0.5734460000000  0.4681520000000 1.0
C      1  0.4762760000000  0.4285440000000  0.4784210000000 1.0
C      1  0.5335300000000  0.6096300000000  0.5094340000000 1.0
C      1  0.5099450000000  0.5985800000000  0.5196810000000 1.0
C      1  0.3917360000000  0.4143290000000  0.5675340000000 1.0
C      1  0.5436980000000  0.5344620000000  0.4756410000000 1.0
C      1  0.5708220000000  0.5961850000000  0.4818700000000 1.0
C      1  0.4126250000000  0.4134960000000  0.5512390000000 1.0
C      1  0.5686980000000  0.6407640000000  0.4995410000000 1.0
C      1  0.4654720000000  0.4196670000000  0.4542480000000 1.0
END
