TITL C-612602-9376-1433 -4.53867308513994 125000 -744.020885968295 0 0 121 (C1) n - 1
REM
REM in /home/nfs/bkarasulu/CARBON/AIRSS/Generating-Clusters/TERSOFF/Only-C1/FIRE-HFTN
REM
REM
REM
REM
REM
REM ./C.cell (11c1c37f851c82e70ff6c80c92926a4b)
REM AIRSS Version 0.9.1 bugfix July 2018 build 013d7b7c2542+ Fri, 06 Jul 2018 19:26:36 +0100
REM compiler GCC version 9.2.1 20190827 (Red Hat 9.2.1-1)
REM options -cpp -mtune=generic -march=x86-64 -g -O0 -fpre-include=/usr/include/finclude/math-vector-fortran.h
REM seed 563432280 1170781403 -854092895 -691009976 280517425 755724417 2109473746 952578327 -1353601616 337509133 734919789 1943653280 -1943535771 606584924 -14643684 -677219586 -105646210 592592409 339419437 249877282 -1178011256 -531082446 550071156 -1328297468 225322626 -1626998644 870035112 -57050232 1327424856 329757931 1656022340 271262731 -1569488438
REM
CELL 1.54180   50.00000   50.00000   50.00000   90.00000   90.00000   90.00000
LATT -1
SFAC C  
C      1  0.4805230000000  0.4329990000000  0.4060050000000 1.0
C      1  0.5464860000000  0.5558630000000  0.5140670000000 1.0
C      1  0.5042540000000  0.5399420000000  0.5827670000000 1.0
C      1  0.5146610000000  0.4516140000000  0.4614670000000 1.0
C      1  0.5660100000000  0.4813070000000  0.4317730000000 1.0
C      1  0.5136920000000  0.4366980000000  0.5988410000000 1.0
C      1  0.5252080000000  0.5397280000000  0.5041490000000 1.0
C      1  0.4104760000000  0.4938680000000  0.5247090000000 1.0
C      1  0.5607350000000  0.5098870000000  0.4747980000000 1.0
C      1  0.5923950000000  0.5432420000000  0.4639690000000 1.0
C      1  0.4026610000000  0.4599670000000  0.5598600000000 1.0
C      1  0.4918510000000  0.4416030000000  0.5189200000000 1.0
C      1  0.5019030000000  0.4976490000000  0.4720320000000 1.0
C      1  0.5362400000000  0.5680540000000  0.5588240000000 1.0
C      1  0.5390090000000  0.5768480000000  0.5322760000000 1.0
C      1  0.4855920000000  0.4338990000000  0.5932140000000 1.0
C      1  0.5969730000000  0.5128780000000  0.4099200000000 1.0
C      1  0.4526230000000  0.4688060000000  0.5268620000000 1.0
C      1  0.5588970000000  0.4579560000000  0.4752990000000 1.0
C      1  0.5299660000000  0.5135430000000  0.5130610000000 1.0
C      1  0.4540050000000  0.5125140000000  0.5058120000000 1.0
C      1  0.5632860000000  0.4573040000000  0.4469250000000 1.0
C      1  0.6062270000000  0.4564850000000  0.5164790000000 1.0
C      1  0.5451640000000  0.5905970000000  0.4866520000000 1.0
C      1  0.4836940000000  0.4197560000000  0.4530170000000 1.0
C      1  0.4870500000000  0.4908270000000  0.5731670000000 1.0
C      1  0.5286030000000  0.4104240000000  0.5597260000000 1.0
C      1  0.6179760000000  0.5153150000000  0.3947110000000 1.0
C      1  0.4813860000000  0.5835450000000  0.5284920000000 1.0
C      1  0.5759570000000  0.5319230000000  0.5623120000000 1.0
C      1  0.5207240000000  0.4989080000000  0.3954060000000 1.0
C      1  0.5093190000000  0.5645770000000  0.5684810000000 1.0
C      1  0.5732050000000  0.5108320000000  0.4273260000000 1.0
C      1  0.4645540000000  0.4820200000000  0.5887420000000 1.0
C      1  0.3955360000000  0.5040230000000  0.4698250000000 1.0
C      1  0.5781260000000  0.5205120000000  0.4555240000000 1.0
C      1  0.5003090000000  0.4192840000000  0.5020120000000 1.0
C      1  0.4566870000000  0.5770540000000  0.5147580000000 1.0
C      1  0.4993410000000  0.4725390000000  0.5551580000000 1.0
C      1  0.5651690000000  0.4841880000000  0.5540560000000 1.0
C      1  0.4603630000000  0.5801380000000  0.4874280000000 1.0
C      1  0.5336280000000  0.4259660000000  0.5833440000000 1.0
C      1  0.4672060000000  0.4323800000000  0.4322270000000 1.0
C      1  0.4433050000000  0.5011750000000  0.5905760000000 1.0
C      1  0.5412760000000  0.4974880000000  0.5634610000000 1.0
C      1  0.4546750000000  0.4355500000000  0.4905050000000 1.0
C      1  0.4647860000000  0.4475090000000  0.5147830000000 1.0
C      1  0.3977350000000  0.4735690000000  0.5068030000000 1.0
C      1  0.5980050000000  0.5087150000000  0.5244190000000 1.0
C      1  0.4199250000000  0.4946170000000  0.4567820000000 1.0
C      1  0.4088690000000  0.4869830000000  0.5540450000000 1.0
C      1  0.4748320000000  0.5237070000000  0.5195100000000 1.0
C      1  0.4360520000000  0.5195220000000  0.4563880000000 1.0
C      1  0.4551500000000  0.5656970000000  0.4435660000000 1.0
C      1  0.5286900000000  0.5957970000000  0.5125560000000 1.0
C      1  0.5116630000000  0.4258610000000  0.4498180000000 1.0
C      1  0.4987540000000  0.5245090000000  0.4648030000000 1.0
C      1  0.4606180000000  0.5692160000000  0.5707130000000 1.0
C      1  0.5431940000000  0.4137760000000  0.5347140000000 1.0
C      1  0.5516060000000  0.5306570000000  0.4181590000000 1.0
C      1  0.6077810000000  0.4835220000000  0.5152590000000 1.0
C      1  0.5276680000000  0.5856140000000  0.4646020000000 1.0
C      1  0.5287440000000  0.5090140000000  0.5408220000000 1.0
C      1  0.5878510000000  0.5526240000000  0.4903810000000 1.0
C      1  0.4672540000000  0.4551410000000  0.5973330000000 1.0
C      1  0.4990220000000  0.4496020000000  0.3938920000000 1.0
C      1  0.5453000000000  0.4985540000000  0.4947690000000 1.0
C      1  0.4032920000000  0.5225670000000  0.5173210000000 1.0
C      1  0.5276010000000  0.5254850000000  0.4031140000000 1.0
C      1  0.4834260000000  0.5713030000000  0.4427400000000 1.0
C      1  0.4848170000000  0.5759220000000  0.5563980000000 1.0
C      1  0.5665500000000  0.4324160000000  0.5357850000000 1.0
C      1  0.5571040000000  0.4325600000000  0.4343100000000 1.0
C      1  0.5014240000000  0.4008350000000  0.5600710000000 1.0
C      1  0.4890740000000  0.5265240000000  0.4383130000000 1.0
C      1  0.4456780000000  0.5391840000000  0.4370550000000 1.0
C      1  0.4082490000000  0.4482470000000  0.4992380000000 1.0
C      1  0.5357920000000  0.4623940000000  0.5222480000000 1.0
C      1  0.4400220000000  0.4920470000000  0.5187390000000 1.0
C      1  0.5637930000000  0.5681040000000  0.4944600000000 1.0
C      1  0.5924420000000  0.4341600000000  0.5240260000000 1.0
C      1  0.4226100000000  0.5057880000000  0.5700940000000 1.0
C      1  0.5011770000000  0.5912470000000  0.5091170000000 1.0
C      1  0.3919020000000  0.5215460000000  0.4908450000000 1.0
C      1  0.5042100000000  0.4761690000000  0.4546290000000 1.0
C      1  0.4515270000000  0.4572940000000  0.4373730000000 1.0
C      1  0.4438190000000  0.5788870000000  0.4656060000000 1.0
C      1  0.5261710000000  0.4094420000000  0.5108250000000 1.0
C      1  0.4813720000000  0.4121700000000  0.5749820000000 1.0
C      1  0.5976620000000  0.5339110000000  0.5104040000000 1.0
C      1  0.4302470000000  0.4478140000000  0.4805130000000 1.0
C      1  0.4963850000000  0.5751360000000  0.4767120000000 1.0
C      1  0.4318360000000  0.4660450000000  0.4573610000000 1.0
C      1  0.4021730000000  0.4364250000000  0.5465320000000 1.0
C      1  0.5830040000000  0.5072750000000  0.5488560000000 1.0
C      1  0.4468440000000  0.5235390000000  0.4818340000000 1.0
C      1  0.4176320000000  0.5421030000000  0.5338360000000 1.0
C      1  0.5583690000000  0.5519210000000  0.5677510000000 1.0
C      1  0.5092080000000  0.4592520000000  0.5321630000000 1.0
C      1  0.4242540000000  0.5340010000000  0.5607900000000 1.0
C      1  0.5346780000000  0.4173490000000  0.4362860000000 1.0
C      1  0.4430130000000  0.5485410000000  0.5784740000000 1.0
C      1  0.5576870000000  0.4596030000000  0.5412030000000 1.0
C      1  0.5053100000000  0.5455630000000  0.4834280000000 1.0
C      1  0.4572260000000  0.5012780000000  0.4107900000000 1.0
C      1  0.4654420000000  0.4785840000000  0.4246380000000 1.0
C      1  0.5519920000000  0.5570960000000  0.4301670000000 1.0
C      1  0.4773430000000  0.4187290000000  0.4810940000000 1.0
C      1  0.5364920000000  0.4984190000000  0.5902600000000 1.0
C      1  0.4050180000000  0.4294550000000  0.5203980000000 1.0
C      1  0.4331660000000  0.5638770000000  0.5237910000000 1.0
C      1  0.5310020000000  0.5741980000000  0.4389650000000 1.0
C      1  0.4832710000000  0.5267250000000  0.5439380000000 1.0
C      1  0.4492740000000  0.5287130000000  0.5990440000000 1.0
C      1  0.5452690000000  0.4706430000000  0.4967700000000 1.0
C      1  0.4654630000000  0.5254900000000  0.4219820000000 1.0
C      1  0.4936610000000  0.4782080000000  0.4286950000000 1.0
C      1  0.5080240000000  0.4751250000000  0.4040320000000 1.0
C      1  0.4914140000000  0.5185940000000  0.5692440000000 1.0
C      1  0.5094490000000  0.5483250000000  0.4042280000000 1.0
C      1  0.5057180000000  0.5678970000000  0.4254840000000 1.0
END
