TITL C-612607-4507-1495 1.98468060349338 125000 -288.116265284457 0 0 49 (C1) n - 1
REM
REM in /home/nfs/bkarasulu/CARBON/AIRSS/Generating-Clusters/TERSOFF/Only-C1/FIRE-HFTN
REM
REM
REM
REM
REM
REM ./C.cell (11c1c37f851c82e70ff6c80c92926a4b)
REM AIRSS Version 0.9.1 bugfix July 2018 build 013d7b7c2542+ Fri, 06 Jul 2018 19:26:36 +0100
REM compiler GCC version 9.2.1 20190827 (Red Hat 9.2.1-1)
REM options -cpp -mtune=generic -march=x86-64 -g -O0 -fpre-include=/usr/include/finclude/math-vector-fortran.h
REM seed 362618022 -2054110788 -1219216731 2106298444 1691152478 1733083219 1158317940 1883167718 -1179335448 363591668 2139260724 -1096559574 1400846002 -1383932226 1687838762 540039076 -1094159762 1408158944 -868861053 -1608862595 624952354 -1960000127 489955210 -686230208 392040804 -504001561 1251019854 -686536083 -1214289950 768937182 1950905543 -1715358481 1796103483
REM
CELL 1.54180   50.00000   50.00000   50.00000   90.00000   90.00000   90.00000
LATT -1
SFAC C  
C      1  0.5392520000000  0.4636330000000  0.4448200000000 1.0
C      1  0.4848650000000  0.4657740000000  0.5710520000000 1.0
C      1  0.5513700000000  0.4625120000000  0.4707290000000 1.0
C      1  0.4210190000000  0.4178370000000  0.4922670000000 1.0
C      1  0.5278040000000  0.5095420000000  0.5126960000000 1.0
C      1  0.5144470000000  0.4389250000000  0.4928670000000 1.0
C      1  0.5394630000000  0.5514420000000  0.5363150000000 1.0
C      1  0.5774700000000  0.5863990000000  0.5985940000000 1.0
C      1  0.5518470000000  0.5630060000000  0.5566710000000 1.0
C      1  0.5595420000000  0.4877750000000  0.4818280000000 1.0
C      1  0.4967790000000  0.4682390000000  0.4182940000000 1.0
C      1  0.5049680000000  0.5427800000000  0.4707010000000 1.0
C      1  0.4318400000000  0.4346230000000  0.4070380000000 1.0
C      1  0.4095200000000  0.4367100000000  0.4216200000000 1.0
C      1  0.4432130000000  0.4316710000000  0.4879590000000 1.0
C      1  0.4697180000000  0.4693000000000  0.4112600000000 1.0
C      1  0.4018460000000  0.4740770000000  0.4548910000000 1.0
C      1  0.4594440000000  0.5399330000000  0.5397080000000 1.0
C      1  0.3979070000000  0.4521520000000  0.4401010000000 1.0
C      1  0.4551820000000  0.4469150000000  0.4025790000000 1.0
C      1  0.5668060000000  0.5844180000000  0.6243340000000 1.0
C      1  0.6012830000000  0.6003840000000  0.5943780000000 1.0
C      1  0.3987800000000  0.4047080000000  0.4958260000000 1.0
C      1  0.5643230000000  0.5743970000000  0.5770710000000 1.0
C      1  0.4820390000000  0.4986960000000  0.5283890000000 1.0
C      1  0.5154330000000  0.5209740000000  0.4562720000000 1.0
C      1  0.5123350000000  0.5513080000000  0.4952170000000 1.0
C      1  0.4378850000000  0.5007900000000  0.4383690000000 1.0
C      1  0.5432950000000  0.5223980000000  0.4504600000000 1.0
C      1  0.4603440000000  0.5168130000000  0.5250910000000 1.0
C      1  0.5566830000000  0.5825330000000  0.6487460000000 1.0
C      1  0.4207270000000  0.4943390000000  0.4596760000000 1.0
C      1  0.5681950000000  0.4883360000000  0.5298200000000 1.0
C      1  0.4548610000000  0.4915560000000  0.4200360000000 1.0
C      1  0.5270550000000  0.5380520000000  0.5153910000000 1.0
C      1  0.4400840000000  0.5108330000000  0.5067210000000 1.0
C      1  0.5023690000000  0.4970860000000  0.5086260000000 1.0
C      1  0.4831840000000  0.4821850000000  0.5508810000000 1.0
C      1  0.5629990000000  0.5089500000000  0.4632400000000 1.0
C      1  0.5522260000000  0.4950630000000  0.5086490000000 1.0
C      1  0.5051510000000  0.4942070000000  0.4588610000000 1.0
C      1  0.4260440000000  0.5041830000000  0.4852190000000 1.0
C      1  0.4972670000000  0.4831190000000  0.4842850000000 1.0
C      1  0.6234990000000  0.6134310000000  0.5904490000000 1.0
C      1  0.5141290000000  0.4753100000000  0.4389250000000 1.0
C      1  0.5467240000000  0.5806800000000  0.6727670000000 1.0
C      1  0.4662310000000  0.4445460000000  0.4855480000000 1.0
C      1  0.4918880000000  0.4550610000000  0.4873160000000 1.0
C      1  0.5406660000000  0.4423990000000  0.4874470000000 1.0
END
