TITL C-612605-9286-1119 0.297443961021037 125000 -558.765826453743 0 0 91 (C1) n - 1
REM
REM in /home/nfs/bkarasulu/CARBON/AIRSS/Generating-Clusters/TERSOFF/Only-C1/FIRE-HFTN
REM
REM
REM
REM
REM
REM ./C.cell (11c1c37f851c82e70ff6c80c92926a4b)
REM AIRSS Version 0.9.1 bugfix July 2018 build 013d7b7c2542+ Fri, 06 Jul 2018 19:26:36 +0100
REM compiler GCC version 9.2.1 20190827 (Red Hat 9.2.1-1)
REM options -cpp -mtune=generic -march=x86-64 -g -O0 -fpre-include=/usr/include/finclude/math-vector-fortran.h
REM seed -686352834 -504627435 6746619 1600973493 -1293829798 181949988 -2146480392 -912917228 -546923103 633684921 -922056139 213525459 -1051080469 -1467610798 -12086210 453944581 1719964809 1568035085 -785088953 1297354528 1993211137 2072683598 -1343361378 -522149772 -874733314 1931871025 1771739318 1236476692 821531186 910021700 1163057429 -8895530 -1156934512
REM
CELL 1.54180   50.00000   50.00000   50.00000   90.00000   90.00000   90.00000
LATT -1
SFAC C  
C      1  0.5095150000000  0.5921040000000  0.4380930000000 1.0
C      1  0.4663140000000  0.4742140000000  0.5075080000000 1.0
C      1  0.5342130000000  0.3858460000000  0.5018140000000 1.0
C      1  0.5396260000000  0.5217750000000  0.4714290000000 1.0
C      1  0.5235010000000  0.5367010000000  0.5508190000000 1.0
C      1  0.5370780000000  0.4895480000000  0.5658220000000 1.0
C      1  0.4705590000000  0.5001290000000  0.5859800000000 1.0
C      1  0.5235150000000  0.4056420000000  0.5182260000000 1.0
C      1  0.5624520000000  0.6079120000000  0.4862190000000 1.0
C      1  0.5693690000000  0.5854390000000  0.4991350000000 1.0
C      1  0.5538490000000  0.4720460000000  0.5248170000000 1.0
C      1  0.5062690000000  0.5955410000000  0.4105150000000 1.0
C      1  0.4723870000000  0.5850780000000  0.4780570000000 1.0
C      1  0.4544370000000  0.5454370000000  0.5960310000000 1.0
C      1  0.4974830000000  0.5020660000000  0.4839930000000 1.0
C      1  0.5814110000000  0.4769840000000  0.5293420000000 1.0
C      1  0.5376570000000  0.4189410000000  0.5387950000000 1.0
C      1  0.5495090000000  0.5642260000000  0.4495860000000 1.0
C      1  0.4945180000000  0.4011310000000  0.4548680000000 1.0
C      1  0.3963390000000  0.4240240000000  0.4557500000000 1.0
C      1  0.5065630000000  0.5166350000000  0.4357990000000 1.0
C      1  0.5899110000000  0.5020190000000  0.5402540000000 1.0
C      1  0.5354390000000  0.5892310000000  0.4492920000000 1.0
C      1  0.5268970000000  0.4412030000000  0.5529660000000 1.0
C      1  0.4911260000000  0.5682400000000  0.5707120000000 1.0
C      1  0.4453600000000  0.5032850000000  0.4758910000000 1.0
C      1  0.3963150000000  0.5296490000000  0.5080360000000 1.0
C      1  0.5044720000000  0.5579180000000  0.5483870000000 1.0
C      1  0.5994440000000  0.5142800000000  0.4950740000000 1.0
C      1  0.4574850000000  0.4342150000000  0.5332370000000 1.0
C      1  0.4854320000000  0.5749920000000  0.5006620000000 1.0
C      1  0.5688440000000  0.5418250000000  0.5204430000000 1.0
C      1  0.5407440000000  0.4867350000000  0.5040480000000 1.0
C      1  0.5826850000000  0.5056930000000  0.5672060000000 1.0
C      1  0.4835170000000  0.4234750000000  0.5404140000000 1.0
C      1  0.5128480000000  0.5149760000000  0.4634090000000 1.0
C      1  0.5564020000000  0.4811800000000  0.3836700000000 1.0
C      1  0.4874850000000  0.5905650000000  0.4551770000000 1.0
C      1  0.4972740000000  0.5097470000000  0.5842630000000 1.0
C      1  0.4818360000000  0.4236930000000  0.4656860000000 1.0
C      1  0.5138510000000  0.4960500000000  0.5079480000000 1.0
C      1  0.5139240000000  0.5907120000000  0.3854430000000 1.0
C      1  0.4217520000000  0.4888340000000  0.5612370000000 1.0
C      1  0.4968090000000  0.4150280000000  0.5153300000000 1.0
C      1  0.4094240000000  0.5057090000000  0.5104240000000 1.0
C      1  0.4007840000000  0.4482360000000  0.4655550000000 1.0
C      1  0.5504390000000  0.5481120000000  0.4732910000000 1.0
C      1  0.4385360000000  0.4434980000000  0.5513120000000 1.0
C      1  0.5631940000000  0.5559150000000  0.4265700000000 1.0
C      1  0.5493370000000  0.5409240000000  0.5406180000000 1.0
C      1  0.5140830000000  0.5086850000000  0.5588310000000 1.0
C      1  0.4991510000000  0.4379190000000  0.5599290000000 1.0
C      1  0.4713100000000  0.5645960000000  0.5881730000000 1.0
C      1  0.4443630000000  0.5221150000000  0.4553690000000 1.0
C      1  0.4851600000000  0.4535470000000  0.5787130000000 1.0
C      1  0.4241970000000  0.5102060000000  0.5795220000000 1.0
C      1  0.5658510000000  0.5548510000000  0.4000750000000 1.0
C      1  0.4454060000000  0.5894590000000  0.4783450000000 1.0
C      1  0.4699730000000  0.4925480000000  0.4856810000000 1.0
C      1  0.5088590000000  0.5201560000000  0.6070000000000 1.0
C      1  0.5598600000000  0.4957560000000  0.6088340000000 1.0
C      1  0.5905390000000  0.5229320000000  0.5207020000000 1.0
C      1  0.4489840000000  0.5187660000000  0.5897800000000 1.0
C      1  0.5542580000000  0.5631370000000  0.3774380000000 1.0
C      1  0.5471850000000  0.6101120000000  0.4641740000000 1.0
C      1  0.5545190000000  0.4999390000000  0.4825490000000 1.0
C      1  0.4838400000000  0.5307580000000  0.4277170000000 1.0
C      1  0.5327680000000  0.5779520000000  0.3713780000000 1.0
C      1  0.4818050000000  0.4279380000000  0.4936270000000 1.0
C      1  0.5132750000000  0.3823690000000  0.4577810000000 1.0
C      1  0.3932390000000  0.3995950000000  0.4459610000000 1.0
C      1  0.5634400000000  0.5579160000000  0.4974000000000 1.0
C      1  0.5224370000000  0.5035220000000  0.4169550000000 1.0
C      1  0.4393590000000  0.4669780000000  0.5667030000000 1.0
C      1  0.4644440000000  0.4727950000000  0.5801120000000 1.0
C      1  0.4114220000000  0.4933500000000  0.5356010000000 1.0
C      1  0.5825170000000  0.5004210000000  0.4789930000000 1.0
C      1  0.4751340000000  0.4859360000000  0.5319720000000 1.0
C      1  0.4208950000000  0.4936310000000  0.4872870000000 1.0
C      1  0.5391280000000  0.4664030000000  0.5489290000000 1.0
C      1  0.3903570000000  0.3751370000000  0.4361590000000 1.0
C      1  0.5303650000000  0.3757750000000  0.4773270000000 1.0
C      1  0.5596200000000  0.4976460000000  0.5816100000000 1.0
C      1  0.4628410000000  0.4461230000000  0.5069380000000 1.0
C      1  0.5006800000000  0.4975850000000  0.5335430000000 1.0
C      1  0.3875270000000  0.3510810000000  0.4265190000000 1.0
C      1  0.4585000000000  0.5331110000000  0.4356740000000 1.0
C      1  0.4083240000000  0.4715420000000  0.4756290000000 1.0
C      1  0.4696410000000  0.4415250000000  0.4488550000000 1.0
C      1  0.4974460000000  0.5671180000000  0.5229120000000 1.0
C      1  0.5391680000000  0.4917120000000  0.4001520000000 1.0
END
