TITL C-612600-6631-332 8.1787145490582e-05 125000 -269.863843369598 0 0 45 (C1) n - 1
REM
REM in /home/nfs/bkarasulu/CARBON/AIRSS/Generating-Clusters/TERSOFF/Only-C1/FIRE-HFTN
REM
REM
REM
REM
REM
REM ./C.cell (11c1c37f851c82e70ff6c80c92926a4b)
REM AIRSS Version 0.9.1 bugfix July 2018 build 013d7b7c2542+ Fri, 06 Jul 2018 19:26:36 +0100
REM compiler GCC version 9.2.1 20190827 (Red Hat 9.2.1-1)
REM options -cpp -mtune=generic -march=x86-64 -g -O0 -fpre-include=/usr/include/finclude/math-vector-fortran.h
REM seed 608104164 -2110047435 -9109528 -2022093988 1269019710 -1139048808 -6553950 914049078 -2133030516 -11403302 2044864457 -1686208298 469004923 1659996364 487652663 -674381418 1125449251 686136491 -784742698 1577293645 270008946 2032455176 612093262 142198857 -1391815839 971944299 706884079 -1866691676 -892356552 -1877494845 313545251 -1423366738 -1618760174
REM
CELL 1.54180   50.00000   50.00000   50.00000   90.00000   90.00000   90.00000
LATT -1
SFAC C  
C      1  0.4574930000000  0.5340830000000  0.4549450000000 1.0
C      1  0.5543420000000  0.4641270000000  0.4721500000000 1.0
C      1  0.4577010000000  0.4867420000000  0.5086490000000 1.0
C      1  0.5527540000000  0.5169430000000  0.5475300000000 1.0
C      1  0.4596990000000  0.5272730000000  0.4819490000000 1.0
C      1  0.4875110000000  0.5431750000000  0.5435950000000 1.0
C      1  0.5382130000000  0.5274660000000  0.4664780000000 1.0
C      1  0.5213510000000  0.5761480000000  0.5245110000000 1.0
C      1  0.5679230000000  0.4838480000000  0.4842870000000 1.0
C      1  0.5036290000000  0.5326480000000  0.5642790000000 1.0
C      1  0.5684030000000  0.5083580000000  0.4983820000000 1.0
C      1  0.4495280000000  0.4598090000000  0.5052970000000 1.0
C      1  0.5303120000000  0.5251270000000  0.5594060000000 1.0
C      1  0.5602020000000  0.5570900000000  0.4973140000000 1.0
C      1  0.4273010000000  0.4502430000000  0.5192900000000 1.0
C      1  0.4065500000000  0.4414460000000  0.5323710000000 1.0
C      1  0.4863800000000  0.5139190000000  0.4177170000000 1.0
C      1  0.5150300000000  0.5145680000000  0.4697930000000 1.0
C      1  0.4820160000000  0.5056760000000  0.5979110000000 1.0
C      1  0.4712690000000  0.5015220000000  0.4880850000000 1.0
C      1  0.5305040000000  0.4492340000000  0.4679880000000 1.0
C      1  0.4644580000000  0.5303580000000  0.5309450000000 1.0
C      1  0.5118990000000  0.4925780000000  0.5128290000000 1.0
C      1  0.4933010000000  0.5509660000000  0.6076690000000 1.0
C      1  0.4996620000000  0.5013830000000  0.4890440000000 1.0
C      1  0.5450520000000  0.5729440000000  0.5126390000000 1.0
C      1  0.5050350000000  0.4948750000000  0.4168050000000 1.0
C      1  0.5168150000000  0.4504680000000  0.4427850000000 1.0
C      1  0.4754670000000  0.5684170000000  0.5068150000000 1.0
C      1  0.4954590000000  0.5664120000000  0.5275400000000 1.0
C      1  0.5675940000000  0.5095320000000  0.5265350000000 1.0
C      1  0.4544930000000  0.4348940000000  0.4620730000000 1.0
C      1  0.4555450000000  0.5033120000000  0.5319040000000 1.0
C      1  0.4635280000000  0.4421770000000  0.4878090000000 1.0
C      1  0.4899360000000  0.4339190000000  0.4930190000000 1.0
C      1  0.5284520000000  0.4475960000000  0.5165980000000 1.0
C      1  0.5234710000000  0.4723500000000  0.5260750000000 1.0
C      1  0.4684330000000  0.5283360000000  0.4312280000000 1.0
C      1  0.5590930000000  0.5319260000000  0.4848490000000 1.0
C      1  0.4962980000000  0.4322730000000  0.4361070000000 1.0
C      1  0.4927910000000  0.5297110000000  0.5904060000000 1.0
C      1  0.4597790000000  0.5443610000000  0.5047520000000 1.0
C      1  0.5174570000000  0.4393070000000  0.4918130000000 1.0
C      1  0.5177660000000  0.4737040000000  0.4268880000000 1.0
C      1  0.4701030000000  0.4287560000000  0.4409510000000 1.0
END
