TITL C-612603-7354-662 -0.00159370685828293 125000 -711.726478840798 0 0 118 (C1) n - 1
REM
REM in /home/nfs/bkarasulu/CARBON/AIRSS/Generating-Clusters/TERSOFF/Only-C1/FIRE-HFTN
REM
REM
REM
REM
REM
REM ./C.cell (11c1c37f851c82e70ff6c80c92926a4b)
REM AIRSS Version 0.9.1 bugfix July 2018 build 013d7b7c2542+ Fri, 06 Jul 2018 19:26:36 +0100
REM compiler GCC version 9.2.1 20190827 (Red Hat 9.2.1-1)
REM options -cpp -mtune=generic -march=x86-64 -g -O0 -fpre-include=/usr/include/finclude/math-vector-fortran.h
REM seed 1866010145 -1677063118 1516949097 1652041887 1349272064 -779074832 -142069886 1700435520 -913201804 -2220422 -714303653 1428617801 -787213170 1871600464 -34531193 247386284 1831092178 653855841 -1580872024 611431623 -243665165 -28916094 984669919 664828131 -406566749 -897615777 -1570690885 875502546 -977010178 1550340506 1197453402 153573388 -1156865056
REM
CELL 1.54180   50.00000   50.00000   50.00000   90.00000   90.00000   90.00000
LATT -1
SFAC C  
C      1  0.5289380000000  0.4994890000000  0.4759300000000 1.0
C      1  0.5474870000000  0.4296010000000  0.5645260000000 1.0
C      1  0.5027740000000  0.5447230000000  0.5436330000000 1.0
C      1  0.4877170000000  0.4975030000000  0.4549390000000 1.0
C      1  0.4781140000000  0.5173470000000  0.3961580000000 1.0
C      1  0.5334630000000  0.5891420000000  0.4314710000000 1.0
C      1  0.4481150000000  0.4869630000000  0.4204820000000 1.0
C      1  0.4422800000000  0.3995840000000  0.4867610000000 1.0
C      1  0.4315610000000  0.5058100000000  0.4359510000000 1.0
C      1  0.5161200000000  0.4791560000000  0.5191490000000 1.0
C      1  0.4318170000000  0.5592360000000  0.4762020000000 1.0
C      1  0.5391100000000  0.5047120000000  0.4322140000000 1.0
C      1  0.5791600000000  0.5489510000000  0.5028200000000 1.0
C      1  0.4000220000000  0.4421900000000  0.5901530000000 1.0
C      1  0.4394600000000  0.3959380000000  0.4384530000000 1.0
C      1  0.4897390000000  0.4017530000000  0.5800090000000 1.0
C      1  0.4313830000000  0.5550420000000  0.4477620000000 1.0
C      1  0.5217700000000  0.5852720000000  0.4794460000000 1.0
C      1  0.4717540000000  0.4692410000000  0.5587190000000 1.0
C      1  0.4335020000000  0.4181100000000  0.5306030000000 1.0
C      1  0.4482080000000  0.5793720000000  0.4934280000000 1.0
C      1  0.4687440000000  0.4863760000000  0.4731040000000 1.0
C      1  0.4948150000000  0.5308840000000  0.5915190000000 1.0
C      1  0.4744710000000  0.5688280000000  0.3922210000000 1.0
C      1  0.5166890000000  0.5283990000000  0.5223490000000 1.0
C      1  0.4641150000000  0.5694690000000  0.5754480000000 1.0
C      1  0.5916290000000  0.5019180000000  0.4491620000000 1.0
C      1  0.4774500000000  0.5593300000000  0.4395600000000 1.0
C      1  0.4980180000000  0.5087270000000  0.6091840000000 1.0
C      1  0.4842480000000  0.4393650000000  0.4714070000000 1.0
C      1  0.4567410000000  0.5014620000000  0.4940800000000 1.0
C      1  0.5997370000000  0.5032540000000  0.5041520000000 1.0
C      1  0.5992660000000  0.4888770000000  0.5664430000000 1.0
C      1  0.4754800000000  0.6070600000000  0.4286380000000 1.0
C      1  0.5740910000000  0.4662880000000  0.4774620000000 1.0
C      1  0.5766200000000  0.4917920000000  0.5506880000000 1.0
C      1  0.4211410000000  0.4330060000000  0.5504640000000 1.0
C      1  0.4433620000000  0.4149650000000  0.5897960000000 1.0
C      1  0.4531080000000  0.4026140000000  0.4610840000000 1.0
C      1  0.5302580000000  0.5739970000000  0.4539650000000 1.0
C      1  0.4120070000000  0.4610570000000  0.5492990000000 1.0
C      1  0.5084610000000  0.4530290000000  0.4655130000000 1.0
C      1  0.4751300000000  0.4475630000000  0.5739240000000 1.0
C      1  0.4527330000000  0.5693030000000  0.4361470000000 1.0
C      1  0.4706190000000  0.6075690000000  0.4556110000000 1.0
C      1  0.4976330000000  0.5943720000000  0.4940120000000 1.0
C      1  0.5108350000000  0.4846590000000  0.6095770000000 1.0
C      1  0.4639330000000  0.4584430000000  0.4748490000000 1.0
C      1  0.3956160000000  0.4636200000000  0.5731130000000 1.0
C      1  0.4569800000000  0.5669320000000  0.5469720000000 1.0
C      1  0.4227820000000  0.5377670000000  0.4939640000000 1.0
C      1  0.4751900000000  0.4917840000000  0.4093890000000 1.0
C      1  0.5345270000000  0.5274730000000  0.4785440000000 1.0
C      1  0.4982390000000  0.4729480000000  0.4128040000000 1.0
C      1  0.4363780000000  0.5396840000000  0.4016650000000 1.0
C      1  0.4743230000000  0.5460460000000  0.5385580000000 1.0
C      1  0.4637370000000  0.5420360000000  0.3931190000000 1.0
C      1  0.5574110000000  0.4715400000000  0.5466220000000 1.0
C      1  0.5253490000000  0.4631980000000  0.6015120000000 1.0
C      1  0.4295780000000  0.4804670000000  0.5395560000000 1.0
C      1  0.5299410000000  0.4801070000000  0.5458550000000 1.0
C      1  0.4700380000000  0.4213550000000  0.5832380000000 1.0
C      1  0.5582190000000  0.5666650000000  0.5153730000000 1.0
C      1  0.5013270000000  0.5914670000000  0.5225650000000 1.0
C      1  0.4311510000000  0.5117750000000  0.4867910000000 1.0
C      1  0.5482050000000  0.4669450000000  0.4043490000000 1.0
C      1  0.5156990000000  0.4999590000000  0.4497240000000 1.0
C      1  0.5261360000000  0.4711720000000  0.4900620000000 1.0
C      1  0.5277530000000  0.5059420000000  0.5590990000000 1.0
C      1  0.5211230000000  0.4712240000000  0.3954910000000 1.0
C      1  0.4790390000000  0.4056990000000  0.5164540000000 1.0
C      1  0.5417800000000  0.5216050000000  0.5381830000000 1.0
C      1  0.5598030000000  0.4442440000000  0.5424330000000 1.0
C      1  0.5318920000000  0.4090330000000  0.5520930000000 1.0
C      1  0.5859840000000  0.5247350000000  0.5166790000000 1.0
C      1  0.4710110000000  0.5953860000000  0.4820120000000 1.0
C      1  0.5517580000000  0.4542810000000  0.4926760000000 1.0
C      1  0.5657270000000  0.4511030000000  0.3907520000000 1.0
C      1  0.4989790000000  0.5028580000000  0.5188680000000 1.0
C      1  0.5385730000000  0.4439760000000  0.5876480000000 1.0
C      1  0.4859170000000  0.5454990000000  0.4602120000000 1.0
C      1  0.5085230000000  0.5765760000000  0.5973890000000 1.0
C      1  0.5155350000000  0.5725280000000  0.5392390000000 1.0
C      1  0.4206250000000  0.5506000000000  0.5193990000000 1.0
C      1  0.4405690000000  0.5722130000000  0.5233260000000 1.0
C      1  0.5002790000000  0.3985430000000  0.4494060000000 1.0
C      1  0.5123080000000  0.3958440000000  0.5669880000000 1.0
C      1  0.5351850000000  0.5679760000000  0.4982510000000 1.0
C      1  0.5052980000000  0.4084950000000  0.5123040000000 1.0
C      1  0.5938990000000  0.4789160000000  0.4940280000000 1.0
C      1  0.4218250000000  0.5006530000000  0.4621680000000 1.0
C      1  0.5549970000000  0.4806520000000  0.4284800000000 1.0
C      1  0.4929630000000  0.5449080000000  0.4855790000000 1.0
C      1  0.5193650000000  0.5424290000000  0.4982120000000 1.0
C      1  0.5339690000000  0.5813770000000  0.5894510000000 1.0
C      1  0.4704770000000  0.4991210000000  0.5188980000000 1.0
C      1  0.5207670000000  0.3856890000000  0.4397050000000 1.0
C      1  0.5453260000000  0.5736700000000  0.5416770000000 1.0
C      1  0.4194090000000  0.4240790000000  0.5786130000000 1.0
C      1  0.4862770000000  0.5591010000000  0.5923560000000 1.0
C      1  0.4774140000000  0.5927720000000  0.4052790000000 1.0
C      1  0.4368010000000  0.4623290000000  0.4149050000000 1.0
C      1  0.4512370000000  0.4067540000000  0.5123840000000 1.0
C      1  0.5693700000000  0.5162970000000  0.5375720000000 1.0
C      1  0.5747670000000  0.4779110000000  0.4499630000000 1.0
C      1  0.5082360000000  0.5258030000000  0.5671700000000 1.0
C      1  0.4794240000000  0.4135350000000  0.4604160000000 1.0
C      1  0.6207080000000  0.4856280000000  0.5808890000000 1.0
C      1  0.5303720000000  0.4143010000000  0.5232780000000 1.0
C      1  0.4277040000000  0.5331440000000  0.4281940000000 1.0
C      1  0.5382990000000  0.5460450000000  0.4551680000000 1.0
C      1  0.5805080000000  0.5281200000000  0.4509100000000 1.0
C      1  0.5515550000000  0.5793740000000  0.5687640000000 1.0
C      1  0.5843610000000  0.5459150000000  0.4739900000000 1.0
C      1  0.5057510000000  0.4591470000000  0.4373520000000 1.0
C      1  0.4575470000000  0.4846660000000  0.5398600000000 1.0
C      1  0.5503880000000  0.4351140000000  0.5155900000000 1.0
C      1  0.5539720000000  0.5295070000000  0.4380000000000 1.0
END
