TITL C-612600-6631-264 10.8860486818782 125000 -241.681172648872 0 0 42 (C1) n - 1
REM
REM in /home/nfs/bkarasulu/CARBON/AIRSS/Generating-Clusters/TERSOFF/Only-C1/FIRE-HFTN
REM
REM
REM
REM
REM
REM ./C.cell (11c1c37f851c82e70ff6c80c92926a4b)
REM AIRSS Version 0.9.1 bugfix July 2018 build 013d7b7c2542+ Fri, 06 Jul 2018 19:26:36 +0100
REM compiler GCC version 9.2.1 20190827 (Red Hat 9.2.1-1)
REM options -cpp -mtune=generic -march=x86-64 -g -O0 -fpre-include=/usr/include/finclude/math-vector-fortran.h
REM seed -1030865356 1163834124 1823608524 1570331380 -690506959 209670213 1496547833 54896473 979063372 1589886174 -309806696 294467713 68913505 309065281 320147290 -1167448519 1626007989 -1131026743 1498984227 630210431 -1899610608 648489539 2096545982 -284677951 -2053861131 -2102182494 -800434894 -934156451 -1111230518 -167867098 -545616710 -1041436913 -438482017
REM
CELL 1.54180   50.00000   50.00000   50.00000   90.00000   90.00000   90.00000
LATT -1
SFAC C  
C      1  0.4740680000000  0.5761580000000  0.4001490000000 1.0
C      1  0.4664270000000  0.5314180000000  0.4560580000000 1.0
C      1  0.5503600000000  0.5773350000000  0.5055970000000 1.0
C      1  0.4766860000000  0.5574780000000  0.4507320000000 1.0
C      1  0.5024340000000  0.4852910000000  0.4386830000000 1.0
C      1  0.5712450000000  0.5652950000000  0.4941490000000 1.0
C      1  0.5049550000000  0.3780810000000  0.6370780000000 1.0
C      1  0.4231260000000  0.4818910000000  0.3865040000000 1.0
C      1  0.4179300000000  0.5286150000000  0.4597690000000 1.0
C      1  0.4401660000000  0.5108680000000  0.4205560000000 1.0
C      1  0.5710910000000  0.5188740000000  0.4736120000000 1.0
C      1  0.3964000000000  0.5337150000000  0.4743270000000 1.0
C      1  0.6266700000000  0.4631030000000  0.5159500000000 1.0
C      1  0.5153010000000  0.5571050000000  0.5322910000000 1.0
C      1  0.3538120000000  0.5438850000000  0.5034320000000 1.0
C      1  0.4413110000000  0.5235660000000  0.4453760000000 1.0
C      1  0.4423150000000  0.4994120000000  0.3951270000000 1.0
C      1  0.5771470000000  0.4580020000000  0.5327900000000 1.0
C      1  0.5322720000000  0.4742830000000  0.5254650000000 1.0
C      1  0.5193830000000  0.4926050000000  0.5090680000000 1.0
C      1  0.5063120000000  0.5320830000000  0.5354620000000 1.0
C      1  0.5028500000000  0.4976390000000  0.4630440000000 1.0
C      1  0.5511480000000  0.5012180000000  0.4729510000000 1.0
C      1  0.4778810000000  0.5139030000000  0.5005940000000 1.0
C      1  0.3749280000000  0.5388420000000  0.4889990000000 1.0
C      1  0.6022360000000  0.4602680000000  0.5245840000000 1.0
C      1  0.4960350000000  0.3623110000000  0.6564250000000 1.0
C      1  0.5250910000000  0.4949210000000  0.4809980000000 1.0
C      1  0.5138730000000  0.3938480000000  0.6177360000000 1.0
C      1  0.4757030000000  0.5677180000000  0.4247510000000 1.0
C      1  0.4809000000000  0.5135200000000  0.4724590000000 1.0
C      1  0.5227900000000  0.4096150000000  0.5983940000000 1.0
C      1  0.5230920000000  0.5740260000000  0.5112110000000 1.0
C      1  0.4872620000000  0.3468000000000  0.6754540000000 1.0
C      1  0.5790350000000  0.5429910000000  0.4817540000000 1.0
C      1  0.4994970000000  0.5107960000000  0.5185980000000 1.0
C      1  0.5499950000000  0.4577820000000  0.5393510000000 1.0
C      1  0.5406220000000  0.4411400000000  0.5597180000000 1.0
C      1  0.4882410000000  0.5726600000000  0.4712390000000 1.0
C      1  0.5317080000000  0.4253810000000  0.5790510000000 1.0
C      1  0.5041010000000  0.5797100000000  0.4913620000000 1.0
C      1  0.4636020000000  0.5058490000000  0.3791530000000 1.0
END
