TITL C-612600-6631-755 1.07577684611094 125000 -251.682010611023 0 0 43 (C1) n - 1
REM
REM in /home/nfs/bkarasulu/CARBON/AIRSS/Generating-Clusters/TERSOFF/Only-C1/FIRE-HFTN
REM
REM
REM
REM
REM
REM ./C.cell (11c1c37f851c82e70ff6c80c92926a4b)
REM AIRSS Version 0.9.1 bugfix July 2018 build 013d7b7c2542+ Fri, 06 Jul 2018 19:26:36 +0100
REM compiler GCC version 9.2.1 20190827 (Red Hat 9.2.1-1)
REM options -cpp -mtune=generic -march=x86-64 -g -O0 -fpre-include=/usr/include/finclude/math-vector-fortran.h
REM seed -1528028327 369116293 210528340 -928904334 -1430548536 259956743 1015383174 -1187707354 -1033630586 424950744 1443430948 1942932627 1301848986 1973339633 -993328337 -1916438267 -1316984376 1825393804 472261329 -774531573 -1675493811 839371348 842744683 -1041115277 -1472982776 917997847 1112637210 606688366 -1154443743 1789759578 -1916127740 301227020 -1955418673
REM
CELL 1.54180   50.00000   50.00000   50.00000   90.00000   90.00000   90.00000
LATT -1
SFAC C  
C      1  0.4565140000000  0.4377730000000  0.4950850000000 1.0
C      1  0.4572100000000  0.4878440000000  0.5400310000000 1.0
C      1  0.6134680000000  0.5451500000000  0.5258830000000 1.0
C      1  0.4605690000000  0.4972050000000  0.4746610000000 1.0
C      1  0.4269780000000  0.5131060000000  0.5097490000000 1.0
C      1  0.4746000000000  0.5512150000000  0.5230260000000 1.0
C      1  0.4992260000000  0.4985190000000  0.5137240000000 1.0
C      1  0.5004290000000  0.5512770000000  0.4804570000000 1.0
C      1  0.4906890000000  0.4318810000000  0.5386730000000 1.0
C      1  0.5536110000000  0.4521110000000  0.5019250000000 1.0
C      1  0.5545820000000  0.4755130000000  0.4863670000000 1.0
C      1  0.5668250000000  0.5371130000000  0.5337900000000 1.0
C      1  0.4430910000000  0.5120780000000  0.5335730000000 1.0
C      1  0.5189280000000  0.4990970000000  0.4344030000000 1.0
C      1  0.4410400000000  0.4493300000000  0.5140660000000 1.0
C      1  0.5913370000000  0.5850570000000  0.5814430000000 1.0
C      1  0.4362250000000  0.4965470000000  0.4888410000000 1.0
C      1  0.5187870000000  0.4708930000000  0.4343700000000 1.0
C      1  0.4532060000000  0.5659130000000  0.4834610000000 1.0
C      1  0.5769310000000  0.4404530000000  0.5102910000000 1.0
C      1  0.4847340000000  0.4958630000000  0.4894940000000 1.0
C      1  0.4841440000000  0.4339670000000  0.4901140000000 1.0
C      1  0.4597350000000  0.5044740000000  0.4476720000000 1.0
C      1  0.5302220000000  0.5125000000000  0.4570800000000 1.0
C      1  0.5484270000000  0.4973070000000  0.4722780000000 1.0
C      1  0.4502350000000  0.4601220000000  0.5387280000000 1.0
C      1  0.5020400000000  0.4337190000000  0.5127510000000 1.0
C      1  0.4580580000000  0.5360800000000  0.5381710000000 1.0
C      1  0.4277110000000  0.5583290000000  0.4880490000000 1.0
C      1  0.4160550000000  0.5378280000000  0.5012230000000 1.0
C      1  0.4690770000000  0.4424820000000  0.5511780000000 1.0
C      1  0.4776370000000  0.5581850000000  0.4956250000000 1.0
C      1  0.4852640000000  0.4914840000000  0.5371090000000 1.0
C      1  0.5083140000000  0.4488900000000  0.4452310000000 1.0
C      1  0.5239070000000  0.5109050000000  0.5172700000000 1.0
C      1  0.5911170000000  0.5682080000000  0.5615600000000 1.0
C      1  0.5447990000000  0.5242620000000  0.5266430000000 1.0
C      1  0.5289830000000  0.4405720000000  0.5090300000000 1.0
C      1  0.5182300000000  0.5361230000000  0.4672070000000 1.0
C      1  0.5907260000000  0.5501030000000  0.5402510000000 1.0
C      1  0.4727110000000  0.5126380000000  0.4258100000000 1.0
C      1  0.4948340000000  0.4360480000000  0.4642880000000 1.0
C      1  0.4987970000000  0.5118340000000  0.4194170000000 1.0
END
