TITL C-612603-7354-731 1482.83572843697 125000 -1075.8160837505 0 0 175 (C1) n - 1
REM
REM in /home/nfs/bkarasulu/CARBON/AIRSS/Generating-Clusters/TERSOFF/Only-C1/FIRE-HFTN
REM
REM
REM
REM
REM
REM ./C.cell (11c1c37f851c82e70ff6c80c92926a4b)
REM AIRSS Version 0.9.1 bugfix July 2018 build 013d7b7c2542+ Fri, 06 Jul 2018 19:26:36 +0100
REM compiler GCC version 9.2.1 20190827 (Red Hat 9.2.1-1)
REM options -cpp -mtune=generic -march=x86-64 -g -O0 -fpre-include=/usr/include/finclude/math-vector-fortran.h
REM seed 523973435 1545000022 544215116 -1930593256 -1439638341 1955328604 -2041354330 600803340 -1621744208 822776161 -182937291 -1788741722 -178169382 1695546134 -1042198904 2074121800 -68183238 435515375 -144582107 198985088 -1146006750 -666925301 -413441054 -232886878 1347966983 1916198230 1528286693 -196815888 -613050707 2020704629 1360798370 -485375263 -2076391617
REM
CELL 1.54180   50.00000   50.00000   50.00000   90.00000   90.00000   90.00000
LATT -1
SFAC C  
C      1  0.5435910000000  0.4990720000000  0.4665850000000 1.0
C      1  0.6180880000000  0.4946510000000  0.5297080000000 1.0
C      1  0.5309450000000  0.4428820000000  0.4193320000000 1.0
C      1  0.4632800000000  0.4639670000000  0.3970900000000 1.0
C      1  0.5887650000000  0.5450090000000  0.5304330000000 1.0
C      1  0.4595820000000  0.4507350000000  0.4254400000000 1.0
C      1  0.4094270000000  0.4248470000000  0.4590420000000 1.0
C      1  0.4328010000000  0.5845510000000  0.5262340000000 1.0
C      1  0.3779700000000  0.5597490000000  0.4539230000000 1.0
C      1  0.5080600000000  0.4164610000000  0.5982570000000 1.0
C      1  0.5339950000000  0.5561030000000  0.4772290000000 1.0
C      1  0.5542390000000  0.3904110000000  0.5033210000000 1.0
C      1  0.5037810000000  0.5523190000000  0.3977680000000 1.0
C      1  0.4973290000000  0.3794850000000  0.4388880000000 1.0
C      1  0.5849080000000  0.5543830000000  0.4551710000000 1.0
C      1  0.5168450000000  0.5230370000000  0.5531020000000 1.0
C      1  0.4418380000000  0.5867970000000  0.4258800000000 1.0
C      1  0.5857750000000  0.4586350000000  0.4531480000000 1.0
C      1  0.5199460000000  0.6033590000000  0.5041880000000 1.0
C      1  0.5878240000000  0.4403130000000  0.5180040000000 1.0
C      1  0.3915680000000  0.5372290000000  0.4450100000000 1.0
C      1  0.5398750000000  0.4670050000000  0.5664090000000 1.0
C      1  0.5600680000000  0.5010960000000  0.4431880000000 1.0
C      1  0.4149610000000  0.5805640000000  0.5946460000000 1.0
C      1  0.5853450000000  0.5791880000000  0.4938360000000 1.0
C      1  0.5269330000000  0.6098740000000  0.5827820000000 1.0
C      1  0.4706310000000  0.5847150000000  0.5583200000000 1.0
C      1  0.5217440000000  0.4286420000000  0.4866410000000 1.0
C      1  0.4786720000000  0.5392810000000  0.3906340000000 1.0
C      1  0.4348470000000  0.4911980000000  0.4549700000000 1.0
C      1  0.5315830000000  0.4530070000000  0.6128420000000 1.0
C      1  0.3793890000000  0.6133870000000  0.6884580000000 1.0
C      1  0.4994370000000  0.4785610000000  0.5394960000000 1.0
C      1  0.5732290000000  0.4433590000000  0.5417720000000 1.0
C      1  0.5429820000000  0.4718300000000  0.5949980000000 1.0
C      1  0.4107030000000  0.4724500000000  0.4900740000000 1.0
C      1  0.5994180000000  0.4674120000000  0.4770160000000 1.0
C      1  0.5463170000000  0.5251700000000  0.5108880000000 1.0
C      1  0.5928630000000  0.4726450000000  0.5721210000000 1.0
C      1  0.5030750000000  0.5155680000000  0.6110420000000 1.0
C      1  0.5246650000000  0.5108260000000  0.3778630000000 1.0
C      1  0.4397830000000  0.4161810000000  0.5467920000000 1.0
C      1  0.4917710000000  0.4708030000000  0.3907200000000 1.0
C      1  0.4936420000000  0.3807010000000  0.5082170000000 1.0
C      1  0.5440610000000  0.5224630000000  0.5395380000000 1.0
C      1  0.4678470000000  0.4396380000000  0.4941560000000 1.0
C      1  0.4970180000000  0.5378870000000  0.4472080000000 1.0
C      1  0.4901800000000  0.4393720000000  0.5993970000000 1.0
C      1  0.4547930000000  0.5464200000000  0.4035750000000 1.0
C      1  0.5514530000000  0.5711870000000  0.5223300000000 1.0
C      1  0.4219850000000  0.5605200000000  0.5149500000000 1.0
C      1  0.4016100000000  0.4727060000000  0.5169430000000 1.0
C      1  0.4059080000000  0.5889890000000  0.6180670000000 1.0
C      1  0.4186110000000  0.5749390000000  0.4373210000000 1.0
C      1  0.5073490000000  0.6161960000000  0.5656720000000 1.0
C      1  0.4209830000000  0.5449870000000  0.5598600000000 1.0
C      1  0.5242230000000  0.4148890000000  0.4602530000000 1.0
C      1  0.4068700000000  0.5444350000000  0.5344580000000 1.0
C      1  0.4914320000000  0.4764390000000  0.4546240000000 1.0
C      1  0.3970210000000  0.5972070000000  0.6416410000000 1.0
C      1  0.5825120000000  0.3900520000000  0.5045290000000 1.0
C      1  0.5420950000000  0.5907310000000  0.5934660000000 1.0
C      1  0.4404670000000  0.5307970000000  0.4239230000000 1.0
C      1  0.4808310000000  0.5585060000000  0.5659600000000 1.0
C      1  0.4872490000000  0.4837190000000  0.5818240000000 1.0
C      1  0.5638810000000  0.5909160000000  0.4752040000000 1.0
C      1  0.4176250000000  0.4674060000000  0.3784090000000 1.0
C      1  0.4582920000000  0.6077410000000  0.4885050000000 1.0
C      1  0.6138610000000  0.5081760000000  0.5046590000000 1.0
C      1  0.4257490000000  0.4970570000000  0.4821240000000 1.0
C      1  0.4394840000000  0.4814450000000  0.5431380000000 1.0
C      1  0.6150120000000  0.4912770000000  0.4811490000000 1.0
C      1  0.6118140000000  0.4789480000000  0.5508510000000 1.0
C      1  0.4996510000000  0.5142530000000  0.4317760000000 1.0
C      1  0.5301730000000  0.4243620000000  0.5357050000000 1.0
C      1  0.6016250000000  0.5343820000000  0.5047640000000 1.0
C      1  0.4990310000000  0.4968780000000  0.3782700000000 1.0
C      1  0.5688740000000  0.4356720000000  0.4496530000000 1.0
C      1  0.4382740000000  0.4639790000000  0.4502510000000 1.0
C      1  0.5409960000000  0.6041870000000  0.4868540000000 1.0
C      1  0.4400350000000  0.4329370000000  0.4983230000000 1.0
C      1  0.4909980000000  0.3969950000000  0.5313890000000 1.0
C      1  0.3935400000000  0.5823320000000  0.4496580000000 1.0
C      1  0.5557340000000  0.5049720000000  0.4929150000000 1.0
C      1  0.4257690000000  0.4149550000000  0.4379350000000 1.0
C      1  0.5034350000000  0.4600770000000  0.6172880000000 1.0
C      1  0.5319730000000  0.5203300000000  0.6074600000000 1.0
C      1  0.5640230000000  0.4807600000000  0.5056100000000 1.0
C      1  0.4366480000000  0.5166150000000  0.5023990000000 1.0
C      1  0.4913920000000  0.5888830000000  0.4317360000000 1.0
C      1  0.3841790000000  0.4160750000000  0.4643790000000 1.0
C      1  0.4589520000000  0.5871220000000  0.4707310000000 1.0
C      1  0.5420440000000  0.4284830000000  0.4415940000000 1.0
C      1  0.5142550000000  0.5393810000000  0.4685910000000 1.0
C      1  0.4775410000000  0.4991310000000  0.4418150000000 1.0
C      1  0.5025820000000  0.5269180000000  0.4909760000000 1.0
C      1  0.5119770000000  0.5732970000000  0.4187090000000 1.0
C      1  0.5416210000000  0.5679670000000  0.4275580000000 1.0
C      1  0.5037210000000  0.5492390000000  0.5515790000000 1.0
C      1  0.4433060000000  0.4773550000000  0.3817920000000 1.0
C      1  0.4881060000000  0.4551100000000  0.4358710000000 1.0
C      1  0.5098390000000  0.4636120000000  0.4143750000000 1.0
C      1  0.4709110000000  0.5450240000000  0.4569990000000 1.0
C      1  0.4442840000000  0.5275120000000  0.5598520000000 1.0
C      1  0.3873900000000  0.4958950000000  0.5253390000000 1.0
C      1  0.5838830000000  0.4979390000000  0.5836320000000 1.0
C      1  0.5626530000000  0.5742440000000  0.4493190000000 1.0
C      1  0.3936150000000  0.4572990000000  0.3777020000000 1.0
C      1  0.5345620000000  0.4092380000000  0.5615230000000 1.0
C      1  0.5357590000000  0.4260750000000  0.6046080000000 1.0
C      1  0.5461930000000  0.5002980000000  0.3635850000000 1.0
C      1  0.5387360000000  0.4675850000000  0.5140120000000 1.0
C      1  0.5890420000000  0.4777100000000  0.3431980000000 1.0
C      1  0.5157510000000  0.4853230000000  0.5184980000000 1.0
C      1  0.4752270000000  0.4913360000000  0.4966760000000 1.0
C      1  0.5799020000000  0.5727080000000  0.5223240000000 1.0
C      1  0.4767900000000  0.5147810000000  0.3759080000000 1.0
C      1  0.4795260000000  0.5297810000000  0.6020380000000 1.0
C      1  0.4999820000000  0.4986360000000  0.5600840000000 1.0
C      1  0.4662020000000  0.4673320000000  0.4920810000000 1.0
C      1  0.5961430000000  0.5533570000000  0.4822590000000 1.0
C      1  0.5085730000000  0.4003590000000  0.5745830000000 1.0
C      1  0.5391430000000  0.4141100000000  0.5083580000000 1.0
C      1  0.4316850000000  0.4347960000000  0.5266710000000 1.0
C      1  0.3897240000000  0.5225600000000  0.5291130000000 1.0
C      1  0.4904290000000  0.5451260000000  0.5076880000000 1.0
C      1  0.5103720000000  0.3895760000000  0.4606290000000 1.0
C      1  0.4911410000000  0.6021950000000  0.5474870000000 1.0
C      1  0.5039560000000  0.5907090000000  0.5242110000000 1.0
C      1  0.5787980000000  0.4452550000000  0.5699380000000 1.0
C      1  0.5849730000000  0.4621930000000  0.5005880000000 1.0
C      1  0.5676910000000  0.4890270000000  0.3529780000000 1.0
C      1  0.5778260000000  0.4802820000000  0.4372000000000 1.0
C      1  0.4647260000000  0.5920390000000  0.4427460000000 1.0
C      1  0.5504430000000  0.5657550000000  0.5972430000000 1.0
C      1  0.5167640000000  0.4820440000000  0.4715240000000 1.0
C      1  0.4960720000000  0.4871330000000  0.6093010000000 1.0
C      1  0.5439260000000  0.4515250000000  0.5387940000000 1.0
C      1  0.4848370000000  0.3942920000000  0.5592380000000 1.0
C      1  0.3881370000000  0.6053760000000  0.6652420000000 1.0
C      1  0.4219240000000  0.4611940000000  0.5338770000000 1.0
C      1  0.4546260000000  0.5587880000000  0.4761380000000 1.0
C      1  0.4573580000000  0.4021510000000  0.5622780000000 1.0
C      1  0.4506490000000  0.5077980000000  0.4386730000000 1.0
C      1  0.5019650000000  0.5621080000000  0.5260470000000 1.0
C      1  0.4226800000000  0.4464280000000  0.4753340000000 1.0
C      1  0.5274140000000  0.5358170000000  0.3925520000000 1.0
C      1  0.5704510000000  0.5306280000000  0.5502340000000 1.0
C      1  0.5607200000000  0.5226360000000  0.4257100000000 1.0
C      1  0.5463460000000  0.4958440000000  0.6084490000000 1.0
C      1  0.5035240000000  0.4983310000000  0.4949290000000 1.0
C      1  0.5379550000000  0.3692130000000  0.4941420000000 1.0
C      1  0.5178590000000  0.4932840000000  0.4222520000000 1.0
C      1  0.5538600000000  0.4225500000000  0.5815760000000 1.0
C      1  0.4175990000000  0.5446200000000  0.4344730000000 1.0
C      1  0.4660300000000  0.5372510000000  0.5777550000000 1.0
C      1  0.5969430000000  0.3671770000000  0.5009090000000 1.0
C      1  0.4991290000000  0.4268670000000  0.5297130000000 1.0
C      1  0.4937960000000  0.4306000000000  0.5001760000000 1.0
C      1  0.5721580000000  0.5240620000000  0.5781740000000 1.0
C      1  0.5427580000000  0.5521560000000  0.5032660000000 1.0
C      1  0.4254550000000  0.5711470000000  0.5708410000000 1.0
C      1  0.5950400000000  0.4146550000000  0.5097830000000 1.0
C      1  0.4436340000000  0.5087780000000  0.5364600000000 1.0
C      1  0.5517660000000  0.5379170000000  0.5950520000000 1.0
C      1  0.4480350000000  0.5739310000000  0.4015630000000 1.0
C      1  0.5475600000000  0.5429480000000  0.4121180000000 1.0
C      1  0.4904580000000  0.4513200000000  0.5472260000000 1.0
C      1  0.4426040000000  0.5861540000000  0.5530960000000 1.0
C      1  0.4520060000000  0.5020460000000  0.3708570000000 1.0
C      1  0.4376630000000  0.5453540000000  0.4959960000000 1.0
C      1  0.5292630000000  0.4571820000000  0.4862310000000 1.0
C      1  0.5112850000000  0.3756170000000  0.4861520000000 1.0
C      1  0.4475530000000  0.4236450000000  0.4242510000000 1.0
C      1  0.4831700000000  0.4546130000000  0.5753810000000 1.0
END
