TITL C-612605-9286-714 5.8515401267349e-05 125000 -476.299218077969 0 0 79 (C1) n - 1
REM
REM in /home/nfs/bkarasulu/CARBON/AIRSS/Generating-Clusters/TERSOFF/Only-C1/FIRE-HFTN
REM
REM
REM
REM
REM
REM ./C.cell (11c1c37f851c82e70ff6c80c92926a4b)
REM AIRSS Version 0.9.1 bugfix July 2018 build 013d7b7c2542+ Fri, 06 Jul 2018 19:26:36 +0100
REM compiler GCC version 9.2.1 20190827 (Red Hat 9.2.1-1)
REM options -cpp -mtune=generic -march=x86-64 -g -O0 -fpre-include=/usr/include/finclude/math-vector-fortran.h
REM seed -176229913 2023584416 2017432523 -526251169 1070647513 -1619057790 1773968017 108679 -699824630 974026460 1629482260 -1396490264 446001341 -1103070917 -548787337 -1625367667 -472223365 -1253655963 -257964965 691599387 1948103213 786031609 1620032050 1071251830 593845575 -404493604 -463620943 -83277146 -1143655004 -707973133 -2058893941 -2023636269 -1140260844
REM
CELL 1.54180   50.00000   50.00000   50.00000   90.00000   90.00000   90.00000
LATT -1
SFAC C  
C      1  0.4452870000000  0.4954300000000  0.5827290000000 1.0
C      1  0.4405280000000  0.5304120000000  0.5508440000000 1.0
C      1  0.4951020000000  0.5525230000000  0.4608610000000 1.0
C      1  0.4635370000000  0.6097170000000  0.5020900000000 1.0
C      1  0.4738180000000  0.4218970000000  0.4888340000000 1.0
C      1  0.4738670000000  0.5241470000000  0.5206820000000 1.0
C      1  0.5786650000000  0.4663050000000  0.4616940000000 1.0
C      1  0.5468460000000  0.5767030000000  0.5281980000000 1.0
C      1  0.4526420000000  0.4633550000000  0.4007070000000 1.0
C      1  0.4568820000000  0.5523930000000  0.4308730000000 1.0
C      1  0.4965750000000  0.5689950000000  0.5672510000000 1.0
C      1  0.5803350000000  0.5307210000000  0.4708700000000 1.0
C      1  0.4326730000000  0.4603710000000  0.5515480000000 1.0
C      1  0.4741420000000  0.5464200000000  0.4095420000000 1.0
C      1  0.5589680000000  0.5577620000000  0.5432940000000 1.0
C      1  0.4263650000000  0.4819410000000  0.4746480000000 1.0
C      1  0.4953870000000  0.5323910000000  0.4008430000000 1.0
C      1  0.5662310000000  0.4570200000000  0.5624000000000 1.0
C      1  0.5077660000000  0.4268620000000  0.3980170000000 1.0
C      1  0.5073560000000  0.5271000000000  0.4593850000000 1.0
C      1  0.5342500000000  0.5243870000000  0.4667130000000 1.0
C      1  0.4839490000000  0.5263860000000  0.5837810000000 1.0
C      1  0.5240640000000  0.4907140000000  0.4145710000000 1.0
C      1  0.5821000000000  0.5218030000000  0.5226860000000 1.0
C      1  0.4591730000000  0.4834200000000  0.4169200000000 1.0
C      1  0.5670360000000  0.4849980000000  0.5683060000000 1.0
C      1  0.5315700000000  0.4219720000000  0.5412660000000 1.0
C      1  0.4609010000000  0.4407680000000  0.3891150000000 1.0
C      1  0.5058940000000  0.4595610000000  0.5272210000000 1.0
C      1  0.4977250000000  0.5797830000000  0.5199120000000 1.0
C      1  0.5178820000000  0.5148440000000  0.5351280000000 1.0
C      1  0.4892940000000  0.5537280000000  0.5880630000000 1.0
C      1  0.5229680000000  0.4424240000000  0.4134560000000 1.0
C      1  0.5409780000000  0.4444560000000  0.5579260000000 1.0
C      1  0.5246350000000  0.4660660000000  0.4285630000000 1.0
C      1  0.5634230000000  0.4563290000000  0.4823580000000 1.0
C      1  0.5353550000000  0.4627040000000  0.4827280000000 1.0
C      1  0.4801850000000  0.4938600000000  0.4802650000000 1.0
C      1  0.4680040000000  0.5589760000000  0.4573230000000 1.0
C      1  0.5075160000000  0.5094640000000  0.5830240000000 1.0
C      1  0.5432820000000  0.5154820000000  0.4931880000000 1.0
C      1  0.5280280000000  0.5013820000000  0.5121210000000 1.0
C      1  0.5586820000000  0.5328500000000  0.4537020000000 1.0
C      1  0.4577520000000  0.5202340000000  0.5741630000000 1.0
C      1  0.4225380000000  0.5085190000000  0.4740390000000 1.0
C      1  0.4556130000000  0.4488640000000  0.5404310000000 1.0
C      1  0.4977120000000  0.5604250000000  0.5406290000000 1.0
C      1  0.4714960000000  0.5843960000000  0.5089720000000 1.0
C      1  0.5558810000000  0.5106320000000  0.5627520000000 1.0
C      1  0.4770570000000  0.4658540000000  0.5322910000000 1.0
C      1  0.5271440000000  0.5116050000000  0.5618240000000 1.0
C      1  0.4515640000000  0.5411440000000  0.5264770000000 1.0
C      1  0.5249460000000  0.5870610000000  0.5156180000000 1.0
C      1  0.4829190000000  0.4174940000000  0.5154250000000 1.0
C      1  0.5765360000000  0.4407290000000  0.5014150000000 1.0
C      1  0.5902170000000  0.4374390000000  0.5240290000000 1.0
C      1  0.5193600000000  0.4629350000000  0.5542850000000 1.0
C      1  0.4891070000000  0.5049980000000  0.4563560000000 1.0
C      1  0.5720750000000  0.5208470000000  0.4966440000000 1.0
C      1  0.4199400000000  0.5094300000000  0.5483490000000 1.0
C      1  0.5880980000000  0.4447680000000  0.5497130000000 1.0
C      1  0.4384690000000  0.4579930000000  0.4738100000000 1.0
C      1  0.4560930000000  0.4378960000000  0.4762930000000 1.0
C      1  0.4830230000000  0.4257660000000  0.3879280000000 1.0
C      1  0.5222750000000  0.4738450000000  0.5061710000000 1.0
C      1  0.4482370000000  0.5532550000000  0.4786820000000 1.0
C      1  0.5686430000000  0.5309320000000  0.5460410000000 1.0
C      1  0.4975760000000  0.5334710000000  0.5318960000000 1.0
C      1  0.4717460000000  0.5027540000000  0.5036300000000 1.0
C      1  0.4267470000000  0.4851980000000  0.5629560000000 1.0
C      1  0.5083440000000  0.4283580000000  0.5241190000000 1.0
C      1  0.4289120000000  0.5346720000000  0.4659720000000 1.0
C      1  0.5239760000000  0.4640690000000  0.4567810000000 1.0
C      1  0.4747730000000  0.4968910000000  0.4337170000000 1.0
C      1  0.5135620000000  0.5127310000000  0.4033120000000 1.0
C      1  0.4314350000000  0.5404770000000  0.4374570000000 1.0
C      1  0.4617590000000  0.4217340000000  0.5346510000000 1.0
C      1  0.4529430000000  0.5618230000000  0.5057570000000 1.0
C      1  0.5116650000000  0.4919360000000  0.6037710000000 1.0
END
