TITL C-612607-4507-1468 56960.7306218689 125000 -1159.42063487063 0 0 188 (C1) n - 1
REM
REM in /home/nfs/bkarasulu/CARBON/AIRSS/Generating-Clusters/TERSOFF/Only-C1/FIRE-HFTN
REM
REM
REM
REM
REM
REM ./C.cell (11c1c37f851c82e70ff6c80c92926a4b)
REM AIRSS Version 0.9.1 bugfix July 2018 build 013d7b7c2542+ Fri, 06 Jul 2018 19:26:36 +0100
REM compiler GCC version 9.2.1 20190827 (Red Hat 9.2.1-1)
REM options -cpp -mtune=generic -march=x86-64 -g -O0 -fpre-include=/usr/include/finclude/math-vector-fortran.h
REM seed -1785373054 -899518931 1024472662 340652555 760294218 1433443076 216829620 -481029246 -180001345 610194280 685985511 -811158395 -549734646 -466147580 -1692485869 606575232 275020285 -1618305627 -1504906097 1964459220 458768034 1713076738 494974903 -1126009459 -154420614 -1547714229 -1581378512 1680649965 277101624 -750275635 -1753046869 1920629115 1818571748
REM
CELL 1.54180   50.00000   50.00000   50.00000   90.00000   90.00000   90.00000
LATT -1
SFAC C  
C      1  0.4776140000000  0.5356720000000  0.5214490000000 1.0
C      1  0.5779160000000  0.4385660000000  0.4745190000000 1.0
C      1  0.4968700000000  0.4910040000000  0.5427440000000 1.0
C      1  0.4457780000000  0.4918290000000  0.5730170000000 1.0
C      1  0.5427360000000  0.5695390000000  0.5870600000000 1.0
C      1  0.4796210000000  0.5164930000000  0.5445950000000 1.0
C      1  0.5077800000000  0.3924940000000  0.4201670000000 1.0
C      1  0.4175290000000  0.5286720000000  0.5681200000000 1.0
C      1  0.4927350000000  0.6080410000000  0.4600470000000 1.0
C      1  0.3939640000000  0.5075150000000  0.4980890000000 1.0
C      1  0.5132480000000  0.4970100000000  0.5167280000000 1.0
C      1  0.5180480000000  0.4595100000000  0.3962800000000 1.0
C      1  0.5053500000000  0.5967870000000  0.5425350000000 1.0
C      1  0.4271590000000  0.4124480000000  0.4984070000000 1.0
C      1  0.5012630000000  0.4691650000000  0.4172840000000 1.0
C      1  0.5861440000000  0.5388730000000  0.4745600000000 1.0
C      1  0.5313940000000  0.5303100000000  0.4376300000000 1.0
C      1  0.5655140000000  0.4789730000000  0.6002490000000 1.0
C      1  0.3879830000000  0.4705760000000  0.4664620000000 1.0
C      1  0.3934460000000  0.4935660000000  0.4485200000000 1.0
C      1  0.4703960000000  0.4506740000000  0.5626730000000 1.0
C      1  0.5415350000000  0.4243290000000  0.4161090000000 1.0
C      1  0.4005840000000  0.4445090000000  0.4625430000000 1.0
C      1  0.5533830000000  0.4610070000000  0.5787310000000 1.0
C      1  0.4646450000000  0.4910890000000  0.4382600000000 1.0
C      1  0.4185170000000  0.4731540000000  0.5614130000000 1.0
C      1  0.5914500000000  0.4900370000000  0.5976450000000 1.0
C      1  0.6092620000000  0.5399410000000  0.4932530000000 1.0
C      1  0.5410950000000  0.5333500000000  0.4643760000000 1.0
C      1  0.5625060000000  0.5182240000000  0.4809220000000 1.0
C      1  0.4439220000000  0.4607940000000  0.6199310000000 1.0
C      1  0.5352770000000  0.5951960000000  0.5820800000000 1.0
C      1  0.4825380000000  0.5289520000000  0.5929240000000 1.0
C      1  0.5401320000000  0.5191660000000  0.5769150000000 1.0
C      1  0.6062600000000  0.5461810000000  0.5537130000000 1.0
C      1  0.5351250000000  0.5468890000000  0.5720800000000 1.0
C      1  0.4985550000000  0.5394300000000  0.5033390000000 1.0
C      1  0.5269850000000  0.4094480000000  0.5392360000000 1.0
C      1  0.5960720000000  0.4523700000000  0.4565840000000 1.0
C      1  0.4666120000000  0.6047800000000  0.5088190000000 1.0
C      1  0.6198330000000  0.4652560000000  0.4672360000000 1.0
C      1  0.4758670000000  0.5153160000000  0.4529000000000 1.0
C      1  0.5861340000000  0.4583070000000  0.4301190000000 1.0
C      1  0.6224190000000  0.5145970000000  0.4930980000000 1.0
C      1  0.5577180000000  0.5086740000000  0.5089310000000 1.0
C      1  0.4822450000000  0.4887620000000  0.4161070000000 1.0
C      1  0.4324960000000  0.4384910000000  0.6092360000000 1.0
C      1  0.4438180000000  0.4105760000000  0.4505490000000 1.0
C      1  0.4547850000000  0.4305510000000  0.4669020000000 1.0
C      1  0.5651740000000  0.5177500000000  0.5345410000000 1.0
C      1  0.4913050000000  0.4480340000000  0.4334930000000 1.0
C      1  0.5816540000000  0.5815040000000  0.5019940000000 1.0
C      1  0.4304750000000  0.5356410000000  0.5019060000000 1.0
C      1  0.4901250000000  0.5348030000000  0.5658380000000 1.0
C      1  0.5425370000000  0.4542480000000  0.5216710000000 1.0
C      1  0.3903470000000  0.5167310000000  0.4672610000000 1.0
C      1  0.5899690000000  0.5319310000000  0.4447940000000 1.0
C      1  0.5154240000000  0.5564220000000  0.3886360000000 1.0
C      1  0.5505720000000  0.4049770000000  0.4943350000000 1.0
C      1  0.5675980000000  0.4347820000000  0.5817300000000 1.0
C      1  0.5714680000000  0.5654220000000  0.4800260000000 1.0
C      1  0.5654970000000  0.4946100000000  0.4628390000000 1.0
C      1  0.5029790000000  0.4813050000000  0.5732280000000 1.0
C      1  0.4432400000000  0.4635270000000  0.3948810000000 1.0
C      1  0.5546480000000  0.6053220000000  0.5400560000000 1.0
C      1  0.5305190000000  0.6053990000000  0.5558930000000 1.0
C      1  0.4488850000000  0.5567540000000  0.6137780000000 1.0
C      1  0.4723940000000  0.4742900000000  0.5823330000000 1.0
C      1  0.4390130000000  0.5918960000000  0.5038020000000 1.0
C      1  0.4396070000000  0.4229900000000  0.5882550000000 1.0
C      1  0.5389560000000  0.6013700000000  0.4423010000000 1.0
C      1  0.4255930000000  0.5066330000000  0.4999540000000 1.0
C      1  0.6045540000000  0.4199230000000  0.5359620000000 1.0
C      1  0.4367740000000  0.5033090000000  0.4728710000000 1.0
C      1  0.4871270000000  0.4436410000000  0.6205140000000 1.0
C      1  0.4823720000000  0.4641340000000  0.5351800000000 1.0
C      1  0.4351000000000  0.4991210000000  0.5268580000000 1.0
C      1  0.4767220000000  0.6016280000000  0.5372040000000 1.0
C      1  0.4516750000000  0.5274280000000  0.4655570000000 1.0
C      1  0.4607110000000  0.5502050000000  0.4182310000000 1.0
C      1  0.5526850000000  0.5024590000000  0.5553520000000 1.0
C      1  0.4547080000000  0.5318870000000  0.6017960000000 1.0
C      1  0.6152860000000  0.5311300000000  0.5756430000000 1.0
C      1  0.4641200000000  0.4675920000000  0.4922430000000 1.0
C      1  0.5206870000000  0.5277280000000  0.3900530000000 1.0
C      1  0.6082610000000  0.5095370000000  0.5900860000000 1.0
C      1  0.4373310000000  0.5718510000000  0.5486410000000 1.0
C      1  0.4338720000000  0.5150310000000  0.5896450000000 1.0
C      1  0.4901400000000  0.4028220000000  0.4842500000000 1.0
C      1  0.4588050000000  0.5960600000000  0.5843200000000 1.0
C      1  0.5915750000000  0.5535700000000  0.4269030000000 1.0
C      1  0.4006020000000  0.5427760000000  0.4624530000000 1.0
C      1  0.5077330000000  0.5445030000000  0.4339570000000 1.0
C      1  0.4813960000000  0.4046690000000  0.5116070000000 1.0
C      1  0.4110690000000  0.5549510000000  0.4881160000000 1.0
C      1  0.5223220000000  0.4585160000000  0.5804640000000 1.0
C      1  0.4323670000000  0.5745770000000  0.4809020000000 1.0
C      1  0.5389090000000  0.5172950000000  0.4121400000000 1.0
C      1  0.4575750000000  0.5911000000000  0.5566400000000 1.0
C      1  0.5193770000000  0.5964220000000  0.4618900000000 1.0
C      1  0.5443170000000  0.4517050000000  0.4057660000000 1.0
C      1  0.4334890000000  0.5374350000000  0.4180970000000 1.0
C      1  0.6206560000000  0.4895950000000  0.4824490000000 1.0
C      1  0.6439120000000  0.4527670000000  0.4623420000000 1.0
C      1  0.4546260000000  0.4269620000000  0.5648440000000 1.0
C      1  0.4373740000000  0.5446600000000  0.5561990000000 1.0
C      1  0.4721990000000  0.4688240000000  0.6132640000000 1.0
C      1  0.5649000000000  0.4694770000000  0.4135610000000 1.0
C      1  0.5143150000000  0.4303920000000  0.5828450000000 1.0
C      1  0.5612900000000  0.4986660000000  0.4157380000000 1.0
C      1  0.5114480000000  0.3880350000000  0.4726070000000 1.0
C      1  0.3904110000000  0.5303220000000  0.5234660000000 1.0
C      1  0.4438390000000  0.4809460000000  0.4559620000000 1.0
C      1  0.5297400000000  0.4112450000000  0.5677640000000 1.0
C      1  0.4981850000000  0.5126980000000  0.3796790000000 1.0
C      1  0.5450180000000  0.4116680000000  0.4437710000000 1.0
C      1  0.5161900000000  0.4133370000000  0.4014810000000 1.0
C      1  0.6178750000000  0.5645500000000  0.5356810000000 1.0
C      1  0.4517530000000  0.4072760000000  0.5156740000000 1.0
C      1  0.5769550000000  0.5065240000000  0.4388740000000 1.0
C      1  0.4472940000000  0.4572620000000  0.4712270000000 1.0
C      1  0.4818350000000  0.5351530000000  0.4322770000000 1.0
C      1  0.4933860000000  0.5015490000000  0.4732650000000 1.0
C      1  0.4830310000000  0.4268510000000  0.4719860000000 1.0
C      1  0.5501100000000  0.4723770000000  0.4709760000000 1.0
C      1  0.4715230000000  0.4315030000000  0.4196560000000 1.0
C      1  0.5232860000000  0.5756200000000  0.4820080000000 1.0
C      1  0.5792390000000  0.5766580000000  0.4212780000000 1.0
C      1  0.4782140000000  0.5907690000000  0.4415910000000 1.0
C      1  0.6067210000000  0.5655230000000  0.5093630000000 1.0
C      1  0.4530550000000  0.5823200000000  0.6066530000000 1.0
C      1  0.6299700000000  0.4252290000000  0.5382740000000 1.0
C      1  0.4118350000000  0.4590000000000  0.5365560000000 1.0
C      1  0.5066350000000  0.4470130000000  0.5251290000000 1.0
C      1  0.4968930000000  0.5751230000000  0.3963410000000 1.0
C      1  0.3975570000000  0.5612120000000  0.5149930000000 1.0
C      1  0.5562450000000  0.4104170000000  0.5778440000000 1.0
C      1  0.4519820000000  0.5089940000000  0.5478240000000 1.0
C      1  0.5598760000000  0.5940080000000  0.4274370000000 1.0
C      1  0.5609710000000  0.4159620000000  0.4689590000000 1.0
C      1  0.5114690000000  0.5642630000000  0.5059130000000 1.0
C      1  0.4373340000000  0.4487100000000  0.5290700000000 1.0
C      1  0.4562210000000  0.4690210000000  0.5197200000000 1.0
C      1  0.5623630000000  0.4565890000000  0.4911100000000 1.0
C      1  0.4532910000000  0.5449160000000  0.5138730000000 1.0
C      1  0.5783150000000  0.4178160000000  0.5328430000000 1.0
C      1  0.5284910000000  0.5100460000000  0.6021300000000 1.0
C      1  0.4132580000000  0.5472390000000  0.4367390000000 1.0
C      1  0.4050540000000  0.5170950000000  0.5444980000000 1.0
C      1  0.5384450000000  0.4882020000000  0.5126670000000 1.0
C      1  0.4470720000000  0.4937620000000  0.3902410000000 1.0
C      1  0.5118420000000  0.5509710000000  0.5563000000000 1.0
C      1  0.5447400000000  0.5601280000000  0.4737570000000 1.0
C      1  0.3969920000000  0.4553860000000  0.5112620000000 1.0
C      1  0.4512180000000  0.5562710000000  0.4685370000000 1.0
C      1  0.4070550000000  0.4335520000000  0.4907610000000 1.0
C      1  0.4867900000000  0.4928300000000  0.6240210000000 1.0
C      1  0.5624010000000  0.6023600000000  0.5125640000000 1.0
C      1  0.4992630000000  0.4503140000000  0.4620860000000 1.0
C      1  0.4880040000000  0.4738630000000  0.4780640000000 1.0
C      1  0.5815790000000  0.5376770000000  0.5435450000000 1.0
C      1  0.5049190000000  0.5138880000000  0.4953070000000 1.0
C      1  0.5117750000000  0.5699040000000  0.5342970000000 1.0
C      1  0.4712340000000  0.4414140000000  0.3924920000000 1.0
C      1  0.4206120000000  0.5801750000000  0.5262130000000 1.0
C      1  0.4730770000000  0.5692770000000  0.4593560000000 1.0
C      1  0.3867350000000  0.4777060000000  0.4952510000000 1.0
C      1  0.5509320000000  0.4194210000000  0.5220440000000 1.0
C      1  0.4103230000000  0.4906450000000  0.4234340000000 1.0
C      1  0.4747140000000  0.5773610000000  0.4149310000000 1.0
C      1  0.4547490000000  0.4100250000000  0.4260010000000 1.0
C      1  0.4283360000000  0.5097690000000  0.4080340000000 1.0
C      1  0.5020940000000  0.4187690000000  0.5272430000000 1.0
C      1  0.4872290000000  0.6155170000000  0.4889640000000 1.0
C      1  0.4753840000000  0.5006440000000  0.3913030000000 1.0
C      1  0.4997400000000  0.4249400000000  0.6060580000000 1.0
C      1  0.4198160000000  0.4623120000000  0.4160350000000 1.0
C      1  0.5142420000000  0.6241270000000  0.4988440000000 1.0
C      1  0.4454950000000  0.4232720000000  0.5385460000000 1.0
C      1  0.4105200000000  0.4424970000000  0.4353030000000 1.0
C      1  0.5542470000000  0.4737510000000  0.5515400000000 1.0
C      1  0.5461140000000  0.4927560000000  0.6157720000000 1.0
C      1  0.5004670000000  0.5130360000000  0.6090090000000 1.0
C      1  0.5276870000000  0.4593600000000  0.4606070000000 1.0
C      1  0.5206900000000  0.3937770000000  0.4459380000000 1.0
C      1  0.5013740000000  0.4363760000000  0.3863220000000 1.0
C      1  0.5327580000000  0.3832350000000  0.4906320000000 1.0
C      1  0.5412990000000  0.6181070000000  0.4990140000000 1.0
END
