TITL C-612601-4209-1462 -0.00861253647959697 125000 -1130.80856004066 0 0 183 (C1) n - 1
REM
REM in /home/nfs/bkarasulu/CARBON/AIRSS/Generating-Clusters/TERSOFF/Only-C1/FIRE-HFTN
REM
REM
REM
REM
REM
REM ./C.cell (11c1c37f851c82e70ff6c80c92926a4b)
REM AIRSS Version 0.9.1 bugfix July 2018 build 013d7b7c2542+ Fri, 06 Jul 2018 19:26:36 +0100
REM compiler GCC version 9.2.1 20190827 (Red Hat 9.2.1-1)
REM options -cpp -mtune=generic -march=x86-64 -g -O0 -fpre-include=/usr/include/finclude/math-vector-fortran.h
REM seed -584244922 1340830546 -1334967653 1700354264 1467924307 -826332919 148103101 216448929 495438735 1843884453 -32477973 783156448 298121042 -1212835108 -523853469 -1071553746 1824230878 -1703848752 -80146334 262634492 184178023 1586328820 -195130768 1278322302 781457615 1930003413 -272576527 -19619467 -1568195931 -1061071831 451066363 -2078786555 2084144671
REM
CELL 1.54180   50.00000   50.00000   50.00000   90.00000   90.00000   90.00000
LATT -1
SFAC C  
C      1  0.4775320000000  0.6068660000000  0.5273010000000 1.0
C      1  0.4472680000000  0.4452870000000  0.3905980000000 1.0
C      1  0.5401280000000  0.4741360000000  0.3722180000000 1.0
C      1  0.5392920000000  0.6354520000000  0.4576450000000 1.0
C      1  0.3876620000000  0.4611000000000  0.4335210000000 1.0
C      1  0.4866670000000  0.5857530000000  0.5868530000000 1.0
C      1  0.5415090000000  0.5632140000000  0.5889350000000 1.0
C      1  0.5042850000000  0.4830770000000  0.5810050000000 1.0
C      1  0.5438340000000  0.4692390000000  0.5327780000000 1.0
C      1  0.4800060000000  0.4264250000000  0.4678110000000 1.0
C      1  0.5622650000000  0.6253830000000  0.3824500000000 1.0
C      1  0.3706570000000  0.4727310000000  0.4133110000000 1.0
C      1  0.5797530000000  0.5136900000000  0.5152740000000 1.0
C      1  0.5644970000000  0.5216420000000  0.6058360000000 1.0
C      1  0.4381020000000  0.5307710000000  0.5333550000000 1.0
C      1  0.5888110000000  0.4171550000000  0.4427900000000 1.0
C      1  0.5067790000000  0.4276400000000  0.5856660000000 1.0
C      1  0.4586980000000  0.4416840000000  0.4579850000000 1.0
C      1  0.4435560000000  0.5818430000000  0.4876980000000 1.0
C      1  0.5880010000000  0.4294160000000  0.4171410000000 1.0
C      1  0.5734880000000  0.4147100000000  0.5398650000000 1.0
C      1  0.4890060000000  0.5658620000000  0.6075470000000 1.0
C      1  0.4336530000000  0.4329020000000  0.4662990000000 1.0
C      1  0.5463190000000  0.5202120000000  0.4709080000000 1.0
C      1  0.5938810000000  0.4841350000000  0.4532340000000 1.0
C      1  0.4121940000000  0.4602490000000  0.5574610000000 1.0
C      1  0.5287990000000  0.5168860000000  0.4221440000000 1.0
C      1  0.4860420000000  0.5346540000000  0.4312780000000 1.0
C      1  0.5832500000000  0.5502950000000  0.5705420000000 1.0
C      1  0.4225270000000  0.5601320000000  0.5641180000000 1.0
C      1  0.5981650000000  0.5638200000000  0.5059210000000 1.0
C      1  0.4688220000000  0.4625090000000  0.6157890000000 1.0
C      1  0.5184790000000  0.5066010000000  0.5444020000000 1.0
C      1  0.5280780000000  0.4370820000000  0.4352990000000 1.0
C      1  0.5087320000000  0.3761990000000  0.5367020000000 1.0
C      1  0.3950230000000  0.5482510000000  0.5586110000000 1.0
C      1  0.5638730000000  0.6140350000000  0.4058540000000 1.0
C      1  0.4148120000000  0.3987970000000  0.5519510000000 1.0
C      1  0.5909880000000  0.5058140000000  0.4354160000000 1.0
C      1  0.5465840000000  0.5132070000000  0.4009860000000 1.0
C      1  0.3888940000000  0.4665700000000  0.4867280000000 1.0
C      1  0.4914970000000  0.4388700000000  0.5637380000000 1.0
C      1  0.5308940000000  0.5493650000000  0.5325550000000 1.0
C      1  0.5518220000000  0.6114950000000  0.4548730000000 1.0
C      1  0.4172100000000  0.4705660000000  0.6027960000000 1.0
C      1  0.4922300000000  0.4853180000000  0.4124420000000 1.0
C      1  0.4948700000000  0.5567640000000  0.5025780000000 1.0
C      1  0.5148040000000  0.4599460000000  0.4468120000000 1.0
C      1  0.4600790000000  0.5460430000000  0.4345040000000 1.0
C      1  0.4985340000000  0.4803490000000  0.4867450000000 1.0
C      1  0.5168260000000  0.5277760000000  0.6033270000000 1.0
C      1  0.4423050000000  0.5426850000000  0.4576020000000 1.0
C      1  0.4499330000000  0.4874400000000  0.4935110000000 1.0
C      1  0.4075800000000  0.4790110000000  0.3838770000000 1.0
C      1  0.5227050000000  0.3953360000000  0.4674610000000 1.0
C      1  0.5117270000000  0.5716480000000  0.4857830000000 1.0
C      1  0.4297600000000  0.4055870000000  0.5061610000000 1.0
C      1  0.5536850000000  0.4750280000000  0.5776840000000 1.0
C      1  0.5198690000000  0.4833110000000  0.5288470000000 1.0
C      1  0.5872400000000  0.5214110000000  0.5648240000000 1.0
C      1  0.4399380000000  0.4587940000000  0.6126550000000 1.0
C      1  0.4722270000000  0.5936040000000  0.4273120000000 1.0
C      1  0.3896580000000  0.4999410000000  0.5687560000000 1.0
C      1  0.4067160000000  0.5623450000000  0.4335360000000 1.0
C      1  0.5758990000000  0.5058550000000  0.5430090000000 1.0
C      1  0.4603760000000  0.5262850000000  0.5170110000000 1.0
C      1  0.5316000000000  0.5313760000000  0.4476840000000 1.0
C      1  0.4897750000000  0.4410570000000  0.5152510000000 1.0
C      1  0.5654900000000  0.4367570000000  0.4039250000000 1.0
C      1  0.5779700000000  0.5679660000000  0.5258180000000 1.0
C      1  0.6049830000000  0.5063090000000  0.5054760000000 1.0
C      1  0.5613570000000  0.5941340000000  0.5626140000000 1.0
C      1  0.4133230000000  0.5435590000000  0.4540800000000 1.0
C      1  0.4862960000000  0.5491150000000  0.5493200000000 1.0
C      1  0.6211580000000  0.4721860000000  0.6103680000000 1.0
C      1  0.4843780000000  0.4649190000000  0.5719390000000 1.0
C      1  0.5364540000000  0.4125480000000  0.4496800000000 1.0
C      1  0.5365820000000  0.5881590000000  0.5759820000000 1.0
C      1  0.5510330000000  0.5582960000000  0.5134070000000 1.0
C      1  0.4382960000000  0.5353720000000  0.5624730000000 1.0
C      1  0.3813910000000  0.4829040000000  0.3903520000000 1.0
C      1  0.4811270000000  0.5260790000000  0.5641170000000 1.0
C      1  0.5001070000000  0.3788670000000  0.5092300000000 1.0
C      1  0.4574910000000  0.3962880000000  0.3967290000000 1.0
C      1  0.5665670000000  0.5502830000000  0.5953380000000 1.0
C      1  0.3943560000000  0.4391470000000  0.4919670000000 1.0
C      1  0.6242470000000  0.4456370000000  0.4587760000000 1.0
C      1  0.4762140000000  0.6128540000000  0.4082660000000 1.0
C      1  0.4997150000000  0.5123650000000  0.4173370000000 1.0
C      1  0.4898500000000  0.4695550000000  0.4356300000000 1.0
C      1  0.5233520000000  0.4575230000000  0.3879980000000 1.0
C      1  0.5486880000000  0.4048250000000  0.5527730000000 1.0
C      1  0.4595700000000  0.5908490000000  0.5798210000000 1.0
C      1  0.4717160000000  0.4829660000000  0.4768270000000 1.0
C      1  0.3878570000000  0.5030540000000  0.4553650000000 1.0
C      1  0.4675920000000  0.4680300000000  0.4528190000000 1.0
C      1  0.3876820000000  0.5203040000000  0.5479860000000 1.0
C      1  0.4692260000000  0.5191150000000  0.6071170000000 1.0
C      1  0.5315250000000  0.4842640000000  0.5931170000000 1.0
C      1  0.5913310000000  0.4309070000000  0.4898730000000 1.0
C      1  0.5076130000000  0.5481770000000  0.4462750000000 1.0
C      1  0.4520350000000  0.5559560000000  0.4805580000000 1.0
C      1  0.4257880000000  0.5756500000000  0.4191120000000 1.0
C      1  0.4333800000000  0.5952840000000  0.5104450000000 1.0
C      1  0.4818060000000  0.6129020000000  0.4733650000000 1.0
C      1  0.4916520000000  0.5375730000000  0.6120070000000 1.0
C      1  0.4430640000000  0.4186600000000  0.4019340000000 1.0
C      1  0.5629660000000  0.5346550000000  0.4938970000000 1.0
C      1  0.4059130000000  0.5907740000000  0.5141070000000 1.0
C      1  0.5467020000000  0.4908070000000  0.4707400000000 1.0
C      1  0.5373880000000  0.5822380000000  0.4979700000000 1.0
C      1  0.4585640000000  0.4725160000000  0.5634740000000 1.0
C      1  0.5087800000000  0.5945830000000  0.5687160000000 1.0
C      1  0.6205500000000  0.4731970000000  0.4544730000000 1.0
C      1  0.4784000000000  0.3945710000000  0.5017870000000 1.0
C      1  0.5702730000000  0.3673300000000  0.5027890000000 1.0
C      1  0.4099020000000  0.4476490000000  0.4213310000000 1.0
C      1  0.4707200000000  0.5436760000000  0.4974070000000 1.0
C      1  0.4511080000000  0.3884840000000  0.4986900000000 1.0
C      1  0.4911530000000  0.4407950000000  0.6097640000000 1.0
C      1  0.5466360000000  0.4411420000000  0.4944160000000 1.0
C      1  0.5786250000000  0.5771800000000  0.4367220000000 1.0
C      1  0.3832580000000  0.5280990000000  0.4947530000000 1.0
C      1  0.5234770000000  0.3810680000000  0.4917740000000 1.0
C      1  0.5865190000000  0.5086370000000  0.5915070000000 1.0
C      1  0.5367800000000  0.3837570000000  0.5370270000000 1.0
C      1  0.5639470000000  0.4055830000000  0.4485400000000 1.0
C      1  0.4781930000000  0.4321400000000  0.5399530000000 1.0
C      1  0.6307060000000  0.5019910000000  0.5055490000000 1.0
C      1  0.5036850000000  0.6026410000000  0.5403920000000 1.0
C      1  0.6046250000000  0.4903210000000  0.6016030000000 1.0
C      1  0.5376860000000  0.5087430000000  0.6079930000000 1.0
C      1  0.4960910000000  0.4670400000000  0.3904940000000 1.0
C      1  0.5264820000000  0.5410490000000  0.5792130000000 1.0
C      1  0.5860670000000  0.5530570000000  0.4816380000000 1.0
C      1  0.4271420000000  0.4859100000000  0.5070200000000 1.0
C      1  0.4503690000000  0.5965560000000  0.5335770000000 1.0
C      1  0.4939130000000  0.3672140000000  0.5575640000000 1.0
C      1  0.5705310000000  0.4498820000000  0.4827970000000 1.0
C      1  0.4798230000000  0.6169410000000  0.5000830000000 1.0
C      1  0.4409730000000  0.5843140000000  0.5590550000000 1.0
C      1  0.5507190000000  0.4977960000000  0.3794760000000 1.0
C      1  0.6423580000000  0.4892300000000  0.4501430000000 1.0
C      1  0.5556780000000  0.5918990000000  0.4758940000000 1.0
C      1  0.5431390000000  0.4445790000000  0.5205840000000 1.0
C      1  0.4390210000000  0.4556330000000  0.5521590000000 1.0
C      1  0.4240610000000  0.4611320000000  0.3983660000000 1.0
C      1  0.5214210000000  0.4769120000000  0.4690780000000 1.0
C      1  0.4206560000000  0.4208990000000  0.4199740000000 1.0
C      1  0.4493250000000  0.4316150000000  0.5415110000000 1.0
C      1  0.4988420000000  0.5051360000000  0.5640640000000 1.0
C      1  0.5754640000000  0.5728920000000  0.4648700000000 1.0
C      1  0.5319370000000  0.4155090000000  0.5753450000000 1.0
C      1  0.5376230000000  0.4416290000000  0.4079360000000 1.0
C      1  0.4176520000000  0.4237410000000  0.4876380000000 1.0
C      1  0.4722530000000  0.4919960000000  0.6172850000000 1.0
C      1  0.6052420000000  0.4258540000000  0.4649450000000 1.0
C      1  0.5036660000000  0.5553010000000  0.5286180000000 1.0
C      1  0.5648560000000  0.6018150000000  0.4306700000000 1.0
C      1  0.3987750000000  0.4856980000000  0.5069540000000 1.0
C      1  0.5713110000000  0.4750750000000  0.4690100000000 1.0
C      1  0.5260880000000  0.6008900000000  0.5210120000000 1.0
C      1  0.4539240000000  0.5720350000000  0.4226260000000 1.0
C      1  0.4577230000000  0.5250770000000  0.5804890000000 1.0
C      1  0.3864480000000  0.5105730000000  0.5182530000000 1.0
C      1  0.4034970000000  0.4771030000000  0.5783830000000 1.0
C      1  0.5931540000000  0.5296620000000  0.4237190000000 1.0
C      1  0.5883930000000  0.4202010000000  0.5169790000000 1.0
C      1  0.4169360000000  0.5442540000000  0.5196660000000 1.0
C      1  0.4867770000000  0.5944700000000  0.4520320000000 1.0
C      1  0.4723480000000  0.4544310000000  0.3818170000000 1.0
C      1  0.5008810000000  0.4687390000000  0.5125630000000 1.0
C      1  0.3941500000000  0.5272500000000  0.4680400000000 1.0
C      1  0.4856710000000  0.4214460000000  0.4945470000000 1.0
C      1  0.5616080000000  0.4812990000000  0.5509330000000 1.0
C      1  0.5886620000000  0.5559410000000  0.4218420000000 1.0
C      1  0.5042230000000  0.5728400000000  0.4589110000000 1.0
C      1  0.3873230000000  0.4750640000000  0.4588160000000 1.0
C      1  0.4305280000000  0.4118670000000  0.5338610000000 1.0
C      1  0.5462190000000  0.3780080000000  0.5096410000000 1.0
C      1  0.5324070000000  0.5304020000000  0.5526110000000 1.0
C      1  0.5786840000000  0.5729010000000  0.5533030000000 1.0
C      1  0.3994790000000  0.5646930000000  0.5158350000000 1.0
END
