TITL C-612600-6631-1491 1.29409034382236e-05 125000 -157.343018556402 0 0 28 (C1) n - 1
REM
REM in /home/nfs/bkarasulu/CARBON/AIRSS/Generating-Clusters/TERSOFF/Only-C1/FIRE-HFTN
REM
REM
REM
REM
REM
REM ./C.cell (11c1c37f851c82e70ff6c80c92926a4b)
REM AIRSS Version 0.9.1 bugfix July 2018 build 013d7b7c2542+ Fri, 06 Jul 2018 19:26:36 +0100
REM compiler GCC version 9.2.1 20190827 (Red Hat 9.2.1-1)
REM options -cpp -mtune=generic -march=x86-64 -g -O0 -fpre-include=/usr/include/finclude/math-vector-fortran.h
REM seed -491267090 2056915836 2057537795 -1085020864 1359800693 1674429764 763088771 -947255440 -1742643382 -1893779472 -1883305925 992152816 -547862132 -295284215 913581718 70054914 -1342153268 1872917085 1681767801 2025104433 -114672868 1008687515 -2084163253 924380930 1722418848 978552184 648128078 -1917860558 -1033648491 -1204908281 -1506761606 698147151 -2125333313
REM
CELL 1.54180   50.00000   50.00000   50.00000   90.00000   90.00000   90.00000
LATT -1
SFAC C  
C      1  0.4762290000000  0.4504950000000  0.5089900000000 1.0
C      1  0.5005470000000  0.5592500000000  0.4820900000000 1.0
C      1  0.5296310000000  0.5078930000000  0.4598920000000 1.0
C      1  0.4732400000000  0.4664420000000  0.4844370000000 1.0
C      1  0.4794220000000  0.5410460000000  0.4923870000000 1.0
C      1  0.5652390000000  0.4758550000000  0.5073240000000 1.0
C      1  0.5394410000000  0.5440480000000  0.5377420000000 1.0
C      1  0.4934260000000  0.4720790000000  0.4650180000000 1.0
C      1  0.5312370000000  0.5351180000000  0.4531770000000 1.0
C      1  0.5052020000000  0.4980260000000  0.4707780000000 1.0
C      1  0.4558520000000  0.4593940000000  0.5282420000000 1.0
C      1  0.5023100000000  0.4529510000000  0.5198630000000 1.0
C      1  0.5532160000000  0.4929600000000  0.4624490000000 1.0
C      1  0.4699880000000  0.5492190000000  0.5200900000000 1.0
C      1  0.4400980000000  0.4445000000000  0.5443960000000 1.0
C      1  0.5003060000000  0.4558720000000  0.4443290000000 1.0
C      1  0.4675170000000  0.5329860000000  0.5418590000000 1.0
C      1  0.5028000000000  0.5046030000000  0.5231570000000 1.0
C      1  0.4641980000000  0.4923990000000  0.4962620000000 1.0
C      1  0.5203350000000  0.5570030000000  0.4641540000000 1.0
C      1  0.4757820000000  0.5058090000000  0.5391890000000 1.0
C      1  0.4555840000000  0.5418180000000  0.4733110000000 1.0
C      1  0.4898200000000  0.5113780000000  0.4939440000000 1.0
C      1  0.5166050000000  0.4771720000000  0.5244130000000 1.0
C      1  0.4571640000000  0.4881710000000  0.5250970000000 1.0
C      1  0.5447410000000  0.4758060000000  0.5244970000000 1.0
C      1  0.5217090000000  0.5260100000000  0.5315270000000 1.0
C      1  0.5683640000000  0.4816970000000  0.4813870000000 1.0
END
