TITL C-612600-6631-1394 6963.66314408385 125000 -756.175373251887 0 0 125 (C1) n - 1
REM
REM in /home/nfs/bkarasulu/CARBON/AIRSS/Generating-Clusters/TERSOFF/Only-C1/FIRE-HFTN
REM
REM
REM
REM
REM
REM ./C.cell (11c1c37f851c82e70ff6c80c92926a4b)
REM AIRSS Version 0.9.1 bugfix July 2018 build 013d7b7c2542+ Fri, 06 Jul 2018 19:26:36 +0100
REM compiler GCC version 9.2.1 20190827 (Red Hat 9.2.1-1)
REM options -cpp -mtune=generic -march=x86-64 -g -O0 -fpre-include=/usr/include/finclude/math-vector-fortran.h
REM seed 1436274757 1009788110 983781872 852664685 1820120308 1328392555 -93292737 -333748184 -1533479136 -1280316117 -1150853659 -1442143266 1872325386 1093126734 -1538250431 1958100308 -1695026341 1519705806 840472636 -496450170 2080328339 735587626 -1027200248 -1763626544 941186699 -2122654424 -1276931124 647913193 -1602913150 2099833637 -1860131470 -1173086893 -681322029
REM
CELL 1.54180   50.00000   50.00000   50.00000   90.00000   90.00000   90.00000
LATT -1
SFAC C  
C      1  0.5471870000000  0.5321550000000  0.5095270000000 1.0
C      1  0.4844330000000  0.4232220000000  0.5381800000000 1.0
C      1  0.5305660000000  0.4837730000000  0.4144040000000 1.0
C      1  0.4143750000000  0.4952600000000  0.5596810000000 1.0
C      1  0.5371370000000  0.4791530000000  0.4883740000000 1.0
C      1  0.5236920000000  0.4183400000000  0.4154680000000 1.0
C      1  0.4048430000000  0.5408020000000  0.4732870000000 1.0
C      1  0.6120790000000  0.4871510000000  0.4903470000000 1.0
C      1  0.4192760000000  0.4367490000000  0.4813000000000 1.0
C      1  0.4014400000000  0.4904030000000  0.5338170000000 1.0
C      1  0.4313170000000  0.4686730000000  0.4404540000000 1.0
C      1  0.5399540000000  0.5536620000000  0.4149180000000 1.0
C      1  0.5281230000000  0.4258850000000  0.6286910000000 1.0
C      1  0.6132800000000  0.4981580000000  0.4642990000000 1.0
C      1  0.5224290000000  0.4518570000000  0.5418500000000 1.0
C      1  0.5918640000000  0.5383750000000  0.5377270000000 1.0
C      1  0.4541570000000  0.5226700000000  0.4123670000000 1.0
C      1  0.4583660000000  0.5730560000000  0.5500080000000 1.0
C      1  0.4445370000000  0.4852000000000  0.4591430000000 1.0
C      1  0.5470510000000  0.5808410000000  0.4700240000000 1.0
C      1  0.4312150000000  0.5062790000000  0.5037440000000 1.0
C      1  0.4926390000000  0.4671060000000  0.4936340000000 1.0
C      1  0.4394190000000  0.4250460000000  0.5624510000000 1.0
C      1  0.5669700000000  0.5152590000000  0.4668940000000 1.0
C      1  0.5734730000000  0.4494990000000  0.4851700000000 1.0
C      1  0.5161570000000  0.5475620000000  0.5159060000000 1.0
C      1  0.4275220000000  0.4476470000000  0.5703110000000 1.0
C      1  0.4286550000000  0.5404120000000  0.4571930000000 1.0
C      1  0.4097660000000  0.5668750000000  0.5420800000000 1.0
C      1  0.4997390000000  0.5678630000000  0.4748810000000 1.0
C      1  0.4909960000000  0.4840680000000  0.4478650000000 1.0
C      1  0.5972130000000  0.4683390000000  0.5473130000000 1.0
C      1  0.3933470000000  0.5301840000000  0.4958360000000 1.0
C      1  0.3991070000000  0.4643440000000  0.5221840000000 1.0
C      1  0.4421580000000  0.4283320000000  0.4653530000000 1.0
C      1  0.4838480000000  0.5795810000000  0.5387150000000 1.0
C      1  0.5001690000000  0.4215450000000  0.4709470000000 1.0
C      1  0.4335140000000  0.5790920000000  0.5375960000000 1.0
C      1  0.5554890000000  0.4778210000000  0.4020670000000 1.0
C      1  0.4549700000000  0.5565870000000  0.5726020000000 1.0
C      1  0.5459910000000  0.4510030000000  0.4963390000000 1.0
C      1  0.4719900000000  0.5247190000000  0.4554650000000 1.0
C      1  0.5235810000000  0.4908080000000  0.5956170000000 1.0
C      1  0.4777530000000  0.4695690000000  0.5981760000000 1.0
C      1  0.5955500000000  0.5310320000000  0.5092300000000 1.0
C      1  0.5027770000000  0.4495940000000  0.4711020000000 1.0
C      1  0.5224930000000  0.4540630000000  0.4500550000000 1.0
C      1  0.4804150000000  0.5357650000000  0.4095700000000 1.0
C      1  0.4736700000000  0.4262460000000  0.4023290000000 1.0
C      1  0.4181570000000  0.5233140000000  0.5666630000000 1.0
C      1  0.5168800000000  0.4473640000000  0.6180090000000 1.0
C      1  0.4541470000000  0.5400620000000  0.4710930000000 1.0
C      1  0.5917150000000  0.5106010000000  0.4532300000000 1.0
C      1  0.4881690000000  0.5136490000000  0.5693010000000 1.0
C      1  0.4438610000000  0.5310350000000  0.5769110000000 1.0
C      1  0.5620250000000  0.5796130000000  0.5492950000000 1.0
C      1  0.5721860000000  0.4890140000000  0.5112810000000 1.0
C      1  0.4062300000000  0.4471530000000  0.5025510000000 1.0
C      1  0.4912710000000  0.5588140000000  0.4228270000000 1.0
C      1  0.5061140000000  0.4691160000000  0.6042050000000 1.0
C      1  0.5335440000000  0.4303160000000  0.4378560000000 1.0
C      1  0.4468960000000  0.4442330000000  0.4394960000000 1.0
C      1  0.4997070000000  0.5176210000000  0.3983320000000 1.0
C      1  0.5491090000000  0.4883840000000  0.5814600000000 1.0
C      1  0.4999540000000  0.4143680000000  0.5157460000000 1.0
C      1  0.4550180000000  0.4954450000000  0.3995870000000 1.0
C      1  0.4774280000000  0.4676450000000  0.5193870000000 1.0
C      1  0.4322380000000  0.4881520000000  0.4832350000000 1.0
C      1  0.6123710000000  0.5055310000000  0.5130530000000 1.0
C      1  0.4919040000000  0.4513670000000  0.5402430000000 1.0
C      1  0.5717560000000  0.4596130000000  0.5514480000000 1.0
C      1  0.5290490000000  0.4361470000000  0.5165150000000 1.0
C      1  0.5237840000000  0.5677100000000  0.4594120000000 1.0
C      1  0.5123910000000  0.4983470000000  0.5265500000000 1.0
C      1  0.4906340000000  0.5056140000000  0.5425720000000 1.0
C      1  0.5439480000000  0.4718490000000  0.5549690000000 1.0
C      1  0.5505400000000  0.5864070000000  0.4977480000000 1.0
C      1  0.5393220000000  0.4045490000000  0.6386390000000 1.0
C      1  0.4088720000000  0.5089310000000  0.4242860000000 1.0
C      1  0.4720480000000  0.6075940000000  0.4773290000000 1.0
C      1  0.4559570000000  0.5153720000000  0.5126230000000 1.0
C      1  0.4858110000000  0.4092910000000  0.4913540000000 1.0
C      1  0.5192410000000  0.5595730000000  0.4318240000000 1.0
C      1  0.4851930000000  0.6040930000000  0.5250300000000 1.0
C      1  0.5702240000000  0.5333130000000  0.4906910000000 1.0
C      1  0.5769960000000  0.4399780000000  0.4582990000000 1.0
C      1  0.4690110000000  0.4974040000000  0.4538920000000 1.0
C      1  0.4555740000000  0.4838530000000  0.5867380000000 1.0
C      1  0.5366310000000  0.4960270000000  0.5387010000000 1.0
C      1  0.5068650000000  0.5618760000000  0.5397610000000 1.0
C      1  0.4749940000000  0.5782880000000  0.4358460000000 1.0
C      1  0.5328160000000  0.4797060000000  0.4426490000000 1.0
C      1  0.5631290000000  0.5636930000000  0.5710810000000 1.0
C      1  0.4796420000000  0.5849340000000  0.4629940000000 1.0
C      1  0.5912060000000  0.5151670000000  0.5563210000000 1.0
C      1  0.4298430000000  0.5281110000000  0.4295830000000 1.0
C      1  0.5776830000000  0.4672450000000  0.4138230000000 1.0
C      1  0.4690950000000  0.4950940000000  0.5273770000000 1.0
C      1  0.4052150000000  0.5114330000000  0.5137920000000 1.0
C      1  0.4624500000000  0.5106280000000  0.5806120000000 1.0
C      1  0.5668000000000  0.5891050000000  0.4528050000000 1.0
C      1  0.5552070000000  0.5079590000000  0.5232390000000 1.0
C      1  0.5169980000000  0.5578570000000  0.5647760000000 1.0
C      1  0.5575360000000  0.4213280000000  0.4496970000000 1.0
C      1  0.5460830000000  0.4939870000000  0.4645780000000 1.0
C      1  0.5575060000000  0.5867930000000  0.5237340000000 1.0
C      1  0.4764150000000  0.4758700000000  0.4067110000000 1.0
C      1  0.4309390000000  0.4753250000000  0.5737880000000 1.0
C      1  0.4672430000000  0.5377290000000  0.4974940000000 1.0
C      1  0.6061600000000  0.4947300000000  0.5411640000000 1.0
C      1  0.4387740000000  0.4900210000000  0.3779600000000 1.0
C      1  0.5037350000000  0.4895100000000  0.4040630000000 1.0
C      1  0.5689460000000  0.5121130000000  0.5763110000000 1.0
C      1  0.5619420000000  0.5394090000000  0.5831740000000 1.0
C      1  0.4103740000000  0.4818250000000  0.4270210000000 1.0
C      1  0.4772070000000  0.6157040000000  0.5023250000000 1.0
C      1  0.4029210000000  0.5444470000000  0.5555400000000 1.0
C      1  0.5126350000000  0.4870950000000  0.5000240000000 1.0
C      1  0.4948940000000  0.5490230000000  0.4961180000000 1.0
C      1  0.4589980000000  0.4103740000000  0.4807480000000 1.0
C      1  0.5869940000000  0.4554390000000  0.4364270000000 1.0
C      1  0.4670340000000  0.4484130000000  0.4173640000000 1.0
C      1  0.5092710000000  0.5138130000000  0.5876930000000 1.0
C      1  0.4612830000000  0.4147450000000  0.5509860000000 1.0
C      1  0.5885650000000  0.4711250000000  0.4955460000000 1.0
END
