TITL C-612601-4209-69 7.76593455007737e-05 125000 -671.709020098616 0 0 110 (C1) n - 1
REM
REM in /home/nfs/bkarasulu/CARBON/AIRSS/Generating-Clusters/TERSOFF/Only-C1/FIRE-HFTN
REM
REM
REM
REM
REM
REM ./C.cell (11c1c37f851c82e70ff6c80c92926a4b)
REM AIRSS Version 0.9.1 bugfix July 2018 build 013d7b7c2542+ Fri, 06 Jul 2018 19:26:36 +0100
REM compiler GCC version 9.2.1 20190827 (Red Hat 9.2.1-1)
REM options -cpp -mtune=generic -march=x86-64 -g -O0 -fpre-include=/usr/include/finclude/math-vector-fortran.h
REM seed -1339853469 -1963917613 -86410084 -1943737326 -1471582047 1979032220 -1800239769 -1699737589 -279797974 -884621813 566002037 776167224 -975029011 352801134 1532801918 -1027592311 1653285077 565574269 -454805637 826328687 -1682165328 -203155441 1961682904 -1768616519 -254832079 1801063397 1442658095 1686712544 89526971 -44006847 2116000445 -1598731760 537715995
REM
CELL 1.54180   50.00000   50.00000   50.00000   90.00000   90.00000   90.00000
LATT -1
SFAC C  
C      1  0.4615620000000  0.5889610000000  0.4814970000000 1.0
C      1  0.4410310000000  0.5849030000000  0.5633990000000 1.0
C      1  0.4718750000000  0.5342710000000  0.4243630000000 1.0
C      1  0.5959850000000  0.5102990000000  0.4293580000000 1.0
C      1  0.5480140000000  0.4360250000000  0.4905460000000 1.0
C      1  0.5604090000000  0.4383720000000  0.4643540000000 1.0
C      1  0.5766720000000  0.5234880000000  0.4810870000000 1.0
C      1  0.4119520000000  0.5504090000000  0.5059980000000 1.0
C      1  0.4419580000000  0.4969010000000  0.4612660000000 1.0
C      1  0.6050680000000  0.4904810000000  0.5210660000000 1.0
C      1  0.5360480000000  0.4596970000000  0.5012420000000 1.0
C      1  0.4962890000000  0.4395780000000  0.5760660000000 1.0
C      1  0.4492450000000  0.5149050000000  0.4822350000000 1.0
C      1  0.5190260000000  0.4873450000000  0.4074540000000 1.0
C      1  0.4135780000000  0.4724000000000  0.5077210000000 1.0
C      1  0.5260720000000  0.5175420000000  0.5616770000000 1.0
C      1  0.5326460000000  0.4112770000000  0.4921650000000 1.0
C      1  0.5299310000000  0.4034260000000  0.4638550000000 1.0
C      1  0.5405600000000  0.5500150000000  0.4418610000000 1.0
C      1  0.5483720000000  0.5596220000000  0.4673710000000 1.0
C      1  0.5612010000000  0.5498770000000  0.5236710000000 1.0
C      1  0.4771630000000  0.4842700000000  0.4953530000000 1.0
C      1  0.5305590000000  0.4384840000000  0.4248670000000 1.0
C      1  0.5667680000000  0.4849090000000  0.5517460000000 1.0
C      1  0.5107090000000  0.4908430000000  0.4562520000000 1.0
C      1  0.5210800000000  0.5146700000000  0.4151090000000 1.0
C      1  0.3972350000000  0.5076940000000  0.4689400000000 1.0
C      1  0.5466630000000  0.5244990000000  0.4276300000000 1.0
C      1  0.4452580000000  0.5016920000000  0.5318040000000 1.0
C      1  0.4895850000000  0.4936080000000  0.4717280000000 1.0
C      1  0.4394670000000  0.5182110000000  0.5778160000000 1.0
C      1  0.5396700000000  0.4424860000000  0.5555830000000 1.0
C      1  0.5180430000000  0.4064560000000  0.5161040000000 1.0
C      1  0.5172390000000  0.6079280000000  0.5351730000000 1.0
C      1  0.5417140000000  0.4242540000000  0.4466530000000 1.0
C      1  0.4306170000000  0.5167940000000  0.5512170000000 1.0
C      1  0.3917790000000  0.4895290000000  0.4223380000000 1.0
C      1  0.5224040000000  0.4527080000000  0.5788350000000 1.0
C      1  0.4718820000000  0.4748870000000  0.5554430000000 1.0
C      1  0.5850140000000  0.5021900000000  0.5378340000000 1.0
C      1  0.5003890000000  0.5494770000000  0.5864880000000 1.0
C      1  0.4749320000000  0.4574220000000  0.5768860000000 1.0
C      1  0.4474990000000  0.4554930000000  0.4293360000000 1.0
C      1  0.5737530000000  0.5516210000000  0.4786250000000 1.0
C      1  0.4044160000000  0.5214380000000  0.5422200000000 1.0
C      1  0.5682240000000  0.5059690000000  0.4318040000000 1.0
C      1  0.4742310000000  0.4154620000000  0.5348670000000 1.0
C      1  0.5229550000000  0.4609110000000  0.4118070000000 1.0
C      1  0.5145920000000  0.5573030000000  0.4315900000000 1.0
C      1  0.5099180000000  0.5325700000000  0.5164900000000 1.0
C      1  0.5099140000000  0.4559490000000  0.5104750000000 1.0
C      1  0.4912880000000  0.4925570000000  0.5442890000000 1.0
C      1  0.5086160000000  0.5144530000000  0.5390690000000 1.0
C      1  0.4548790000000  0.5224510000000  0.4051330000000 1.0
C      1  0.4489310000000  0.4299510000000  0.5283860000000 1.0
C      1  0.4478040000000  0.4750420000000  0.5414420000000 1.0
C      1  0.4019960000000  0.5245930000000  0.5141750000000 1.0
C      1  0.5435660000000  0.4845310000000  0.4898470000000 1.0
C      1  0.5763610000000  0.4610420000000  0.4592120000000 1.0
C      1  0.4861200000000  0.5680660000000  0.5736390000000 1.0
C      1  0.5087330000000  0.5859410000000  0.4920730000000 1.0
C      1  0.5966370000000  0.4667550000000  0.5064280000000 1.0
C      1  0.3865700000000  0.4911550000000  0.4487140000000 1.0
C      1  0.4546420000000  0.5103130000000  0.5984430000000 1.0
C      1  0.4339110000000  0.4557390000000  0.5249550000000 1.0
C      1  0.4893350000000  0.3996880000000  0.5147120000000 1.0
C      1  0.5231650000000  0.4208060000000  0.5415780000000 1.0
C      1  0.4085880000000  0.5324390000000  0.4585410000000 1.0
C      1  0.5810920000000  0.4492700000000  0.5236340000000 1.0
C      1  0.4566830000000  0.5018020000000  0.5059050000000 1.0
C      1  0.4322750000000  0.5100940000000  0.3979940000000 1.0
C      1  0.4683590000000  0.5357140000000  0.4754320000000 1.0
C      1  0.5051350000000  0.5007170000000  0.6005590000000 1.0
C      1  0.5299490000000  0.5669480000000  0.4889930000000 1.0
C      1  0.5334330000000  0.5493960000000  0.5130890000000 1.0
C      1  0.6306200000000  0.5000710000000  0.5200680000000 1.0
C      1  0.4278020000000  0.5716770000000  0.5164090000000 1.0
C      1  0.4999700000000  0.5349380000000  0.4204930000000 1.0
C      1  0.4533620000000  0.5814420000000  0.5075870000000 1.0
C      1  0.5202100000000  0.4762500000000  0.5955420000000 1.0
C      1  0.5757470000000  0.5293100000000  0.5369050000000 1.0
C      1  0.6186680000000  0.4825990000000  0.4639270000000 1.0
C      1  0.4956970000000  0.4217500000000  0.5541480000000 1.0
C      1  0.4779590000000  0.5013370000000  0.6084610000000 1.0
C      1  0.4876300000000  0.5906490000000  0.4736640000000 1.0
C      1  0.4432460000000  0.4754950000000  0.4455270000000 1.0
C      1  0.5985200000000  0.4673660000000  0.4770670000000 1.0
C      1  0.4681850000000  0.5799430000000  0.5555760000000 1.0
C      1  0.5778670000000  0.5636110000000  0.5043150000000 1.0
C      1  0.5610040000000  0.4826610000000  0.4468780000000 1.0
C      1  0.4590450000000  0.5436570000000  0.4487890000000 1.0
C      1  0.5630800000000  0.4569770000000  0.5450730000000 1.0
C      1  0.4685020000000  0.4137690000000  0.4747240000000 1.0
C      1  0.5370680000000  0.4858470000000  0.4619380000000 1.0
C      1  0.4220890000000  0.5800950000000  0.5429900000000 1.0
C      1  0.4300660000000  0.5459990000000  0.4486000000000 1.0
C      1  0.4762480000000  0.3933420000000  0.4906410000000 1.0
C      1  0.4843630000000  0.4578410000000  0.4994430000000 1.0
C      1  0.4744920000000  0.5846490000000  0.5279100000000 1.0
C      1  0.5473600000000  0.4998980000000  0.5645650000000 1.0
C      1  0.5204740000000  0.3795690000000  0.4547390000000 1.0
C      1  0.5627330000000  0.5044550000000  0.4943400000000 1.0
C      1  0.5129130000000  0.5243620000000  0.5858140000000 1.0
C      1  0.4897370000000  0.5370270000000  0.4952630000000 1.0
C      1  0.6167320000000  0.5002420000000  0.4435020000000 1.0
C      1  0.4731440000000  0.4393530000000  0.4813740000000 1.0
C      1  0.4022020000000  0.5002410000000  0.4970670000000 1.0
C      1  0.5008040000000  0.5929420000000  0.5192080000000 1.0
C      1  0.4091410000000  0.4979330000000  0.4037180000000 1.0
C      1  0.4340850000000  0.5937200000000  0.5882290000000 1.0
END
