TITL C-612600-6631-322 -8779.98608835396 125000 -1029.4045395683 0 0 168 (C1) n - 1
REM
REM in /home/nfs/bkarasulu/CARBON/AIRSS/Generating-Clusters/TERSOFF/Only-C1/FIRE-HFTN
REM
REM
REM
REM
REM
REM ./C.cell (11c1c37f851c82e70ff6c80c92926a4b)
REM AIRSS Version 0.9.1 bugfix July 2018 build 013d7b7c2542+ Fri, 06 Jul 2018 19:26:36 +0100
REM compiler GCC version 9.2.1 20190827 (Red Hat 9.2.1-1)
REM options -cpp -mtune=generic -march=x86-64 -g -O0 -fpre-include=/usr/include/finclude/math-vector-fortran.h
REM seed -494528417 1020585465 686131570 -1613647903 1486874981 694205179 -1149435831 -44301479 290757772 1610342615 586855223 654399585 1869610251 697538469 -1880642949 -446104274 764845406 2006975511 -1036453050 -864938957 1010506990 -1267984732 -586833529 -2030530955 988210194 738053216 872161650 -766500532 -393661900 -512016075 -30950864 1145225438 277508555
REM
CELL 1.54180   50.00000   50.00000   50.00000   90.00000   90.00000   90.00000
LATT -1
SFAC C  
C      1  0.5280060000000  0.6202310000000  0.5077900000000 1.0
C      1  0.4792490000000  0.4253310000000  0.5628720000000 1.0
C      1  0.4641160000000  0.4973420000000  0.4795130000000 1.0
C      1  0.4116520000000  0.4485630000000  0.6064070000000 1.0
C      1  0.5155950000000  0.5223230000000  0.4272750000000 1.0
C      1  0.4772770000000  0.5529800000000  0.5819750000000 1.0
C      1  0.4530930000000  0.5370120000000  0.5883910000000 1.0
C      1  0.5282720000000  0.6254990000000  0.4800090000000 1.0
C      1  0.5092360000000  0.5708900000000  0.4337760000000 1.0
C      1  0.3934510000000  0.5650520000000  0.5158900000000 1.0
C      1  0.4572230000000  0.4471890000000  0.4411170000000 1.0
C      1  0.4538080000000  0.4421430000000  0.4923390000000 1.0
C      1  0.4433020000000  0.5443080000000  0.4854850000000 1.0
C      1  0.4457140000000  0.3889160000000  0.5469210000000 1.0
C      1  0.5176960000000  0.5856670000000  0.6227060000000 1.0
C      1  0.5067440000000  0.4645370000000  0.3785170000000 1.0
C      1  0.5405780000000  0.4862760000000  0.5504890000000 1.0
C      1  0.6038110000000  0.5441170000000  0.4580990000000 1.0
C      1  0.4643460000000  0.6078020000000  0.4855640000000 1.0
C      1  0.4781470000000  0.4540290000000  0.5648600000000 1.0
C      1  0.5389410000000  0.4421390000000  0.4895170000000 1.0
C      1  0.5160710000000  0.5117140000000  0.5029060000000 1.0
C      1  0.4833490000000  0.4796170000000  0.4900420000000 1.0
C      1  0.4759760000000  0.5993560000000  0.4626850000000 1.0
C      1  0.5219780000000  0.5097200000000  0.5526090000000 1.0
C      1  0.4726800000000  0.5061890000000  0.4535060000000 1.0
C      1  0.4859900000000  0.4090890000000  0.5127650000000 1.0
C      1  0.4016570000000  0.5428920000000  0.4396580000000 1.0
C      1  0.5228440000000  0.4836460000000  0.4588830000000 1.0
C      1  0.4200990000000  0.4687790000000  0.5922850000000 1.0
C      1  0.5237760000000  0.4633250000000  0.5421920000000 1.0
C      1  0.5191520000000  0.4400890000000  0.5281440000000 1.0
C      1  0.5255370000000  0.5605380000000  0.6287270000000 1.0
C      1  0.5215820000000  0.5708820000000  0.5704710000000 1.0
C      1  0.5688490000000  0.5114900000000  0.4179220000000 1.0
C      1  0.4395530000000  0.4637570000000  0.4505380000000 1.0
C      1  0.5860040000000  0.4298030000000  0.4919320000000 1.0
C      1  0.5076870000000  0.5958450000000  0.5751310000000 1.0
C      1  0.5440020000000  0.4677740000000  0.4948220000000 1.0
C      1  0.5312360000000  0.5350480000000  0.6218890000000 1.0
C      1  0.3980160000000  0.4562980000000  0.5144830000000 1.0
C      1  0.4534490000000  0.4150240000000  0.5543410000000 1.0
C      1  0.4611590000000  0.4272390000000  0.4219690000000 1.0
C      1  0.5492180000000  0.5693770000000  0.5664440000000 1.0
C      1  0.4885800000000  0.5598900000000  0.4999920000000 1.0
C      1  0.4095030000000  0.4303280000000  0.4076220000000 1.0
C      1  0.5702080000000  0.4565980000000  0.4461980000000 1.0
C      1  0.5507480000000  0.4767170000000  0.4536340000000 1.0
C      1  0.5069700000000  0.3874260000000  0.4756720000000 1.0
C      1  0.4882520000000  0.4197400000000  0.4181230000000 1.0
C      1  0.4285000000000  0.5316510000000  0.4343690000000 1.0
C      1  0.5521040000000  0.6213040000000  0.5221310000000 1.0
C      1  0.5847550000000  0.5330470000000  0.5225650000000 1.0
C      1  0.4127280000000  0.4098010000000  0.4908080000000 1.0
C      1  0.5612640000000  0.5318810000000  0.5060050000000 1.0
C      1  0.3853910000000  0.4746000000000  0.4673500000000 1.0
C      1  0.3853320000000  0.5405420000000  0.5077880000000 1.0
C      1  0.5103420000000  0.5173760000000  0.3784680000000 1.0
C      1  0.3975850000000  0.4314740000000  0.3829120000000 1.0
C      1  0.4098140000000  0.5861300000000  0.5202180000000 1.0
C      1  0.5050190000000  0.5480100000000  0.5771690000000 1.0
C      1  0.5055540000000  0.5427450000000  0.4497430000000 1.0
C      1  0.5658440000000  0.4293110000000  0.5651500000000 1.0
C      1  0.5747260000000  0.5582070000000  0.5621680000000 1.0
C      1  0.5054560000000  0.4913000000000  0.3719820000000 1.0
C      1  0.4551780000000  0.5436900000000  0.4299370000000 1.0
C      1  0.5165840000000  0.5375000000000  0.3998830000000 1.0
C      1  0.4138340000000  0.4477420000000  0.5345910000000 1.0
C      1  0.4590290000000  0.6079220000000  0.5138870000000 1.0
C      1  0.4270320000000  0.3799220000000  0.5296100000000 1.0
C      1  0.4828200000000  0.6076350000000  0.5315750000000 1.0
C      1  0.4385170000000  0.5127890000000  0.4829000000000 1.0
C      1  0.6051220000000  0.5129110000000  0.5301900000000 1.0
C      1  0.5840650000000  0.5812030000000  0.5175950000000 1.0
C      1  0.4117850000000  0.3883970000000  0.5090380000000 1.0
C      1  0.5496260000000  0.3821900000000  0.5045740000000 1.0
C      1  0.5130360000000  0.4926010000000  0.4314890000000 1.0
C      1  0.5615630000000  0.4292580000000  0.4475430000000 1.0
C      1  0.5720520000000  0.4295690000000  0.5180320000000 1.0
C      1  0.5204760000000  0.6142250000000  0.4568910000000 1.0
C      1  0.5645900000000  0.4987610000000  0.4677290000000 1.0
C      1  0.5006250000000  0.5954820000000  0.4489640000000 1.0
C      1  0.5560130000000  0.4994470000000  0.5948730000000 1.0
C      1  0.4671550000000  0.5753220000000  0.5647410000000 1.0
C      1  0.3830920000000  0.5036860000000  0.4721100000000 1.0
C      1  0.5073470000000  0.6030260000000  0.5169760000000 1.0
C      1  0.5797280000000  0.5147260000000  0.5915340000000 1.0
C      1  0.4625100000000  0.5517610000000  0.5044480000000 1.0
C      1  0.4757700000000  0.5342680000000  0.4490460000000 1.0
C      1  0.5332130000000  0.5164170000000  0.6005240000000 1.0
C      1  0.5509460000000  0.4765750000000  0.5777230000000 1.0
C      1  0.5726970000000  0.4143150000000  0.4709940000000 1.0
C      1  0.4460670000000  0.5619100000000  0.5508190000000 1.0
C      1  0.4939790000000  0.4361300000000  0.5151800000000 1.0
C      1  0.3886130000000  0.4651880000000  0.4400190000000 1.0
C      1  0.4160010000000  0.5052730000000  0.5579330000000 1.0
C      1  0.4677020000000  0.5572860000000  0.4082050000000 1.0
C      1  0.4365360000000  0.4208600000000  0.4093500000000 1.0
C      1  0.4551660000000  0.5444930000000  0.5303380000000 1.0
C      1  0.3922780000000  0.5148210000000  0.4975350000000 1.0
C      1  0.6294010000000  0.5225140000000  0.5406360000000 1.0
C      1  0.4380580000000  0.4214170000000  0.4876980000000 1.0
C      1  0.5178990000000  0.5230730000000  0.5771520000000 1.0
C      1  0.6513950000000  0.5315290000000  0.5513170000000 1.0
C      1  0.5154090000000  0.4294690000000  0.4191730000000 1.0
C      1  0.5029750000000  0.3887400000000  0.5042640000000 1.0
C      1  0.5764600000000  0.5121220000000  0.4455070000000 1.0
C      1  0.5541410000000  0.3933000000000  0.4781190000000 1.0
C      1  0.5229120000000  0.4334840000000  0.5841750000000 1.0
C      1  0.5665710000000  0.5355100000000  0.4032870000000 1.0
C      1  0.4062640000000  0.5657730000000  0.4559870000000 1.0
C      1  0.6030950000000  0.4840020000000  0.5265740000000 1.0
C      1  0.5297310000000  0.3967110000000  0.4611440000000 1.0
C      1  0.5992100000000  0.4620980000000  0.5447580000000 1.0
C      1  0.5650090000000  0.4881490000000  0.4978360000000 1.0
C      1  0.4549990000000  0.5163290000000  0.5339360000000 1.0
C      1  0.4483600000000  0.5094580000000  0.5937010000000 1.0
C      1  0.6043320000000  0.5163230000000  0.4505110000000 1.0
C      1  0.5043780000000  0.5107710000000  0.5299880000000 1.0
C      1  0.5588330000000  0.4944520000000  0.5280280000000 1.0
C      1  0.5737600000000  0.6060100000000  0.5257650000000 1.0
C      1  0.4331700000000  0.4346470000000  0.5479810000000 1.0
C      1  0.5559010000000  0.4886650000000  0.4075150000000 1.0
C      1  0.3893350000000  0.4530570000000  0.4875470000000 1.0
C      1  0.5852460000000  0.5588070000000  0.5356000000000 1.0
C      1  0.5194560000000  0.4533840000000  0.4022300000000 1.0
C      1  0.5312580000000  0.5444860000000  0.4687990000000 1.0
C      1  0.5984910000000  0.4549320000000  0.4840600000000 1.0
C      1  0.3829330000000  0.5230300000000  0.4501060000000 1.0
C      1  0.5260870000000  0.3852570000000  0.5218360000000 1.0
C      1  0.5100140000000  0.6025010000000  0.6027310000000 1.0
C      1  0.6135260000000  0.4883280000000  0.4508030000000 1.0
C      1  0.5484520000000  0.4472610000000  0.5803460000000 1.0
C      1  0.4782700000000  0.5013580000000  0.5376140000000 1.0
C      1  0.4961690000000  0.5612090000000  0.4068910000000 1.0
C      1  0.4288730000000  0.4924850000000  0.5807780000000 1.0
C      1  0.4837280000000  0.5974720000000  0.5587870000000 1.0
C      1  0.4307800000000  0.5486670000000  0.5717670000000 1.0
C      1  0.5811770000000  0.5613490000000  0.4656790000000 1.0
C      1  0.5424690000000  0.4292680000000  0.5147280000000 1.0
C      1  0.5979380000000  0.4634590000000  0.4560940000000 1.0
C      1  0.4187210000000  0.5061360000000  0.5050440000000 1.0
C      1  0.5845250000000  0.5388190000000  0.5803580000000 1.0
C      1  0.4288560000000  0.5046700000000  0.5319720000000 1.0
C      1  0.5264030000000  0.3972750000000  0.5499230000000 1.0
C      1  0.3922570000000  0.4251970000000  0.4781190000000 1.0
C      1  0.4322510000000  0.6012120000000  0.5211040000000 1.0
C      1  0.5080620000000  0.5767480000000  0.5067570000000 1.0
C      1  0.5818960000000  0.4391190000000  0.5435410000000 1.0
C      1  0.5310700000000  0.4768130000000  0.4135870000000 1.0
C      1  0.5536210000000  0.5596190000000  0.4548810000000 1.0
C      1  0.5354810000000  0.5309500000000  0.4937450000000 1.0
C      1  0.5343090000000  0.4183270000000  0.4398190000000 1.0
C      1  0.3876340000000  0.4198560000000  0.4507150000000 1.0
C      1  0.4777850000000  0.4540890000000  0.5003370000000 1.0
C      1  0.3943690000000  0.4386950000000  0.4306040000000 1.0
C      1  0.5928680000000  0.4770180000000  0.5010900000000 1.0
C      1  0.4765850000000  0.4782730000000  0.5538520000000 1.0
C      1  0.5439120000000  0.5521830000000  0.4047200000000 1.0
C      1  0.4286050000000  0.5104630000000  0.4539600000000 1.0
C      1  0.4087750000000  0.5320500000000  0.5655250000000 1.0
C      1  0.5853290000000  0.5763550000000  0.4895590000000 1.0
C      1  0.5406250000000  0.5684490000000  0.4293920000000 1.0
C      1  0.4838540000000  0.4893390000000  0.4339680000000 1.0
C      1  0.5094590000000  0.4901000000000  0.4843040000000 1.0
C      1  0.5069460000000  0.4150100000000  0.5665440000000 1.0
C      1  0.5534880000000  0.4033010000000  0.5603090000000 1.0
C      1  0.4263130000000  0.5638590000000  0.4741270000000 1.0
END
