TITL C-612602-9376-521 -0.00671294088140786 125000 -264.468621552271 0 0 45 (C1) n - 1
REM
REM in /home/nfs/bkarasulu/CARBON/AIRSS/Generating-Clusters/TERSOFF/Only-C1/FIRE-HFTN
REM
REM
REM
REM
REM
REM ./C.cell (11c1c37f851c82e70ff6c80c92926a4b)
REM AIRSS Version 0.9.1 bugfix July 2018 build 013d7b7c2542+ Fri, 06 Jul 2018 19:26:36 +0100
REM compiler GCC version 9.2.1 20190827 (Red Hat 9.2.1-1)
REM options -cpp -mtune=generic -march=x86-64 -g -O0 -fpre-include=/usr/include/finclude/math-vector-fortran.h
REM seed -1187840099 873856002 1826770321 979423545 -1805838467 1812881042 468750269 1104760763 2075184011 1904977727 1628002317 -83329669 -1786574167 -38446198 -823613661 509796816 215231018 -166051481 -1218686289 1756197514 -68141559 -1882943698 -1055738768 69850283 -295405946 -1191689772 462501026 -602606327 -623523300 211422062 -1984545657 -1459347486 -946302510
REM
CELL 1.54180   50.00000   50.00000   50.00000   90.00000   90.00000   90.00000
LATT -1
SFAC C  
C      1  0.5212630000000  0.5369370000000  0.4485150000000 1.0
C      1  0.4661460000000  0.5633670000000  0.5033080000000 1.0
C      1  0.5117900000000  0.4203740000000  0.4742880000000 1.0
C      1  0.5499850000000  0.5401830000000  0.5467060000000 1.0
C      1  0.5649360000000  0.4910170000000  0.5401950000000 1.0
C      1  0.5212690000000  0.4393550000000  0.5638670000000 1.0
C      1  0.5529390000000  0.4659090000000  0.5387550000000 1.0
C      1  0.4589300000000  0.5547030000000  0.4565270000000 1.0
C      1  0.4917780000000  0.5679350000000  0.5140220000000 1.0
C      1  0.4517880000000  0.5499420000000  0.4832280000000 1.0
C      1  0.5125390000000  0.4444120000000  0.5166480000000 1.0
C      1  0.4422450000000  0.4253860000000  0.5696250000000 1.0
C      1  0.5380200000000  0.4573090000000  0.5160160000000 1.0
C      1  0.4840350000000  0.5044950000000  0.5326100000000 1.0
C      1  0.5631430000000  0.5621920000000  0.4460390000000 1.0
C      1  0.5379430000000  0.5582910000000  0.4572760000000 1.0
C      1  0.4932030000000  0.5017020000000  0.5061410000000 1.0
C      1  0.4356710000000  0.5277370000000  0.4887810000000 1.0
C      1  0.4765550000000  0.5510240000000  0.4369820000000 1.0
C      1  0.5865130000000  0.5650870000000  0.4348790000000 1.0
C      1  0.5005670000000  0.5531700000000  0.5367440000000 1.0
C      1  0.4859020000000  0.5301620000000  0.5437250000000 1.0
C      1  0.4345030000000  0.4755080000000  0.4894460000000 1.0
C      1  0.4722110000000  0.4442800000000  0.4887980000000 1.0
C      1  0.5057530000000  0.5060520000000  0.4831290000000 1.0
C      1  0.5075000000000  0.5383490000000  0.4015180000000 1.0
C      1  0.5223910000000  0.5114850000000  0.4612090000000 1.0
C      1  0.4301330000000  0.5017230000000  0.4885540000000 1.0
C      1  0.5016070000000  0.4419180000000  0.5434490000000 1.0
C      1  0.5111570000000  0.5795180000000  0.4973760000000 1.0
C      1  0.4391730000000  0.4407560000000  0.5230320000000 1.0
C      1  0.5138900000000  0.5346710000000  0.3765230000000 1.0
C      1  0.5016780000000  0.5420970000000  0.4285030000000 1.0
C      1  0.5272970000000  0.5541370000000  0.5452940000000 1.0
C      1  0.5245660000000  0.4060340000000  0.4566730000000 1.0
C      1  0.4766100000000  0.4541030000000  0.5490230000000 1.0
C      1  0.5396680000000  0.4923730000000  0.4519590000000 1.0
C      1  0.4471120000000  0.4522910000000  0.4985520000000 1.0
C      1  0.5281740000000  0.5751140000000  0.4774080000000 1.0
C      1  0.5633840000000  0.5173350000000  0.5439250000000 1.0
C      1  0.4760410000000  0.4821700000000  0.5473400000000 1.0
C      1  0.4988130000000  0.4363670000000  0.4931550000000 1.0
C      1  0.4333050000000  0.4120630000000  0.5901610000000 1.0
C      1  0.4522470000000  0.4395550000000  0.5479340000000 1.0
C      1  0.5456250000000  0.4514110000000  0.5621630000000 1.0
END
