TITL C-612606-7351-925 60.3859239422568 125000 -175.696117926605 0 0 31 (C1) n - 1
REM
REM in /home/nfs/bkarasulu/CARBON/AIRSS/Generating-Clusters/TERSOFF/Only-C1/FIRE-HFTN
REM
REM
REM
REM
REM
REM ./C.cell (11c1c37f851c82e70ff6c80c92926a4b)
REM AIRSS Version 0.9.1 bugfix July 2018 build 013d7b7c2542+ Fri, 06 Jul 2018 19:26:36 +0100
REM compiler GCC version 9.2.1 20190827 (Red Hat 9.2.1-1)
REM options -cpp -mtune=generic -march=x86-64 -g -O0 -fpre-include=/usr/include/finclude/math-vector-fortran.h
REM seed 533972269 -1975571133 1701433030 -279178177 -1997415615 -1357461865 -1017936845 -1591474473 -1113643075 -1411537580 47658887 1425992568 317872825 1645891594 1637265158 808735361 -767154495 -1250666189 484413494 1095590041 -881980174 -1287522887 1250018327 1587466364 165010602 -1287337128 888691932 -1711907878 1314525753 1156767736 1576306491 974189837 -1149441063
REM
CELL 1.54180   50.00000   50.00000   50.00000   90.00000   90.00000   90.00000
LATT -1
SFAC C  
C      1  0.4946070000000  0.5299490000000  0.5358100000000 1.0
C      1  0.4920790000000  0.5321930000000  0.3993760000000 1.0
C      1  0.4677590000000  0.4342500000000  0.5101110000000 1.0
C      1  0.4570220000000  0.4494730000000  0.5830420000000 1.0
C      1  0.4728020000000  0.4835970000000  0.4003620000000 1.0
C      1  0.5099110000000  0.4653780000000  0.5635220000000 1.0
C      1  0.5530820000000  0.4121160000000  0.5102620000000 1.0
C      1  0.5188550000000  0.5812990000000  0.4527980000000 1.0
C      1  0.4626870000000  0.4311180000000  0.4842900000000 1.0
C      1  0.5217390000000  0.4762490000000  0.4998910000000 1.0
C      1  0.4760520000000  0.4434270000000  0.5351400000000 1.0
C      1  0.4616170000000  0.4448720000000  0.4336900000000 1.0
C      1  0.5113140000000  0.5702000000000  0.4299320000000 1.0
C      1  0.5002260000000  0.4690330000000  0.5883550000000 1.0
C      1  0.5378260000000  0.6112760000000  0.5177250000000 1.0
C      1  0.5244730000000  0.5648880000000  0.5210900000000 1.0
C      1  0.4759480000000  0.4618640000000  0.5978420000000 1.0
C      1  0.4819130000000  0.5080150000000  0.3954390000000 1.0
C      1  0.5410610000000  0.5286310000000  0.5477840000000 1.0
C      1  0.4657890000000  0.4617460000000  0.4136590000000 1.0
C      1  0.4584400000000  0.4422720000000  0.5571550000000 1.0
C      1  0.5246240000000  0.5869020000000  0.4780450000000 1.0
C      1  0.4710880000000  0.5187390000000  0.5365230000000 1.0
C      1  0.5460880000000  0.6332250000000  0.5290920000000 1.0
C      1  0.5023510000000  0.4546170000000  0.5385590000000 1.0
C      1  0.5378190000000  0.4330090000000  0.5133740000000 1.0
C      1  0.4606010000000  0.4345040000000  0.4580760000000 1.0
C      1  0.5289800000000  0.5877070000000  0.5056300000000 1.0
C      1  0.5021920000000  0.5535400000000  0.4114300000000 1.0
C      1  0.5202740000000  0.5410320000000  0.5350420000000 1.0
C      1  0.5207770000000  0.4548810000000  0.5169500000000 1.0
END
