TITL C-612604-1799-1041 0.00246292055482459 125000 -570.382292042787 0 0 94 (C1) n - 1
REM
REM in /home/nfs/bkarasulu/CARBON/AIRSS/Generating-Clusters/TERSOFF/Only-C1/FIRE-HFTN
REM
REM
REM
REM
REM
REM ./C.cell (11c1c37f851c82e70ff6c80c92926a4b)
REM AIRSS Version 0.9.1 bugfix July 2018 build 013d7b7c2542+ Fri, 06 Jul 2018 19:26:36 +0100
REM compiler GCC version 9.2.1 20190827 (Red Hat 9.2.1-1)
REM options -cpp -mtune=generic -march=x86-64 -g -O0 -fpre-include=/usr/include/finclude/math-vector-fortran.h
REM seed -174758811 2143356847 1254809948 1506024418 -1447204740 -250997662 672180118 1056240887 -936350469 -989384897 742661000 704167921 1332767231 853743615 -1805449252 1927934212 -1014731427 1292298091 -1953541069 271447298 -1456701564 -1083783304 496459647 -1372578985 -517202819 1226359889 -1550921340 1361199064 -1719990954 1198856001 -1435146271 -1952735444 -434803751
REM
CELL 1.54180   50.00000   50.00000   50.00000   90.00000   90.00000   90.00000
LATT -1
SFAC C  
C      1  0.5706520000000  0.4754210000000  0.4797770000000 1.0
C      1  0.5468540000000  0.4987710000000  0.5640220000000 1.0
C      1  0.4516160000000  0.5690980000000  0.4946160000000 1.0
C      1  0.3515350000000  0.5024530000000  0.4286340000000 1.0
C      1  0.5287370000000  0.5671870000000  0.4521890000000 1.0
C      1  0.4274980000000  0.4464620000000  0.4982160000000 1.0
C      1  0.5628120000000  0.5162660000000  0.4329040000000 1.0
C      1  0.4419260000000  0.4666100000000  0.5687780000000 1.0
C      1  0.4502270000000  0.5120390000000  0.5292370000000 1.0
C      1  0.5225150000000  0.4898820000000  0.3956500000000 1.0
C      1  0.5386370000000  0.5665570000000  0.4799560000000 1.0
C      1  0.5304860000000  0.4658900000000  0.4051850000000 1.0
C      1  0.4677040000000  0.3899890000000  0.4837450000000 1.0
C      1  0.5092460000000  0.4273200000000  0.4236160000000 1.0
C      1  0.5086170000000  0.4763090000000  0.5429250000000 1.0
C      1  0.5012120000000  0.5263660000000  0.4548860000000 1.0
C      1  0.3950640000000  0.4897510000000  0.4552200000000 1.0
C      1  0.5885290000000  0.4551340000000  0.4902720000000 1.0
C      1  0.4958990000000  0.4775380000000  0.4908550000000 1.0
C      1  0.5270500000000  0.4319360000000  0.5216330000000 1.0
C      1  0.5590020000000  0.4245480000000  0.4603720000000 1.0
C      1  0.5262170000000  0.5136630000000  0.5008470000000 1.0
C      1  0.4306290000000  0.4574690000000  0.4720160000000 1.0
C      1  0.4237060000000  0.5666610000000  0.4983220000000 1.0
C      1  0.5271100000000  0.5854760000000  0.4975360000000 1.0
C      1  0.4937990000000  0.4740120000000  0.5187290000000 1.0
C      1  0.4986250000000  0.5345350000000  0.5366510000000 1.0
C      1  0.5130850000000  0.5469460000000  0.4389450000000 1.0
C      1  0.5217640000000  0.4902330000000  0.4827500000000 1.0
C      1  0.5097990000000  0.4536090000000  0.5595970000000 1.0
C      1  0.4650000000000  0.5837310000000  0.5147420000000 1.0
C      1  0.5263060000000  0.4976790000000  0.5454390000000 1.0
C      1  0.5834120000000  0.4309750000000  0.4756080000000 1.0
C      1  0.4070140000000  0.5706160000000  0.5455100000000 1.0
C      1  0.5357910000000  0.4229250000000  0.4770560000000 1.0
C      1  0.5322950000000  0.4420940000000  0.4207750000000 1.0
C      1  0.5148740000000  0.5392560000000  0.4114070000000 1.0
C      1  0.4326180000000  0.4191440000000  0.5022430000000 1.0
C      1  0.5436640000000  0.4703800000000  0.4867830000000 1.0
C      1  0.5074910000000  0.5492230000000  0.5595580000000 1.0
C      1  0.5124730000000  0.4074840000000  0.4852960000000 1.0
C      1  0.4695400000000  0.5649510000000  0.5839070000000 1.0
C      1  0.5547660000000  0.5554420000000  0.5389400000000 1.0
C      1  0.4926790000000  0.3915890000000  0.4731570000000 1.0
C      1  0.5622850000000  0.5525270000000  0.4892100000000 1.0
C      1  0.5187290000000  0.5035250000000  0.4563060000000 1.0
C      1  0.4444050000000  0.4539380000000  0.5431540000000 1.0
C      1  0.4348310000000  0.5009070000000  0.4848250000000 1.0
C      1  0.4897880000000  0.5453590000000  0.5817800000000 1.0
C      1  0.5044040000000  0.4160150000000  0.5128030000000 1.0
C      1  0.4573750000000  0.4060940000000  0.5047360000000 1.0
C      1  0.6000750000000  0.4690440000000  0.5128120000000 1.0
C      1  0.5206360000000  0.6112360000000  0.5008640000000 1.0
C      1  0.5840300000000  0.5195840000000  0.5207640000000 1.0
C      1  0.5192980000000  0.5180690000000  0.5271710000000 1.0
C      1  0.5292280000000  0.6182940000000  0.4398990000000 1.0
C      1  0.5783400000000  0.4279380000000  0.4160710000000 1.0
C      1  0.4064850000000  0.5671270000000  0.5189090000000 1.0
C      1  0.5677830000000  0.5432380000000  0.5165250000000 1.0
C      1  0.4653170000000  0.5528890000000  0.4763450000000 1.0
C      1  0.4791890000000  0.4923980000000  0.5896520000000 1.0
C      1  0.5234040000000  0.6363000000000  0.4589820000000 1.0
C      1  0.4580540000000  0.4579120000000  0.4632120000000 1.0
C      1  0.5953100000000  0.4947750000000  0.5214680000000 1.0
C      1  0.5800980000000  0.5440610000000  0.4689050000000 1.0
C      1  0.5170200000000  0.5163580000000  0.3969360000000 1.0
C      1  0.5808300000000  0.5203750000000  0.4540040000000 1.0
C      1  0.4532720000000  0.5784510000000  0.5652840000000 1.0
C      1  0.4578350000000  0.4398060000000  0.6347010000000 1.0
C      1  0.3731250000000  0.4961490000000  0.4418170000000 1.0
C      1  0.5320190000000  0.5917110000000  0.4384460000000 1.0
C      1  0.5289660000000  0.4357910000000  0.5493030000000 1.0
C      1  0.4621070000000  0.4516590000000  0.6119050000000 1.0
C      1  0.4717110000000  0.5275460000000  0.5327380000000 1.0
C      1  0.5340550000000  0.5588470000000  0.5562020000000 1.0
C      1  0.5843040000000  0.4967840000000  0.4683440000000 1.0
C      1  0.5192680000000  0.6331710000000  0.4854000000000 1.0
C      1  0.5399170000000  0.5029900000000  0.4379630000000 1.0
C      1  0.4854570000000  0.5185900000000  0.5907920000000 1.0
C      1  0.5639720000000  0.4989910000000  0.5836720000000 1.0
C      1  0.4754500000000  0.5283570000000  0.4670710000000 1.0
C      1  0.4649380000000  0.5879470000000  0.5412440000000 1.0
C      1  0.4676540000000  0.4356460000000  0.5438360000000 1.0
C      1  0.4178860000000  0.4833550000000  0.4692840000000 1.0
C      1  0.4837810000000  0.4455710000000  0.5670100000000 1.0
C      1  0.4252520000000  0.5754060000000  0.5646460000000 1.0
C      1  0.4671450000000  0.4647170000000  0.5858600000000 1.0
C      1  0.4609230000000  0.5046860000000  0.4728960000000 1.0
C      1  0.4770470000000  0.4181570000000  0.5224790000000 1.0
C      1  0.4362750000000  0.4936620000000  0.5130760000000 1.0
C      1  0.4746400000000  0.4791340000000  0.4724380000000 1.0
C      1  0.5565800000000  0.4316620000000  0.4324710000000 1.0
C      1  0.5376200000000  0.4444370000000  0.4977380000000 1.0
C      1  0.4334150000000  0.4651930000000  0.5195520000000 1.0
END
