TITL C-612604-1799-385 9.64139465956954e-05 125000 -503.973103233759 0 0 82 (C1) n - 1
REM
REM in /home/nfs/bkarasulu/CARBON/AIRSS/Generating-Clusters/TERSOFF/Only-C1/FIRE-HFTN
REM
REM
REM
REM
REM
REM ./C.cell (11c1c37f851c82e70ff6c80c92926a4b)
REM AIRSS Version 0.9.1 bugfix July 2018 build 013d7b7c2542+ Fri, 06 Jul 2018 19:26:36 +0100
REM compiler GCC version 9.2.1 20190827 (Red Hat 9.2.1-1)
REM options -cpp -mtune=generic -march=x86-64 -g -O0 -fpre-include=/usr/include/finclude/math-vector-fortran.h
REM seed 394936622 -48755115 -1909125602 1869699288 1188642453 -516418120 -215628050 674785461 -973892841 -368259858 1459202863 -517588785 1827599695 2012579232 -2756760 -765194518 -196078553 1948541932 -1772618187 -1809010120 357348567 -194081320 -1463465887 655961388 422057588 1786459501 -412843254 750939106 1118960108 -457489441 -30151880 -2118756699 1583258406
REM
CELL 1.54180   50.00000   50.00000   50.00000   90.00000   90.00000   90.00000
LATT -1
SFAC C  
C      1  0.4257390000000  0.5164270000000  0.4629320000000 1.0
C      1  0.5103780000000  0.5700580000000  0.4798290000000 1.0
C      1  0.5410510000000  0.4027530000000  0.4704210000000 1.0
C      1  0.5492090000000  0.4698420000000  0.5003380000000 1.0
C      1  0.5097780000000  0.5143290000000  0.5387930000000 1.0
C      1  0.4314750000000  0.4741600000000  0.4404000000000 1.0
C      1  0.4388700000000  0.4465760000000  0.4402450000000 1.0
C      1  0.4610010000000  0.5401120000000  0.4286060000000 1.0
C      1  0.5135970000000  0.5376150000000  0.5560470000000 1.0
C      1  0.5178210000000  0.4474170000000  0.5902300000000 1.0
C      1  0.5357430000000  0.5626660000000  0.5906380000000 1.0
C      1  0.4396370000000  0.5527270000000  0.4965190000000 1.0
C      1  0.5955640000000  0.4824670000000  0.5062680000000 1.0
C      1  0.5057040000000  0.5196050000000  0.4123960000000 1.0
C      1  0.5143460000000  0.5793440000000  0.5915020000000 1.0
C      1  0.4217030000000  0.4262960000000  0.4343700000000 1.0
C      1  0.5456140000000  0.5601210000000  0.5262960000000 1.0
C      1  0.5240750000000  0.5457010000000  0.4698910000000 1.0
C      1  0.5857320000000  0.5416330000000  0.5375250000000 1.0
C      1  0.5744340000000  0.4688140000000  0.4611430000000 1.0
C      1  0.5669910000000  0.4415020000000  0.4559860000000 1.0
C      1  0.5333690000000  0.5194380000000  0.4180130000000 1.0
C      1  0.5403380000000  0.5853600000000  0.5153090000000 1.0
C      1  0.4633460000000  0.5249950000000  0.5421120000000 1.0
C      1  0.4227720000000  0.5313750000000  0.4877080000000 1.0
C      1  0.5083670000000  0.5215810000000  0.4672960000000 1.0
C      1  0.4081130000000  0.5190250000000  0.5086640000000 1.0
C      1  0.4820070000000  0.4690370000000  0.4964800000000 1.0
C      1  0.5903620000000  0.5496290000000  0.5097180000000 1.0
C      1  0.4345260000000  0.4661370000000  0.5584460000000 1.0
C      1  0.4824570000000  0.5054330000000  0.5337330000000 1.0
C      1  0.4188270000000  0.4872880000000  0.4629560000000 1.0
C      1  0.5407280000000  0.4425290000000  0.4985230000000 1.0
C      1  0.4944580000000  0.4938320000000  0.4069940000000 1.0
C      1  0.4844550000000  0.5695100000000  0.4913750000000 1.0
C      1  0.5976270000000  0.5169180000000  0.5438810000000 1.0
C      1  0.4705280000000  0.5521790000000  0.5362680000000 1.0
C      1  0.4962460000000  0.4278850000000  0.5143140000000 1.0
C      1  0.5494670000000  0.5415650000000  0.4829190000000 1.0
C      1  0.4861550000000  0.5395500000000  0.4181330000000 1.0
C      1  0.4927550000000  0.5588800000000  0.5536900000000 1.0
C      1  0.4169420000000  0.4850840000000  0.5474300000000 1.0
C      1  0.4267130000000  0.4518080000000  0.4998150000000 1.0
C      1  0.4402770000000  0.4416680000000  0.5447110000000 1.0
C      1  0.4493150000000  0.4717030000000  0.5815780000000 1.0
C      1  0.4664400000000  0.4426180000000  0.4464740000000 1.0
C      1  0.5606500000000  0.5511920000000  0.5491810000000 1.0
C      1  0.4386890000000  0.4175240000000  0.5574440000000 1.0
C      1  0.5405940000000  0.5371260000000  0.5102240000000 1.0
C      1  0.4745200000000  0.4447190000000  0.5086110000000 1.0
C      1  0.6022090000000  0.4951000000000  0.5288860000000 1.0
C      1  0.4076760000000  0.5033360000000  0.5303030000000 1.0
C      1  0.4437640000000  0.5202410000000  0.4391930000000 1.0
C      1  0.4962600000000  0.4600600000000  0.5993290000000 1.0
C      1  0.5273470000000  0.5895800000000  0.4918910000000 1.0
C      1  0.5693220000000  0.4890430000000  0.4421140000000 1.0
C      1  0.5311970000000  0.4355490000000  0.5705370000000 1.0
C      1  0.4750130000000  0.4934270000000  0.5090460000000 1.0
C      1  0.4714990000000  0.4691850000000  0.5960220000000 1.0
C      1  0.4999170000000  0.4800370000000  0.3841130000000 1.0
C      1  0.4640490000000  0.5610080000000  0.5091770000000 1.0
C      1  0.5765530000000  0.4283560000000  0.4339610000000 1.0
C      1  0.5160210000000  0.4944340000000  0.4747050000000 1.0
C      1  0.4807380000000  0.5249350000000  0.4711270000000 1.0
C      1  0.4933690000000  0.5805280000000  0.5723760000000 1.0
C      1  0.4770990000000  0.4841150000000  0.4268920000000 1.0
C      1  0.5772520000000  0.5475950000000  0.4855720000000 1.0
C      1  0.4500660000000  0.4932690000000  0.4293210000000 1.0
C      1  0.5335040000000  0.4288000000000  0.5449080000000 1.0
C      1  0.4665280000000  0.5122590000000  0.4899520000000 1.0
C      1  0.5395360000000  0.5455790000000  0.5683270000000 1.0
C      1  0.5314220000000  0.4915700000000  0.4989540000000 1.0
C      1  0.4472450000000  0.4433120000000  0.5171680000000 1.0
C      1  0.5547420000000  0.5065860000000  0.4280080000000 1.0
C      1  0.4843690000000  0.4648110000000  0.4470530000000 1.0
C      1  0.5240630000000  0.4310850000000  0.5186230000000 1.0
C      1  0.5750560000000  0.4748010000000  0.4890430000000 1.0
C      1  0.5289520000000  0.5125160000000  0.5178020000000 1.0
C      1  0.4146290000000  0.4704530000000  0.4849530000000 1.0
C      1  0.5494720000000  0.4284630000000  0.4749460000000 1.0
C      1  0.4753420000000  0.6009790000000  0.5718190000000 1.0
C      1  0.4962820000000  0.4732360000000  0.4715000000000 1.0
END
