TITL C-612606-7351-1060 -0.00274090246338284 125000 -726.245308357588 0 0 120 (C1) n - 1
REM
REM in /home/nfs/bkarasulu/CARBON/AIRSS/Generating-Clusters/TERSOFF/Only-C1/FIRE-HFTN
REM
REM
REM
REM
REM
REM ./C.cell (11c1c37f851c82e70ff6c80c92926a4b)
REM AIRSS Version 0.9.1 bugfix July 2018 build 013d7b7c2542+ Fri, 06 Jul 2018 19:26:36 +0100
REM compiler GCC version 9.2.1 20190827 (Red Hat 9.2.1-1)
REM options -cpp -mtune=generic -march=x86-64 -g -O0 -fpre-include=/usr/include/finclude/math-vector-fortran.h
REM seed 2003056030 -1776548130 562853063 779161578 2040333057 1620185797 -1295862210 593014188 -835944578 -228186260 1809655870 -1548979937 -804875437 1988561641 1706158375 943457707 1473905883 1634587347 -304256466 -1134762522 815389625 100603730 366164958 1314764314 658691317 -1853087215 -892762151 1211921737 -1555459891 490937861 -2036303566 -396595064 -1278104315
REM
CELL 1.54180   50.00000   50.00000   50.00000   90.00000   90.00000   90.00000
LATT -1
SFAC C  
C      1  0.4932550000000  0.4592450000000  0.4666240000000 1.0
C      1  0.4405390000000  0.4578650000000  0.4068840000000 1.0
C      1  0.5345140000000  0.4865810000000  0.4097460000000 1.0
C      1  0.4837820000000  0.4038800000000  0.5177490000000 1.0
C      1  0.5651000000000  0.4468370000000  0.4592040000000 1.0
C      1  0.4626820000000  0.6007640000000  0.5157770000000 1.0
C      1  0.5491040000000  0.5207650000000  0.4401930000000 1.0
C      1  0.5892080000000  0.5617940000000  0.5028720000000 1.0
C      1  0.5106880000000  0.4721930000000  0.5777720000000 1.0
C      1  0.4893290000000  0.6011310000000  0.5058520000000 1.0
C      1  0.4569110000000  0.4871010000000  0.5069740000000 1.0
C      1  0.4875890000000  0.5883930000000  0.4788900000000 1.0
C      1  0.5270760000000  0.5167660000000  0.4618530000000 1.0
C      1  0.5473300000000  0.4825810000000  0.4866080000000 1.0
C      1  0.3702320000000  0.5520860000000  0.5461680000000 1.0
C      1  0.5051130000000  0.5029810000000  0.4457100000000 1.0
C      1  0.4754410000000  0.5098200000000  0.4435040000000 1.0
C      1  0.5228370000000  0.4310370000000  0.5464790000000 1.0
C      1  0.5990370000000  0.4754940000000  0.5571340000000 1.0
C      1  0.4416610000000  0.4149430000000  0.4651710000000 1.0
C      1  0.5607380000000  0.4599410000000  0.5313350000000 1.0
C      1  0.5087320000000  0.4553360000000  0.5550720000000 1.0
C      1  0.4907200000000  0.5524880000000  0.4214480000000 1.0
C      1  0.5572110000000  0.5618260000000  0.4632000000000 1.0
C      1  0.4300630000000  0.4529320000000  0.5631160000000 1.0
C      1  0.4436430000000  0.5083160000000  0.5584350000000 1.0
C      1  0.5518810000000  0.4328240000000  0.5373220000000 1.0
C      1  0.4975270000000  0.4626910000000  0.4941180000000 1.0
C      1  0.5447420000000  0.5105620000000  0.4851970000000 1.0
C      1  0.5860940000000  0.4729910000000  0.5332040000000 1.0
C      1  0.5211770000000  0.4501260000000  0.5034430000000 1.0
C      1  0.4781800000000  0.5093260000000  0.6154630000000 1.0
C      1  0.5943300000000  0.5273410000000  0.4694660000000 1.0
C      1  0.5245940000000  0.5474340000000  0.5695680000000 1.0
C      1  0.5975880000000  0.4831470000000  0.5091170000000 1.0
C      1  0.5845940000000  0.4296210000000  0.4995010000000 1.0
C      1  0.5948130000000  0.4772480000000  0.4811650000000 1.0
C      1  0.5052930000000  0.5141770000000  0.3822200000000 1.0
C      1  0.5428840000000  0.4633610000000  0.4644980000000 1.0
C      1  0.5725050000000  0.3893690000000  0.5254630000000 1.0
C      1  0.4213840000000  0.4964520000000  0.5464680000000 1.0
C      1  0.3959550000000  0.5420250000000  0.5423830000000 1.0
C      1  0.4612220000000  0.5735210000000  0.4773890000000 1.0
C      1  0.5107670000000  0.3892090000000  0.4049470000000 1.0
C      1  0.4390880000000  0.4817700000000  0.4217260000000 1.0
C      1  0.5175770000000  0.4610990000000  0.4509140000000 1.0
C      1  0.3463120000000  0.5618250000000  0.5496590000000 1.0
C      1  0.4660350000000  0.4607440000000  0.4582720000000 1.0
C      1  0.4989400000000  0.5174280000000  0.5980670000000 1.0
C      1  0.4480380000000  0.4411700000000  0.5022200000000 1.0
C      1  0.4574560000000  0.4135240000000  0.5096350000000 1.0
C      1  0.5621000000000  0.4829770000000  0.4177300000000 1.0
C      1  0.5361260000000  0.5335560000000  0.4173470000000 1.0
C      1  0.4848530000000  0.4807060000000  0.5141740000000 1.0
C      1  0.5126750000000  0.4043840000000  0.4778400000000 1.0
C      1  0.5386050000000  0.5890650000000  0.5116120000000 1.0
C      1  0.4307310000000  0.5499000000000  0.4435950000000 1.0
C      1  0.5381140000000  0.5600860000000  0.5122800000000 1.0
C      1  0.4866180000000  0.4628250000000  0.5388180000000 1.0
C      1  0.4825740000000  0.4501220000000  0.6118910000000 1.0
C      1  0.5070190000000  0.4037950000000  0.4503380000000 1.0
C      1  0.4461330000000  0.5822400000000  0.5012870000000 1.0
C      1  0.4975510000000  0.4042270000000  0.4237360000000 1.0
C      1  0.5705270000000  0.5001920000000  0.4391430000000 1.0
C      1  0.4651820000000  0.5255520000000  0.5582510000000 1.0
C      1  0.4226510000000  0.5046870000000  0.4196310000000 1.0
C      1  0.5323010000000  0.6087880000000  0.4688920000000 1.0
C      1  0.4202250000000  0.5302090000000  0.4281900000000 1.0
C      1  0.4182620000000  0.5597860000000  0.5401200000000 1.0
C      1  0.5009930000000  0.5042970000000  0.5216680000000 1.0
C      1  0.4595130000000  0.4834390000000  0.4416510000000 1.0
C      1  0.4558980000000  0.4357450000000  0.4066150000000 1.0
C      1  0.4802100000000  0.5166190000000  0.3924460000000 1.0
C      1  0.4004980000000  0.5141570000000  0.5408510000000 1.0
C      1  0.4966560000000  0.3899910000000  0.4961160000000 1.0
C      1  0.5864130000000  0.4489600000000  0.4777460000000 1.0
C      1  0.5891970000000  0.4999400000000  0.4616320000000 1.0
C      1  0.5498990000000  0.5357590000000  0.5605740000000 1.0
C      1  0.5723220000000  0.5507030000000  0.5513280000000 1.0
C      1  0.4623470000000  0.5242120000000  0.4673260000000 1.0
C      1  0.5458100000000  0.5103320000000  0.5473890000000 1.0
C      1  0.5120490000000  0.5891910000000  0.4639280000000 1.0
C      1  0.4578200000000  0.4634050000000  0.6078610000000 1.0
C      1  0.5029530000000  0.5000790000000  0.5745750000000 1.0
C      1  0.5135800000000  0.6007840000000  0.5202880000000 1.0
C      1  0.4370940000000  0.5635870000000  0.5611540000000 1.0
C      1  0.4455790000000  0.3983160000000  0.4871710000000 1.0
C      1  0.4251120000000  0.5701450000000  0.5148660000000 1.0
C      1  0.5490640000000  0.6046770000000  0.4901920000000 1.0
C      1  0.5501270000000  0.5343000000000  0.5018080000000 1.0
C      1  0.4779330000000  0.5847250000000  0.6023350000000 1.0
C      1  0.5029290000000  0.4115860000000  0.5378770000000 1.0
C      1  0.5153930000000  0.4803370000000  0.4303190000000 1.0
C      1  0.5862990000000  0.5591520000000  0.5297070000000 1.0
C      1  0.4588550000000  0.4904490000000  0.6164570000000 1.0
C      1  0.5117720000000  0.5394910000000  0.4742940000000 1.0
C      1  0.5063740000000  0.4586150000000  0.6022110000000 1.0
C      1  0.5243770000000  0.5629350000000  0.4569370000000 1.0
C      1  0.5071700000000  0.5437940000000  0.5465030000000 1.0
C      1  0.4751960000000  0.4194210000000  0.4154950000000 1.0
C      1  0.5697710000000  0.4162180000000  0.5208720000000 1.0
C      1  0.4519620000000  0.5507720000000  0.4626010000000 1.0
C      1  0.4612360000000  0.5515970000000  0.5697980000000 1.0
C      1  0.5051110000000  0.5449520000000  0.5915560000000 1.0
C      1  0.5288050000000  0.5128290000000  0.3978810000000 1.0
C      1  0.4399540000000  0.4539600000000  0.5881510000000 1.0
C      1  0.4483700000000  0.4424730000000  0.4718040000000 1.0
C      1  0.4925770000000  0.5167180000000  0.5493530000000 1.0
C      1  0.5268150000000  0.4253120000000  0.4907070000000 1.0
C      1  0.5118480000000  0.5511310000000  0.5199870000000 1.0
C      1  0.4811370000000  0.5614220000000  0.5884000000000 1.0
C      1  0.4403050000000  0.4651040000000  0.5154120000000 1.0
C      1  0.5023850000000  0.5333450000000  0.5005280000000 1.0
C      1  0.5298300000000  0.4957530000000  0.5284310000000 1.0
C      1  0.4262280000000  0.4690220000000  0.5400390000000 1.0
C      1  0.4761240000000  0.5279530000000  0.4182280000000 1.0
C      1  0.5819490000000  0.5523920000000  0.4766290000000 1.0
C      1  0.4534760000000  0.5086620000000  0.4893820000000 1.0
C      1  0.5185070000000  0.5545110000000  0.4276260000000 1.0
C      1  0.5404180000000  0.4715560000000  0.5132300000000 1.0
END
