TITL C-612603-7354-705 -2.06065016388846e-05 125000 -690.814583804785 0 0 111 (C1) n - 1
REM
REM in /home/nfs/bkarasulu/CARBON/AIRSS/Generating-Clusters/TERSOFF/Only-C1/FIRE-HFTN
REM
REM
REM
REM
REM
REM ./C.cell (11c1c37f851c82e70ff6c80c92926a4b)
REM AIRSS Version 0.9.1 bugfix July 2018 build 013d7b7c2542+ Fri, 06 Jul 2018 19:26:36 +0100
REM compiler GCC version 9.2.1 20190827 (Red Hat 9.2.1-1)
REM options -cpp -mtune=generic -march=x86-64 -g -O0 -fpre-include=/usr/include/finclude/math-vector-fortran.h
REM seed 283885573 1066314075 -663002251 -2091684460 -383067369 401731812 -1005089897 -168503692 -1934403277 -767204022 -1665151737 -537216255 -1706229141 -322281641 1340808633 1534298421 -96130650 1627103845 -24865817 2014932558 -1210001647 -937123805 1890238219 253481498 1009856953 191308680 -609717989 1420019363 -1990198407 -32184596 -1280329417 -776612956 924727972
REM
CELL 1.54180   50.00000   50.00000   50.00000   90.00000   90.00000   90.00000
LATT -1
SFAC C  
C      1  0.4664940000000  0.5046050000000  0.4078330000000 1.0
C      1  0.5298490000000  0.4534190000000  0.4426730000000 1.0
C      1  0.4754600000000  0.5782650000000  0.5073950000000 1.0
C      1  0.4343360000000  0.4785450000000  0.6134620000000 1.0
C      1  0.4732110000000  0.4967090000000  0.5383640000000 1.0
C      1  0.5511480000000  0.5536160000000  0.5309530000000 1.0
C      1  0.5191620000000  0.5492160000000  0.5989070000000 1.0
C      1  0.4961200000000  0.4128190000000  0.5227540000000 1.0
C      1  0.5665440000000  0.5348310000000  0.5874400000000 1.0
C      1  0.5160410000000  0.5131780000000  0.3992570000000 1.0
C      1  0.5206100000000  0.4161710000000  0.4066270000000 1.0
C      1  0.4934800000000  0.5356310000000  0.4341190000000 1.0
C      1  0.4462790000000  0.4607480000000  0.5491690000000 1.0
C      1  0.5459240000000  0.4886640000000  0.5255800000000 1.0
C      1  0.4725290000000  0.4091820000000  0.4067660000000 1.0
C      1  0.5105840000000  0.5388310000000  0.4120960000000 1.0
C      1  0.5548160000000  0.4909560000000  0.4232550000000 1.0
C      1  0.5267420000000  0.4527510000000  0.5683360000000 1.0
C      1  0.5091690000000  0.5676840000000  0.5780880000000 1.0
C      1  0.4711540000000  0.5525260000000  0.4375290000000 1.0
C      1  0.4345550000000  0.5907210000000  0.5260500000000 1.0
C      1  0.4992520000000  0.4162410000000  0.5506770000000 1.0
C      1  0.5373360000000  0.4800390000000  0.5718070000000 1.0
C      1  0.4355030000000  0.5590340000000  0.4876760000000 1.0
C      1  0.5321760000000  0.5015720000000  0.5898260000000 1.0
C      1  0.5894960000000  0.5601990000000  0.4970740000000 1.0
C      1  0.4433320000000  0.4903830000000  0.5441970000000 1.0
C      1  0.4176580000000  0.4786240000000  0.4617910000000 1.0
C      1  0.4743840000000  0.4274900000000  0.5129720000000 1.0
C      1  0.5431400000000  0.4086890000000  0.5158250000000 1.0
C      1  0.5568890000000  0.5375760000000  0.4093910000000 1.0
C      1  0.5386040000000  0.4856890000000  0.4993630000000 1.0
C      1  0.5267040000000  0.4431300000000  0.4690790000000 1.0
C      1  0.4989340000000  0.3915170000000  0.4410590000000 1.0
C      1  0.4462890000000  0.5385710000000  0.4401850000000 1.0
C      1  0.4905460000000  0.4105380000000  0.4609960000000 1.0
C      1  0.3923330000000  0.4671400000000  0.5113130000000 1.0
C      1  0.4970210000000  0.5373530000000  0.6131130000000 1.0
C      1  0.3797410000000  0.4823270000000  0.4927370000000 1.0
C      1  0.5395880000000  0.5294620000000  0.5935310000000 1.0
C      1  0.3916130000000  0.4876420000000  0.4689650000000 1.0
C      1  0.4772580000000  0.5789610000000  0.4450840000000 1.0
C      1  0.4927060000000  0.4758320000000  0.3784570000000 1.0
C      1  0.4752380000000  0.4574010000000  0.5623490000000 1.0
C      1  0.4575910000000  0.4205040000000  0.4265160000000 1.0
C      1  0.6036940000000  0.4910580000000  0.5376820000000 1.0
C      1  0.4460960000000  0.5119320000000  0.4275150000000 1.0
C      1  0.4127600000000  0.4879240000000  0.6003870000000 1.0
C      1  0.4701430000000  0.5021890000000  0.4907960000000 1.0
C      1  0.5840330000000  0.5209240000000  0.5724060000000 1.0
C      1  0.4181060000000  0.4559830000000  0.5073010000000 1.0
C      1  0.4608580000000  0.4809920000000  0.6096650000000 1.0
C      1  0.4754430000000  0.4815150000000  0.5108020000000 1.0
C      1  0.5288570000000  0.5345110000000  0.4938740000000 1.0
C      1  0.4477110000000  0.4396760000000  0.4695640000000 1.0
C      1  0.5119450000000  0.4201500000000  0.4775260000000 1.0
C      1  0.5271850000000  0.5415640000000  0.5220250000000 1.0
C      1  0.4778750000000  0.5240680000000  0.5969080000000 1.0
C      1  0.5821840000000  0.4990620000000  0.5546840000000 1.0
C      1  0.5237250000000  0.5763010000000  0.4580950000000 1.0
C      1  0.5344020000000  0.4814930000000  0.4406520000000 1.0
C      1  0.5223430000000  0.5015590000000  0.4570560000000 1.0
C      1  0.4332560000000  0.4445460000000  0.5289830000000 1.0
C      1  0.5808670000000  0.5436940000000  0.4225120000000 1.0
C      1  0.6013860000000  0.4920540000000  0.5095430000000 1.0
C      1  0.4822440000000  0.5230400000000  0.5283040000000 1.0
C      1  0.4440840000000  0.5345030000000  0.5636900000000 1.0
C      1  0.5928500000000  0.5509300000000  0.4453030000000 1.0
C      1  0.5745300000000  0.5598160000000  0.5192330000000 1.0
C      1  0.5312720000000  0.5078870000000  0.4835070000000 1.0
C      1  0.5953080000000  0.5567620000000  0.4712400000000 1.0
C      1  0.5807950000000  0.4885170000000  0.4339640000000 1.0
C      1  0.4650890000000  0.4238640000000  0.4540770000000 1.0
C      1  0.4979060000000  0.5874280000000  0.4626450000000 1.0
C      1  0.4935380000000  0.5502090000000  0.5611900000000 1.0
C      1  0.4699550000000  0.5394790000000  0.5739550000000 1.0
C      1  0.4985890000000  0.4001310000000  0.4137230000000 1.0
C      1  0.5948250000000  0.4881910000000  0.4568230000000 1.0
C      1  0.5033480000000  0.5387440000000  0.5375250000000 1.0
C      1  0.4770720000000  0.4961790000000  0.5921730000000 1.0
C      1  0.5368870000000  0.4599090000000  0.4890290000000 1.0
C      1  0.4797230000000  0.4545580000000  0.5063540000000 1.0
C      1  0.4762010000000  0.5002950000000  0.4639970000000 1.0
C      1  0.4909520000000  0.5928430000000  0.4892300000000 1.0
C      1  0.4707240000000  0.5283160000000  0.5028810000000 1.0
C      1  0.5342090000000  0.5549840000000  0.4138190000000 1.0
C      1  0.4482790000000  0.4219160000000  0.5215140000000 1.0
C      1  0.5310100000000  0.4369920000000  0.4199920000000 1.0
C      1  0.4792910000000  0.5990440000000  0.5522320000000 1.0
C      1  0.5317960000000  0.5563310000000  0.4761990000000 1.0
C      1  0.4994210000000  0.4415460000000  0.5639960000000 1.0
C      1  0.4310660000000  0.4915390000000  0.4405360000000 1.0
C      1  0.4101150000000  0.5020000000000  0.5775630000000 1.0
C      1  0.4830780000000  0.4860690000000  0.5655990000000 1.0
C      1  0.4285930000000  0.4580190000000  0.4795820000000 1.0
C      1  0.5469900000000  0.4342900000000  0.5594600000000 1.0
C      1  0.5561800000000  0.4877460000000  0.5512220000000 1.0
C      1  0.4630600000000  0.5910350000000  0.5301390000000 1.0
C      1  0.4990230000000  0.5934970000000  0.5705680000000 1.0
C      1  0.4622370000000  0.5543090000000  0.4975360000000 1.0
C      1  0.6003490000000  0.4898430000000  0.4829350000000 1.0
C      1  0.6269600000000  0.4819220000000  0.5489400000000 1.0
C      1  0.4918700000000  0.4977190000000  0.3950340000000 1.0
C      1  0.5536000000000  0.4187520000000  0.5385290000000 1.0
C      1  0.5457200000000  0.5106120000000  0.4045770000000 1.0
C      1  0.4302040000000  0.5478120000000  0.4620570000000 1.0
C      1  0.4293390000000  0.5105380000000  0.5587810000000 1.0
C      1  0.4221130000000  0.5771860000000  0.5053940000000 1.0
C      1  0.5345000000000  0.5761390000000  0.4321200000000 1.0
C      1  0.5174890000000  0.4100520000000  0.5040850000000 1.0
C      1  0.4972110000000  0.5123280000000  0.4501340000000 1.0
END
