TITL C-612601-4209-699 -261930.369654395 125000 -1163.2198746662 0 0 189 (C1) n - 1
REM
REM in /home/nfs/bkarasulu/CARBON/AIRSS/Generating-Clusters/TERSOFF/Only-C1/FIRE-HFTN
REM
REM
REM
REM
REM
REM ./C.cell (11c1c37f851c82e70ff6c80c92926a4b)
REM AIRSS Version 0.9.1 bugfix July 2018 build 013d7b7c2542+ Fri, 06 Jul 2018 19:26:36 +0100
REM compiler GCC version 9.2.1 20190827 (Red Hat 9.2.1-1)
REM options -cpp -mtune=generic -march=x86-64 -g -O0 -fpre-include=/usr/include/finclude/math-vector-fortran.h
REM seed 2146418785 -2075501558 -1501909694 66347957 -228276178 1484048822 1328817468 -1043223997 2134841393 -939599860 -1655422146 1376426179 -669478033 1416952877 1642943026 -1215726021 490158488 512464351 -1938846201 -832798026 -348305964 1811441632 -1218731473 1225035959 495878247 -1775515909 1040463694 -1608390175 -325996215 1545747390 1805136550 1252527865 694552125
REM
CELL 1.54180   50.00000   50.00000   50.00000   90.00000   90.00000   90.00000
LATT -1
SFAC C  
C      1  0.4154690000000  0.4100050000000  0.5463790000000 1.0
C      1  0.4740290000000  0.4271230000000  0.4983870000000 1.0
C      1  0.5714200000000  0.4900920000000  0.4402900000000 1.0
C      1  0.4407790000000  0.5166610000000  0.4105900000000 1.0
C      1  0.4779500000000  0.5105750000000  0.5048390000000 1.0
C      1  0.4509260000000  0.4199380000000  0.4831720000000 1.0
C      1  0.4490990000000  0.5035850000000  0.3864680000000 1.0
C      1  0.5547090000000  0.3650880000000  0.6017270000000 1.0
C      1  0.3987270000000  0.4486700000000  0.6001170000000 1.0
C      1  0.5833200000000  0.5306180000000  0.6089840000000 1.0
C      1  0.5799000000000  0.4609560000000  0.5147170000000 1.0
C      1  0.3693350000000  0.5147120000000  0.5142040000000 1.0
C      1  0.5569370000000  0.4463950000000  0.3968880000000 1.0
C      1  0.5639810000000  0.5992920000000  0.5327180000000 1.0
C      1  0.5612260000000  0.5237100000000  0.5930650000000 1.0
C      1  0.4690440000000  0.5461550000000  0.6093270000000 1.0
C      1  0.3823010000000  0.5350430000000  0.5603390000000 1.0
C      1  0.5553990000000  0.4564640000000  0.5270890000000 1.0
C      1  0.3953800000000  0.4780510000000  0.4934780000000 1.0
C      1  0.4193090000000  0.5050580000000  0.4267060000000 1.0
C      1  0.4668470000000  0.5657720000000  0.5472010000000 1.0
C      1  0.3657980000000  0.5337850000000  0.5366670000000 1.0
C      1  0.3707520000000  0.4429610000000  0.4357760000000 1.0
C      1  0.5488720000000  0.5402770000000  0.5529100000000 1.0
C      1  0.5216050000000  0.4376310000000  0.4992950000000 1.0
C      1  0.5513600000000  0.4268130000000  0.4394720000000 1.0
C      1  0.5983560000000  0.3951770000000  0.4888220000000 1.0
C      1  0.6371050000000  0.4164540000000  0.5081880000000 1.0
C      1  0.4258570000000  0.5420340000000  0.4900810000000 1.0
C      1  0.4022230000000  0.4153800000000  0.5239160000000 1.0
C      1  0.3706100000000  0.5288480000000  0.4871860000000 1.0
C      1  0.5990490000000  0.4789670000000  0.5102420000000 1.0
C      1  0.5381320000000  0.5946500000000  0.4635240000000 1.0
C      1  0.4764920000000  0.5106410000000  0.5702640000000 1.0
C      1  0.5651730000000  0.5992240000000  0.5620360000000 1.0
C      1  0.6201870000000  0.4334070000000  0.4662480000000 1.0
C      1  0.5476670000000  0.3893980000000  0.5954730000000 1.0
C      1  0.6405550000000  0.5489290000000  0.4201930000000 1.0
C      1  0.6125160000000  0.5877910000000  0.4462060000000 1.0
C      1  0.4794130000000  0.4583020000000  0.3790700000000 1.0
C      1  0.4959780000000  0.4424770000000  0.4892850000000 1.0
C      1  0.5624270000000  0.4533790000000  0.5779560000000 1.0
C      1  0.4138920000000  0.4286830000000  0.5907840000000 1.0
C      1  0.6333070000000  0.5001750000000  0.4248350000000 1.0
C      1  0.4523550000000  0.5599680000000  0.5932570000000 1.0
C      1  0.6529830000000  0.4199660000000  0.5285580000000 1.0
C      1  0.5156920000000  0.5557930000000  0.4838910000000 1.0
C      1  0.5292290000000  0.5313990000000  0.4857740000000 1.0
C      1  0.5218690000000  0.6099730000000  0.5491300000000 1.0
C      1  0.5484180000000  0.5467520000000  0.5802000000000 1.0
C      1  0.5868710000000  0.5937890000000  0.5788070000000 1.0
C      1  0.6323100000000  0.4763670000000  0.4369910000000 1.0
C      1  0.3929700000000  0.4302830000000  0.5039310000000 1.0
C      1  0.5102940000000  0.4871120000000  0.4354800000000 1.0
C      1  0.5068270000000  0.4810760000000  0.6134560000000 1.0
C      1  0.4458150000000  0.5686630000000  0.5670610000000 1.0
C      1  0.5823650000000  0.5357100000000  0.4579110000000 1.0
C      1  0.4414150000000  0.4645650000000  0.4905080000000 1.0
C      1  0.5073590000000  0.5762980000000  0.5047010000000 1.0
C      1  0.4325980000000  0.5016760000000  0.5975220000000 1.0
C      1  0.5413730000000  0.5574660000000  0.5331680000000 1.0
C      1  0.5380470000000  0.6103440000000  0.5230500000000 1.0
C      1  0.4106160000000  0.5542350000000  0.4461340000000 1.0
C      1  0.3792170000000  0.4462220000000  0.4602060000000 1.0
C      1  0.4526170000000  0.3945160000000  0.4715590000000 1.0
C      1  0.5196880000000  0.5956090000000  0.4397080000000 1.0
C      1  0.5033970000000  0.5087700000000  0.6148960000000 1.0
C      1  0.5701970000000  0.5146450000000  0.5201340000000 1.0
C      1  0.4695720000000  0.4369840000000  0.3648310000000 1.0
C      1  0.5253020000000  0.3895130000000  0.4776740000000 1.0
C      1  0.3899950000000  0.5736670000000  0.4907550000000 1.0
C      1  0.4361910000000  0.5665700000000  0.4394500000000 1.0
C      1  0.3957040000000  0.5593790000000  0.5673990000000 1.0
C      1  0.3930290000000  0.4748640000000  0.5989570000000 1.0
C      1  0.4638200000000  0.5163000000000  0.4311700000000 1.0
C      1  0.4967330000000  0.5605040000000  0.4635610000000 1.0
C      1  0.5233840000000  0.4779130000000  0.3927720000000 1.0
C      1  0.4016200000000  0.5258960000000  0.4410750000000 1.0
C      1  0.4826210000000  0.3724780000000  0.5013260000000 1.0
C      1  0.4182360000000  0.5747330000000  0.5585410000000 1.0
C      1  0.4189800000000  0.5107290000000  0.5466000000000 1.0
C      1  0.4583060000000  0.5240980000000  0.4609290000000 1.0
C      1  0.5039780000000  0.4273730000000  0.5435900000000 1.0
C      1  0.5531170000000  0.4285900000000  0.5667420000000 1.0
C      1  0.3896400000000  0.4513090000000  0.4856240000000 1.0
C      1  0.5189050000000  0.4940430000000  0.5202220000000 1.0
C      1  0.5587750000000  0.5015460000000  0.5734310000000 1.0
C      1  0.5629270000000  0.5726990000000  0.5224700000000 1.0
C      1  0.4391470000000  0.4430880000000  0.4722940000000 1.0
C      1  0.5608850000000  0.5151870000000  0.5470560000000 1.0
C      1  0.5386830000000  0.4144390000000  0.5869410000000 1.0
C      1  0.5577940000000  0.5433430000000  0.4175670000000 1.0
C      1  0.5748610000000  0.3828960000000  0.4849470000000 1.0
C      1  0.5351560000000  0.4177140000000  0.5157670000000 1.0
C      1  0.4961690000000  0.5375480000000  0.6121900000000 1.0
C      1  0.5512900000000  0.4771890000000  0.4554470000000 1.0
C      1  0.5521330000000  0.4743490000000  0.3955260000000 1.0
C      1  0.4967190000000  0.6224370000000  0.5478660000000 1.0
C      1  0.4927200000000  0.4187070000000  0.4336350000000 1.0
C      1  0.5184050000000  0.5705110000000  0.4237550000000 1.0
C      1  0.5136140000000  0.5630530000000  0.5308180000000 1.0
C      1  0.4721650000000  0.5702200000000  0.4737660000000 1.0
C      1  0.5986200000000  0.5770770000000  0.5961010000000 1.0
C      1  0.6255960000000  0.5252820000000  0.4143730000000 1.0
C      1  0.4376140000000  0.4748280000000  0.4353230000000 1.0
C      1  0.4929730000000  0.4007720000000  0.5450470000000 1.0
C      1  0.4782380000000  0.6251260000000  0.5284940000000 1.0
C      1  0.3793990000000  0.4885840000000  0.5143930000000 1.0
C      1  0.4714220000000  0.6109370000000  0.5065300000000 1.0
C      1  0.5217030000000  0.4696140000000  0.5588690000000 1.0
C      1  0.6263490000000  0.4541270000000  0.4505450000000 1.0
C      1  0.5967010000000  0.5065910000000  0.5140550000000 1.0
C      1  0.4391590000000  0.5464810000000  0.5139920000000 1.0
C      1  0.4229360000000  0.4657630000000  0.5525750000000 1.0
C      1  0.5522630000000  0.3866250000000  0.4685480000000 1.0
C      1  0.4964550000000  0.5564810000000  0.4364160000000 1.0
C      1  0.5111160000000  0.4326980000000  0.4124790000000 1.0
C      1  0.5235720000000  0.3931130000000  0.5070950000000 1.0
C      1  0.3669850000000  0.5574430000000  0.4954030000000 1.0
C      1  0.4677010000000  0.4505320000000  0.5579650000000 1.0
C      1  0.5148590000000  0.4982030000000  0.4099500000000 1.0
C      1  0.5309930000000  0.5480640000000  0.4099330000000 1.0
C      1  0.4582120000000  0.5664540000000  0.5199170000000 1.0
C      1  0.4924250000000  0.5521290000000  0.5473790000000 1.0
C      1  0.4641060000000  0.4860860000000  0.4353070000000 1.0
C      1  0.5271920000000  0.4922320000000  0.4570810000000 1.0
C      1  0.4645830000000  0.4297800000000  0.4332470000000 1.0
C      1  0.5735050000000  0.5220750000000  0.4051810000000 1.0
C      1  0.4772580000000  0.4038600000000  0.5699930000000 1.0
C      1  0.5144970000000  0.4259600000000  0.5988800000000 1.0
C      1  0.4873590000000  0.4740780000000  0.4440800000000 1.0
C      1  0.5136370000000  0.5110340000000  0.4734690000000 1.0
C      1  0.6184380000000  0.4148330000000  0.4873890000000 1.0
C      1  0.5327300000000  0.5698360000000  0.5876820000000 1.0
C      1  0.4779170000000  0.3820590000000  0.4742260000000 1.0
C      1  0.3569000000000  0.5574320000000  0.5225100000000 1.0
C      1  0.4053400000000  0.4985480000000  0.5901270000000 1.0
C      1  0.4321650000000  0.5159950000000  0.4772860000000 1.0
C      1  0.4905830000000  0.5234360000000  0.5496760000000 1.0
C      1  0.5632620000000  0.5809380000000  0.4557340000000 1.0
C      1  0.6668340000000  0.5504460000000  0.4124080000000 1.0
C      1  0.5528360000000  0.4491270000000  0.4565530000000 1.0
C      1  0.4974390000000  0.4525880000000  0.5560490000000 1.0
C      1  0.5007210000000  0.3953380000000  0.4599150000000 1.0
C      1  0.4871160000000  0.5336020000000  0.4221580000000 1.0
C      1  0.5401720000000  0.4309580000000  0.4141790000000 1.0
C      1  0.5882670000000  0.5942860000000  0.4558090000000 1.0
C      1  0.5332520000000  0.4738780000000  0.5323290000000 1.0
C      1  0.5368090000000  0.5947280000000  0.5710630000000 1.0
C      1  0.4691710000000  0.6060660000000  0.4301170000000 1.0
C      1  0.4571390000000  0.5028700000000  0.5869500000000 1.0
C      1  0.4992810000000  0.3847850000000  0.5212060000000 1.0
C      1  0.4922340000000  0.4083670000000  0.5940620000000 1.0
C      1  0.4089620000000  0.5598310000000  0.4752080000000 1.0
C      1  0.6287830000000  0.5706000000000  0.4338320000000 1.0
C      1  0.5042460000000  0.4550250000000  0.3932650000000 1.0
C      1  0.4952500000000  0.6103980000000  0.4367090000000 1.0
C      1  0.4958480000000  0.5087540000000  0.5260100000000 1.0
C      1  0.4471260000000  0.5902140000000  0.4282320000000 1.0
C      1  0.4122290000000  0.5905990000000  0.5355600000000 1.0
C      1  0.3986830000000  0.5123230000000  0.5660580000000 1.0
C      1  0.5528100000000  0.5242100000000  0.4995910000000 1.0
C      1  0.3998850000000  0.5904320000000  0.5115240000000 1.0
C      1  0.5278640000000  0.5993880000000  0.4966770000000 1.0
C      1  0.5979310000000  0.5533040000000  0.6085260000000 1.0
C      1  0.6009750000000  0.5270470000000  0.4006040000000 1.0
C      1  0.4080950000000  0.4986260000000  0.4778240000000 1.0
C      1  0.5111580000000  0.5257590000000  0.4076170000000 1.0
C      1  0.4424700000000  0.4469840000000  0.4440340000000 1.0
C      1  0.5506420000000  0.4292400000000  0.5373520000000 1.0
C      1  0.4841120000000  0.5140030000000  0.4775990000000 1.0
C      1  0.5580360000000  0.4007060000000  0.4453410000000 1.0
C      1  0.5107250000000  0.4537250000000  0.6091050000000 1.0
C      1  0.5141240000000  0.5594920000000  0.6068140000000 1.0
C      1  0.4483930000000  0.4647260000000  0.5424800000000 1.0
C      1  0.5668140000000  0.4943700000000  0.4116750000000 1.0
C      1  0.4908460000000  0.4587100000000  0.4672190000000 1.0
C      1  0.4570860000000  0.4242760000000  0.5671150000000 1.0
C      1  0.5456380000000  0.4762540000000  0.5756050000000 1.0
C      1  0.4646680000000  0.4827460000000  0.3788790000000 1.0
C      1  0.3873050000000  0.5165460000000  0.4658130000000 1.0
C      1  0.4351270000000  0.5260500000000  0.5325250000000 1.0
C      1  0.4539040000000  0.5548030000000  0.4590220000000 1.0
C      1  0.4292310000000  0.4188410000000  0.5692870000000 1.0
C      1  0.4761000000000  0.5820390000000  0.5009830000000 1.0
C      1  0.4502750000000  0.4700350000000  0.5151290000000 1.0
C      1  0.5864560000000  0.5093490000000  0.4544620000000 1.0
C      1  0.5659920000000  0.5541400000000  0.4437330000000 1.0
C      1  0.6176580000000  0.5238970000000  0.5126970000000 1.0
END
