TITL C-612606-7351-1289 0.0564416569064958 125000 -648.275532329009 0 0 107 (C1) n - 1
REM
REM in /home/nfs/bkarasulu/CARBON/AIRSS/Generating-Clusters/TERSOFF/Only-C1/FIRE-HFTN
REM
REM
REM
REM
REM
REM ./C.cell (11c1c37f851c82e70ff6c80c92926a4b)
REM AIRSS Version 0.9.1 bugfix July 2018 build 013d7b7c2542+ Fri, 06 Jul 2018 19:26:36 +0100
REM compiler GCC version 9.2.1 20190827 (Red Hat 9.2.1-1)
REM options -cpp -mtune=generic -march=x86-64 -g -O0 -fpre-include=/usr/include/finclude/math-vector-fortran.h
REM seed 728361700 -132748792 138184391 324900508 1186832635 15859775 -2118382898 21460342 1089472377 1986568527 -1169713310 -1570304335 863146061 2026632311 1404384323 989895762 2121406141 -1738605246 540426644 -1495519924 -909209101 1183204396 1396992862 -995452082 -2135367653 32906722 1155096963 1630786340 -520675124 2010244741 149682200 1111340477 -1949852478
REM
CELL 1.54180   50.00000   50.00000   50.00000   90.00000   90.00000   90.00000
LATT -1
SFAC C  
C      1  0.4942500000000  0.5530770000000  0.4283120000000 1.0
C      1  0.5008300000000  0.4963950000000  0.5673340000000 1.0
C      1  0.4921480000000  0.4113720000000  0.4744850000000 1.0
C      1  0.5245210000000  0.4945190000000  0.5233510000000 1.0
C      1  0.5385650000000  0.5109100000000  0.5041080000000 1.0
C      1  0.4170360000000  0.4878360000000  0.5342650000000 1.0
C      1  0.5934450000000  0.5518880000000  0.5362960000000 1.0
C      1  0.4161800000000  0.5100560000000  0.5524590000000 1.0
C      1  0.5565180000000  0.5291150000000  0.5164730000000 1.0
C      1  0.4768260000000  0.4140030000000  0.5670730000000 1.0
C      1  0.3984810000000  0.4585070000000  0.4717250000000 1.0
C      1  0.5225850000000  0.4523590000000  0.6058980000000 1.0
C      1  0.4963990000000  0.5311240000000  0.5339180000000 1.0
C      1  0.5242750000000  0.4961250000000  0.5869720000000 1.0
C      1  0.5336430000000  0.4324580000000  0.4663910000000 1.0
C      1  0.5556310000000  0.5317560000000  0.5714300000000 1.0
C      1  0.4845670000000  0.5488850000000  0.4750210000000 1.0
C      1  0.5480330000000  0.5499950000000  0.4371880000000 1.0
C      1  0.5372390000000  0.5228270000000  0.5913620000000 1.0
C      1  0.4370390000000  0.5541460000000  0.4756960000000 1.0
C      1  0.5552580000000  0.4245550000000  0.5108490000000 1.0
C      1  0.5361500000000  0.4160870000000  0.4913830000000 1.0
C      1  0.5017800000000  0.4353440000000  0.4270640000000 1.0
C      1  0.4561650000000  0.5140750000000  0.5734590000000 1.0
C      1  0.4662030000000  0.5655860000000  0.5450320000000 1.0
C      1  0.5333370000000  0.5190010000000  0.3963620000000 1.0
C      1  0.4256590000000  0.5349600000000  0.5396840000000 1.0
C      1  0.4127390000000  0.5403300000000  0.5148510000000 1.0
C      1  0.4908320000000  0.3963290000000  0.5502870000000 1.0
C      1  0.4670660000000  0.4687320000000  0.4362340000000 1.0
C      1  0.5674700000000  0.5947210000000  0.5304600000000 1.0
C      1  0.5268040000000  0.5939460000000  0.5014730000000 1.0
C      1  0.4624360000000  0.5665080000000  0.4736420000000 1.0
C      1  0.5490850000000  0.4571440000000  0.4643650000000 1.0
C      1  0.4727380000000  0.4904010000000  0.5693630000000 1.0
C      1  0.4851170000000  0.4635860000000  0.3916220000000 1.0
C      1  0.4506860000000  0.4619310000000  0.5076100000000 1.0
C      1  0.4452490000000  0.4250000000000  0.5353370000000 1.0
C      1  0.4189140000000  0.4594820000000  0.4541880000000 1.0
C      1  0.4358800000000  0.5056960000000  0.4520070000000 1.0
C      1  0.4683230000000  0.5916910000000  0.4618550000000 1.0
C      1  0.5313440000000  0.5377800000000  0.6135110000000 1.0
C      1  0.5515350000000  0.5560190000000  0.5553450000000 1.0
C      1  0.4896350000000  0.4316890000000  0.5231160000000 1.0
C      1  0.4430870000000  0.4764810000000  0.4547690000000 1.0
C      1  0.5621060000000  0.5024230000000  0.4491130000000 1.0
C      1  0.5403250000000  0.5408650000000  0.4107680000000 1.0
C      1  0.5127450000000  0.5491010000000  0.5203920000000 1.0
C      1  0.5319010000000  0.5712880000000  0.4508050000000 1.0
C      1  0.5462110000000  0.4766920000000  0.5748230000000 1.0
C      1  0.5686240000000  0.4608250000000  0.4851290000000 1.0
C      1  0.5272440000000  0.5737590000000  0.4799940000000 1.0
C      1  0.3916600000000  0.4710050000000  0.4944040000000 1.0
C      1  0.5093780000000  0.4481870000000  0.5346790000000 1.0
C      1  0.4822580000000  0.5840550000000  0.5328090000000 1.0
C      1  0.5074330000000  0.5777380000000  0.4356340000000 1.0
C      1  0.5164490000000  0.4790270000000  0.6110260000000 1.0
C      1  0.5682060000000  0.4501040000000  0.5114520000000 1.0
C      1  0.4848130000000  0.4745240000000  0.4775860000000 1.0
C      1  0.5953030000000  0.4742810000000  0.5773570000000 1.0
C      1  0.4324390000000  0.5309330000000  0.4601370000000 1.0
C      1  0.5077580000000  0.4255570000000  0.4533530000000 1.0
C      1  0.5392780000000  0.5491210000000  0.5300500000000 1.0
C      1  0.5582220000000  0.6307150000000  0.4997260000000 1.0
C      1  0.5172140000000  0.4685960000000  0.5175470000000 1.0
C      1  0.4419080000000  0.4734520000000  0.5327100000000 1.0
C      1  0.4681220000000  0.4699980000000  0.3707710000000 1.0
C      1  0.4356230000000  0.4834450000000  0.3317110000000 1.0
C      1  0.4287180000000  0.5075810000000  0.5778700000000 1.0
C      1  0.5721350000000  0.4825650000000  0.5604800000000 1.0
C      1  0.5055650000000  0.4664300000000  0.4929250000000 1.0
C      1  0.5026060000000  0.5948550000000  0.5179670000000 1.0
C      1  0.5108040000000  0.5500950000000  0.4907660000000 1.0
C      1  0.4776440000000  0.4506750000000  0.4168660000000 1.0
C      1  0.5809170000000  0.5260300000000  0.5316830000000 1.0
C      1  0.3996000000000  0.4913430000000  0.5117910000000 1.0
C      1  0.5426210000000  0.4811560000000  0.4499210000000 1.0
C      1  0.5075210000000  0.5070110000000  0.5421370000000 1.0
C      1  0.4610580000000  0.4336810000000  0.5106590000000 1.0
C      1  0.4586360000000  0.4664000000000  0.5570580000000 1.0
C      1  0.5258600000000  0.4937750000000  0.3903670000000 1.0
C      1  0.5730310000000  0.5128520000000  0.5566100000000 1.0
C      1  0.5747170000000  0.5721470000000  0.5459050000000 1.0
C      1  0.5637320000000  0.5296370000000  0.4497800000000 1.0
C      1  0.5231390000000  0.4393000000000  0.5574090000000 1.0
C      1  0.4660230000000  0.4189510000000  0.4844360000000 1.0
C      1  0.5107420000000  0.4021490000000  0.4967860000000 1.0
C      1  0.4909340000000  0.4779310000000  0.4504220000000 1.0
C      1  0.3963150000000  0.5188830000000  0.5054390000000 1.0
C      1  0.4585410000000  0.4358470000000  0.5598540000000 1.0
C      1  0.5140890000000  0.4682420000000  0.3926510000000 1.0
C      1  0.5509540000000  0.6066040000000  0.5105720000000 1.0
C      1  0.5155970000000  0.4907590000000  0.4470290000000 1.0
C      1  0.6149880000000  0.4670800000000  0.5928120000000 1.0
C      1  0.4096770000000  0.5863710000000  0.4998610000000 1.0
C      1  0.5124810000000  0.5167410000000  0.4570540000000 1.0
C      1  0.4517410000000  0.4767580000000  0.3510780000000 1.0
C      1  0.4570620000000  0.4736630000000  0.4828470000000 1.0
C      1  0.5230080000000  0.4459960000000  0.4094310000000 1.0
C      1  0.4986660000000  0.4036320000000  0.5232930000000 1.0
C      1  0.5731530000000  0.4663530000000  0.5342170000000 1.0
C      1  0.4891920000000  0.5973680000000  0.4452290000000 1.0
C      1  0.5235600000000  0.5230350000000  0.4827800000000 1.0
C      1  0.4195660000000  0.5610910000000  0.4969830000000 1.0
C      1  0.5352570000000  0.4498470000000  0.5800670000000 1.0
C      1  0.4917480000000  0.5349560000000  0.4499980000000 1.0
C      1  0.4514720000000  0.5420940000000  0.5513660000000 1.0
END
