TITL C-612602-9376-1409 1.39337504841376 125000 -387.676644873778 0 0 65 (C1) n - 1
REM
REM in /home/nfs/bkarasulu/CARBON/AIRSS/Generating-Clusters/TERSOFF/Only-C1/FIRE-HFTN
REM
REM
REM
REM
REM
REM ./C.cell (11c1c37f851c82e70ff6c80c92926a4b)
REM AIRSS Version 0.9.1 bugfix July 2018 build 013d7b7c2542+ Fri, 06 Jul 2018 19:26:36 +0100
REM compiler GCC version 9.2.1 20190827 (Red Hat 9.2.1-1)
REM options -cpp -mtune=generic -march=x86-64 -g -O0 -fpre-include=/usr/include/finclude/math-vector-fortran.h
REM seed -2055448615 -1291324607 261978086 -442150769 -24707457 -1645675132 -991454686 677113060 -1984587128 2022408362 702417235 -440092161 -412255180 769394002 -1693202835 -1552714016 113043084 -532796740 -243307080 1471147613 203620007 -1333292742 1910368500 1650101606 1761989950 1795605205 1761680920 -48915960 214375443 -534032539 1712709414 1005813728 788016215
REM
CELL 1.54180   50.00000   50.00000   50.00000   90.00000   90.00000   90.00000
LATT -1
SFAC C  
C      1  0.5208240000000  0.5179320000000  0.5077360000000 1.0
C      1  0.4571300000000  0.5968130000000  0.4704300000000 1.0
C      1  0.4655110000000  0.4926560000000  0.5361760000000 1.0
C      1  0.4588340000000  0.5737240000000  0.4052590000000 1.0
C      1  0.4934880000000  0.6595940000000  0.4353730000000 1.0
C      1  0.4878050000000  0.4548440000000  0.4749710000000 1.0
C      1  0.5298150000000  0.3947850000000  0.4741470000000 1.0
C      1  0.4596460000000  0.4771070000000  0.5134120000000 1.0
C      1  0.4957740000000  0.5219470000000  0.5829520000000 1.0
C      1  0.4664300000000  0.4655470000000  0.4901330000000 1.0
C      1  0.4618490000000  0.5330010000000  0.4312790000000 1.0
C      1  0.5209470000000  0.5986390000000  0.4098830000000 1.0
C      1  0.4755620000000  0.5103500000000  0.4330410000000 1.0
C      1  0.5037930000000  0.4344350000000  0.4883170000000 1.0
C      1  0.4757070000000  0.5887440000000  0.3910340000000 1.0
C      1  0.4522390000000  0.5754950000000  0.4529660000000 1.0
C      1  0.4835690000000  0.5670430000000  0.5308960000000 1.0
C      1  0.5663630000000  0.5156540000000  0.5120300000000 1.0
C      1  0.4026430000000  0.6106450000000  0.5164560000000 1.0
C      1  0.5462960000000  0.5059240000000  0.5700460000000 1.0
C      1  0.5229290000000  0.4902090000000  0.5025520000000 1.0
C      1  0.5429820000000  0.4810050000000  0.5791510000000 1.0
C      1  0.5906640000000  0.4943820000000  0.4746410000000 1.0
C      1  0.5106000000000  0.4427630000000  0.5146000000000 1.0
C      1  0.4736390000000  0.3037380000000  0.5527620000000 1.0
C      1  0.4264370000000  0.6029220000000  0.5077330000000 1.0
C      1  0.4783400000000  0.5012730000000  0.5824190000000 1.0
C      1  0.5094770000000  0.3894000000000  0.5689280000000 1.0
C      1  0.4921010000000  0.3217500000000  0.5490310000000 1.0
C      1  0.4881360000000  0.5413370000000  0.5405180000000 1.0
C      1  0.4802350000000  0.6409490000000  0.4487600000000 1.0
C      1  0.4513730000000  0.5947570000000  0.4981580000000 1.0
C      1  0.5327260000000  0.3357330000000  0.5259270000000 1.0
C      1  0.5070550000000  0.6769700000000  0.4214580000000 1.0
C      1  0.4913350000000  0.4903310000000  0.4404370000000 1.0
C      1  0.4825480000000  0.4564390000000  0.5664860000000 1.0
C      1  0.5285410000000  0.4586280000000  0.5806830000000 1.0
C      1  0.3792170000000  0.6182440000000  0.5250060000000 1.0
C      1  0.4723000000000  0.4821900000000  0.5621680000000 1.0
C      1  0.5154760000000  0.5565580000000  0.4721420000000 1.0
C      1  0.5336080000000  0.3509020000000  0.5024450000000 1.0
C      1  0.5059390000000  0.4429840000000  0.5746110000000 1.0
C      1  0.5245820000000  0.4219710000000  0.4728790000000 1.0
C      1  0.5071820000000  0.4151400000000  0.5748280000000 1.0
C      1  0.5167410000000  0.4686720000000  0.5195920000000 1.0
C      1  0.5120660000000  0.3408220000000  0.5448100000000 1.0
C      1  0.4559820000000  0.5602800000000  0.4297460000000 1.0
C      1  0.5033390000000  0.4713680000000  0.4568660000000 1.0
C      1  0.5327440000000  0.3707020000000  0.4848460000000 1.0
C      1  0.4705250000000  0.5845550000000  0.5157970000000 1.0
C      1  0.5116030000000  0.5368190000000  0.4894780000000 1.0
C      1  0.5256000000000  0.5741450000000  0.4550300000000 1.0
C      1  0.5078410000000  0.5338360000000  0.5600570000000 1.0
C      1  0.5424950000000  0.5247730000000  0.5256560000000 1.0
C      1  0.5291920000000  0.5890450000000  0.4333220000000 1.0
C      1  0.4681710000000  0.6204890000000  0.4604760000000 1.0
C      1  0.5346220000000  0.5252080000000  0.5530030000000 1.0
C      1  0.5003890000000  0.5988260000000  0.3928470000000 1.0
C      1  0.5676460000000  0.4981030000000  0.4888230000000 1.0
C      1  0.5116350000000  0.3649840000000  0.5588470000000 1.0
C      1  0.5404600000000  0.4414030000000  0.4593040000000 1.0
C      1  0.5427530000000  0.4850530000000  0.4820910000000 1.0
C      1  0.5322280000000  0.4687070000000  0.4610570000000 1.0
C      1  0.4707870000000  0.5202720000000  0.5326470000000 1.0
C      1  0.5515310000000  0.3164840000000  0.5308470000000 1.0
END
