TITL C-612606-7351-1336 -0.000884319564894955 125000 -1174.88954203792 0 0 192 (C1) n - 1
REM
REM in /home/nfs/bkarasulu/CARBON/AIRSS/Generating-Clusters/TERSOFF/Only-C1/FIRE-HFTN
REM
REM
REM
REM
REM
REM ./C.cell (11c1c37f851c82e70ff6c80c92926a4b)
REM AIRSS Version 0.9.1 bugfix July 2018 build 013d7b7c2542+ Fri, 06 Jul 2018 19:26:36 +0100
REM compiler GCC version 9.2.1 20190827 (Red Hat 9.2.1-1)
REM options -cpp -mtune=generic -march=x86-64 -g -O0 -fpre-include=/usr/include/finclude/math-vector-fortran.h
REM seed 675388663 633172960 23177727 -1258851768 -1561073912 1871034194 -1697209106 -1789666578 -287171498 1558958992 -1892598309 -1772192739 -1993689425 -658088215 -1290641147 -87824300 816915044 1958087590 1172019558 -1261496415 1098623317 -364026696 501144500 370635124 -2026542222 -2033721891 1004075290 981811980 -1827542712 194238636 -1124541522 -1326696466 -777832706
REM
CELL 1.54180   50.00000   50.00000   50.00000   90.00000   90.00000   90.00000
LATT -1
SFAC C  
C      1  0.5019630000000  0.6181750000000  0.4487470000000 1.0
C      1  0.4993770000000  0.5048510000000  0.5919490000000 1.0
C      1  0.5664670000000  0.4315720000000  0.6039220000000 1.0
C      1  0.4427820000000  0.5519300000000  0.4299520000000 1.0
C      1  0.4284870000000  0.4667490000000  0.5227800000000 1.0
C      1  0.4242670000000  0.5196490000000  0.5767840000000 1.0
C      1  0.4473770000000  0.5165440000000  0.3970500000000 1.0
C      1  0.4150630000000  0.6009750000000  0.5586770000000 1.0
C      1  0.4565040000000  0.3594070000000  0.4922340000000 1.0
C      1  0.5142080000000  0.4144550000000  0.5851330000000 1.0
C      1  0.4612110000000  0.5570870000000  0.5993800000000 1.0
C      1  0.5214360000000  0.5914000000000  0.5711720000000 1.0
C      1  0.6015680000000  0.5315490000000  0.3732880000000 1.0
C      1  0.5203690000000  0.3721070000000  0.5072710000000 1.0
C      1  0.5871950000000  0.4515660000000  0.4514110000000 1.0
C      1  0.4959330000000  0.5512830000000  0.5653730000000 1.0
C      1  0.4981780000000  0.5148320000000  0.6186840000000 1.0
C      1  0.4360410000000  0.4239680000000  0.5407030000000 1.0
C      1  0.4849950000000  0.5496970000000  0.4035900000000 1.0
C      1  0.6011600000000  0.5375010000000  0.4484520000000 1.0
C      1  0.5192610000000  0.5159340000000  0.5491960000000 1.0
C      1  0.4562090000000  0.5458430000000  0.4039940000000 1.0
C      1  0.4457490000000  0.4295750000000  0.4632990000000 1.0
C      1  0.4966300000000  0.5604410000000  0.6082620000000 1.0
C      1  0.4391310000000  0.4227260000000  0.4912230000000 1.0
C      1  0.6108590000000  0.5119150000000  0.5314030000000 1.0
C      1  0.5936620000000  0.4938140000000  0.4804990000000 1.0
C      1  0.4751120000000  0.4468480000000  0.5631580000000 1.0
C      1  0.5005830000000  0.5707380000000  0.3932700000000 1.0
C      1  0.4297900000000  0.4480350000000  0.4488830000000 1.0
C      1  0.4708430000000  0.4983570000000  0.3874430000000 1.0
C      1  0.4978440000000  0.4922170000000  0.5142620000000 1.0
C      1  0.4432060000000  0.3758500000000  0.5580270000000 1.0
C      1  0.4352320000000  0.4979300000000  0.5609590000000 1.0
C      1  0.5691540000000  0.4556620000000  0.5460770000000 1.0
C      1  0.4306810000000  0.3533520000000  0.5670160000000 1.0
C      1  0.4969250000000  0.5259630000000  0.4795690000000 1.0
C      1  0.4837780000000  0.4751180000000  0.6488980000000 1.0
C      1  0.3735220000000  0.5116970000000  0.4671680000000 1.0
C      1  0.4076110000000  0.5356270000000  0.5578320000000 1.0
C      1  0.4110020000000  0.4983150000000  0.4374450000000 1.0
C      1  0.4457770000000  0.4855790000000  0.5057920000000 1.0
C      1  0.4270940000000  0.5547260000000  0.5486480000000 1.0
C      1  0.5463430000000  0.5256210000000  0.6114460000000 1.0
C      1  0.4657130000000  0.4669770000000  0.3920870000000 1.0
C      1  0.5120330000000  0.4107730000000  0.5570100000000 1.0
C      1  0.3657910000000  0.4548720000000  0.4762820000000 1.0
C      1  0.5182370000000  0.5062430000000  0.4774150000000 1.0
C      1  0.5375140000000  0.5306380000000  0.3698890000000 1.0
C      1  0.4753440000000  0.4752840000000  0.5083900000000 1.0
C      1  0.4042730000000  0.5480650000000  0.4617170000000 1.0
C      1  0.5579070000000  0.5316100000000  0.3501990000000 1.0
C      1  0.5099930000000  0.4786100000000  0.5894160000000 1.0
C      1  0.6257740000000  0.4640820000000  0.5289590000000 1.0
C      1  0.4639820000000  0.4315170000000  0.5430250000000 1.0
C      1  0.4732360000000  0.5811410000000  0.5304350000000 1.0
C      1  0.4695070000000  0.4251270000000  0.3645730000000 1.0
C      1  0.5013800000000  0.4310780000000  0.6302470000000 1.0
C      1  0.4798320000000  0.4431570000000  0.3836770000000 1.0
C      1  0.4955050000000  0.4111360000000  0.4434490000000 1.0
C      1  0.3919980000000  0.5582860000000  0.5160320000000 1.0
C      1  0.5286190000000  0.5773850000000  0.4311970000000 1.0
C      1  0.4243590000000  0.6219950000000  0.5442150000000 1.0
C      1  0.4897650000000  0.4444730000000  0.4743960000000 1.0
C      1  0.3508470000000  0.4583280000000  0.4980870000000 1.0
C      1  0.5895810000000  0.5599850000000  0.5136690000000 1.0
C      1  0.5661410000000  0.4065450000000  0.5610020000000 1.0
C      1  0.5126890000000  0.4248680000000  0.4219140000000 1.0
C      1  0.5576100000000  0.3837440000000  0.5451320000000 1.0
C      1  0.4309920000000  0.4841270000000  0.4795320000000 1.0
C      1  0.4904000000000  0.5069460000000  0.3657650000000 1.0
C      1  0.5847000000000  0.5315240000000  0.3524480000000 1.0
C      1  0.3700560000000  0.4904190000000  0.5322450000000 1.0
C      1  0.5194560000000  0.5956860000000  0.5206090000000 1.0
C      1  0.5947330000000  0.5601510000000  0.5418000000000 1.0
C      1  0.5806790000000  0.5817120000000  0.5547990000000 1.0
C      1  0.4745640000000  0.4292650000000  0.3379810000000 1.0
C      1  0.4521260000000  0.5159700000000  0.5162000000000 1.0
C      1  0.4872430000000  0.6131770000000  0.4742790000000 1.0
C      1  0.4288400000000  0.3993700000000  0.5516820000000 1.0
C      1  0.4336680000000  0.5075320000000  0.4225050000000 1.0
C      1  0.4694530000000  0.6051520000000  0.5456160000000 1.0
C      1  0.5512030000000  0.5447850000000  0.5683910000000 1.0
C      1  0.5063630000000  0.5474060000000  0.5195980000000 1.0
C      1  0.5400870000000  0.4178400000000  0.4921920000000 1.0
C      1  0.5647350000000  0.4660320000000  0.5176920000000 1.0
C      1  0.5275440000000  0.5709980000000  0.4025550000000 1.0
C      1  0.5365630000000  0.4627750000000  0.5070040000000 1.0
C      1  0.5023410000000  0.5233730000000  0.5706850000000 1.0
C      1  0.5300060000000  0.4819000000000  0.3761670000000 1.0
C      1  0.5298120000000  0.4351210000000  0.5118360000000 1.0
C      1  0.4822160000000  0.4490270000000  0.5010500000000 1.0
C      1  0.4669380000000  0.4656060000000  0.4215590000000 1.0
C      1  0.5650640000000  0.5354910000000  0.5913260000000 1.0
C      1  0.5610270000000  0.5217580000000  0.5256650000000 1.0
C      1  0.5111400000000  0.4569610000000  0.4619200000000 1.0
C      1  0.5193900000000  0.5075240000000  0.3690030000000 1.0
C      1  0.6094910000000  0.4482170000000  0.4356080000000 1.0
C      1  0.4875750000000  0.4998130000000  0.6395100000000 1.0
C      1  0.4278200000000  0.4378600000000  0.5157290000000 1.0
C      1  0.6111130000000  0.5126020000000  0.4952170000000 1.0
C      1  0.5350150000000  0.4735010000000  0.6035830000000 1.0
C      1  0.4885760000000  0.4491190000000  0.6452110000000 1.0
C      1  0.5665000000000  0.4951670000000  0.5209690000000 1.0
C      1  0.5566750000000  0.4949600000000  0.4505450000000 1.0
C      1  0.4183340000000  0.4787770000000  0.5471390000000 1.0
C      1  0.4455900000000  0.5257650000000  0.4420710000000 1.0
C      1  0.5720120000000  0.5083540000000  0.4692960000000 1.0
C      1  0.4893180000000  0.5033610000000  0.4120240000000 1.0
C      1  0.5421520000000  0.4458830000000  0.6078130000000 1.0
C      1  0.5952930000000  0.5833920000000  0.4990600000000 1.0
C      1  0.3954470000000  0.5203040000000  0.4499190000000 1.0
C      1  0.3516950000000  0.4728660000000  0.5204970000000 1.0
C      1  0.5471090000000  0.4970310000000  0.6144080000000 1.0
C      1  0.4879660000000  0.4823420000000  0.4300780000000 1.0
C      1  0.5717320000000  0.5394130000000  0.5064190000000 1.0
C      1  0.5328560000000  0.5990300000000  0.4754370000000 1.0
C      1  0.5064580000000  0.5708540000000  0.5836840000000 1.0
C      1  0.5358530000000  0.4031870000000  0.4701900000000 1.0
C      1  0.5743360000000  0.4108240000000  0.5878830000000 1.0
C      1  0.4711820000000  0.3769130000000  0.5544520000000 1.0
C      1  0.3908300000000  0.5485860000000  0.4887770000000 1.0
C      1  0.4521200000000  0.5798140000000  0.5836950000000 1.0
C      1  0.3743660000000  0.5160840000000  0.5211830000000 1.0
C      1  0.4432460000000  0.5338030000000  0.5953470000000 1.0
C      1  0.4903000000000  0.5604660000000  0.5395540000000 1.0
C      1  0.5263460000000  0.5519390000000  0.4486240000000 1.0
C      1  0.3746210000000  0.5232770000000  0.4930550000000 1.0
C      1  0.5624990000000  0.4407580000000  0.4416680000000 1.0
C      1  0.4521550000000  0.5231000000000  0.4682200000000 1.0
C      1  0.5280160000000  0.5266720000000  0.4320190000000 1.0
C      1  0.5896240000000  0.4724270000000  0.5580040000000 1.0
C      1  0.4257350000000  0.5659600000000  0.4497560000000 1.0
C      1  0.5099000000000  0.3937780000000  0.4630380000000 1.0
C      1  0.5735440000000  0.6182040000000  0.5246650000000 1.0
C      1  0.4545770000000  0.4037370000000  0.3729040000000 1.0
C      1  0.4743270000000  0.4270550000000  0.4571600000000 1.0
C      1  0.3876050000000  0.5368830000000  0.5368210000000 1.0
C      1  0.4691790000000  0.6005690000000  0.5740720000000 1.0
C      1  0.5884870000000  0.6090770000000  0.5040010000000 1.0
C      1  0.4390270000000  0.5885900000000  0.4625910000000 1.0
C      1  0.5053080000000  0.5180270000000  0.5246210000000 1.0
C      1  0.5871040000000  0.4530880000000  0.5013280000000 1.0
C      1  0.5402080000000  0.5735450000000  0.4867620000000 1.0
C      1  0.5002910000000  0.3797360000000  0.4871940000000 1.0
C      1  0.5292310000000  0.4267890000000  0.5394550000000 1.0
C      1  0.5917790000000  0.5289850000000  0.5798560000000 1.0
C      1  0.5282840000000  0.5011020000000  0.4492180000000 1.0
C      1  0.4940750000000  0.3900980000000  0.5503120000000 1.0
C      1  0.4940670000000  0.4606000000000  0.5755040000000 1.0
C      1  0.5432080000000  0.5475640000000  0.3933510000000 1.0
C      1  0.5845500000000  0.5342840000000  0.4235310000000 1.0
C      1  0.6024230000000  0.5337470000000  0.5522250000000 1.0
C      1  0.4504540000000  0.6243770000000  0.5368640000000 1.0
C      1  0.4573020000000  0.5074240000000  0.5452420000000 1.0
C      1  0.5907460000000  0.4656470000000  0.4762960000000 1.0
C      1  0.5011510000000  0.5281250000000  0.4153510000000 1.0
C      1  0.4534470000000  0.5702040000000  0.5134830000000 1.0
C      1  0.3902930000000  0.4802660000000  0.5490850000000 1.0
C      1  0.5473790000000  0.5529350000000  0.4692870000000 1.0
C      1  0.5333310000000  0.5995850000000  0.5463100000000 1.0
C      1  0.4698640000000  0.5235450000000  0.4896570000000 1.0
C      1  0.6116110000000  0.4461040000000  0.5141490000000 1.0
C      1  0.5108240000000  0.6094690000000  0.4944500000000 1.0
C      1  0.4401000000000  0.5478310000000  0.5238290000000 1.0
C      1  0.5623050000000  0.6019010000000  0.5451120000000 1.0
C      1  0.5644540000000  0.5336950000000  0.4797370000000 1.0
C      1  0.5256500000000  0.6014980000000  0.4469660000000 1.0
C      1  0.5404660000000  0.4300770000000  0.4300120000000 1.0
C      1  0.5549010000000  0.5330470000000  0.4166070000000 1.0
C      1  0.4760640000000  0.4267960000000  0.5174550000000 1.0
C      1  0.5209300000000  0.4853950000000  0.4979020000000 1.0
C      1  0.4725410000000  0.3814960000000  0.4939780000000 1.0
C      1  0.5115420000000  0.4775580000000  0.4434070000000 1.0
C      1  0.5252890000000  0.4574080000000  0.3863210000000 1.0
C      1  0.5006330000000  0.5493710000000  0.4637960000000 1.0
C      1  0.5056290000000  0.4391610000000  0.3967480000000 1.0
C      1  0.4292190000000  0.5773500000000  0.5658600000000 1.0
C      1  0.5447420000000  0.5275970000000  0.5475940000000 1.0
C      1  0.4668460000000  0.5925570000000  0.4693310000000 1.0
C      1  0.5245400000000  0.5677370000000  0.5101410000000 1.0
C      1  0.5132680000000  0.5388450000000  0.6190060000000 1.0
C      1  0.4812880000000  0.5688440000000  0.4639890000000 1.0
C      1  0.5192720000000  0.4283270000000  0.6089220000000 1.0
C      1  0.6148630000000  0.5330520000000  0.4730240000000 1.0
C      1  0.6115950000000  0.4845470000000  0.5428950000000 1.0
C      1  0.5556440000000  0.4310480000000  0.5505960000000 1.0
C      1  0.3874440000000  0.4624470000000  0.4629110000000 1.0
C      1  0.4143730000000  0.4734040000000  0.4556990000000 1.0
C      1  0.4620230000000  0.4064880000000  0.5020080000000 1.0
C      1  0.5405070000000  0.3739410000000  0.5258980000000 1.0
C      1  0.6007860000000  0.5322920000000  0.3999950000000 1.0
END
