TITL C-612605-9286-588 1.3090300054626e-05 125000 -523.444171554882 0 0 86 (C1) n - 1
REM
REM in /home/nfs/bkarasulu/CARBON/AIRSS/Generating-Clusters/TERSOFF/Only-C1/FIRE-HFTN
REM
REM
REM
REM
REM
REM ./C.cell (11c1c37f851c82e70ff6c80c92926a4b)
REM AIRSS Version 0.9.1 bugfix July 2018 build 013d7b7c2542+ Fri, 06 Jul 2018 19:26:36 +0100
REM compiler GCC version 9.2.1 20190827 (Red Hat 9.2.1-1)
REM options -cpp -mtune=generic -march=x86-64 -g -O0 -fpre-include=/usr/include/finclude/math-vector-fortran.h
REM seed -793725979 130459792 -255835960 1140888636 655920081 -715637772 -1185784745 1283591949 -246943960 -558904048 -252234001 2004568330 228449054 -1875617812 927190159 -1493353931 -1684728331 -108099781 -1675141425 -679583410 -1912715120 -68792252 239802189 837430764 32342774 2128203528 -961422826 896149408 323782749 1598600001 1814680739 -1477903483 844544171
REM
CELL 1.54180   50.00000   50.00000   50.00000   90.00000   90.00000   90.00000
LATT -1
SFAC C  
C      1  0.4605950000000  0.5232290000000  0.5349070000000 1.0
C      1  0.5518380000000  0.5338290000000  0.5307170000000 1.0
C      1  0.4971400000000  0.4873430000000  0.5190480000000 1.0
C      1  0.5581010000000  0.5036290000000  0.5766120000000 1.0
C      1  0.4686270000000  0.4610060000000  0.4418810000000 1.0
C      1  0.5261020000000  0.4708110000000  0.5657320000000 1.0
C      1  0.4876090000000  0.4818490000000  0.5918720000000 1.0
C      1  0.4757640000000  0.5141960000000  0.4351340000000 1.0
C      1  0.5291390000000  0.4941800000000  0.4252790000000 1.0
C      1  0.5536830000000  0.4908100000000  0.4122420000000 1.0
C      1  0.4377390000000  0.5132010000000  0.4691590000000 1.0
C      1  0.5448110000000  0.4317730000000  0.5765130000000 1.0
C      1  0.5068240000000  0.5756340000000  0.4466620000000 1.0
C      1  0.4069830000000  0.5403510000000  0.5335690000000 1.0
C      1  0.5640250000000  0.5630890000000  0.4940760000000 1.0
C      1  0.5213320000000  0.5908800000000  0.4941670000000 1.0
C      1  0.5608250000000  0.5256500000000  0.4620360000000 1.0
C      1  0.4877020000000  0.4391350000000  0.4404040000000 1.0
C      1  0.5010520000000  0.5400050000000  0.5557080000000 1.0
C      1  0.5268190000000  0.5388700000000  0.5161750000000 1.0
C      1  0.4813570000000  0.5564050000000  0.5143980000000 1.0
C      1  0.4557320000000  0.5694560000000  0.5108370000000 1.0
C      1  0.4998170000000  0.5288820000000  0.4296550000000 1.0
C      1  0.4786600000000  0.4262500000000  0.5055310000000 1.0
C      1  0.3836030000000  0.4151180000000  0.5336370000000 1.0
C      1  0.4724050000000  0.4467360000000  0.5604730000000 1.0
C      1  0.5052400000000  0.5528060000000  0.5297930000000 1.0
C      1  0.4447430000000  0.4642060000000  0.4559330000000 1.0
C      1  0.4608590000000  0.4899050000000  0.5990290000000 1.0
C      1  0.5333480000000  0.5196450000000  0.4679180000000 1.0
C      1  0.4379720000000  0.5781900000000  0.5307550000000 1.0
C      1  0.5163620000000  0.4833580000000  0.5910810000000 1.0
C      1  0.4738830000000  0.5278900000000  0.5096610000000 1.0
C      1  0.4437410000000  0.5557150000000  0.4880670000000 1.0
C      1  0.5717110000000  0.5397190000000  0.5105760000000 1.0
C      1  0.5854730000000  0.5163330000000  0.5018460000000 1.0
C      1  0.5126650000000  0.4638650000000  0.5176930000000 1.0
C      1  0.5414530000000  0.4309830000000  0.4588100000000 1.0
C      1  0.4577970000000  0.5274650000000  0.4531090000000 1.0
C      1  0.5591320000000  0.4436850000000  0.4141100000000 1.0
C      1  0.5194610000000  0.5221730000000  0.4929850000000 1.0
C      1  0.4334700000000  0.4773180000000  0.5547640000000 1.0
C      1  0.5688180000000  0.5427000000000  0.4423450000000 1.0
C      1  0.4181850000000  0.5192030000000  0.5178420000000 1.0
C      1  0.5298610000000  0.4627600000000  0.5400560000000 1.0
C      1  0.5188010000000  0.4233900000000  0.5729980000000 1.0
C      1  0.5352750000000  0.5747160000000  0.4519910000000 1.0
C      1  0.5077310000000  0.5452170000000  0.4074770000000 1.0
C      1  0.4946960000000  0.5898120000000  0.4870580000000 1.0
C      1  0.4085510000000  0.4225960000000  0.5327100000000 1.0
C      1  0.5253000000000  0.5378440000000  0.5699500000000 1.0
C      1  0.4451770000000  0.4503100000000  0.5503200000000 1.0
C      1  0.5375210000000  0.4385390000000  0.4313180000000 1.0
C      1  0.4234910000000  0.4943270000000  0.5329160000000 1.0
C      1  0.5588140000000  0.4465170000000  0.4749040000000 1.0
C      1  0.4828110000000  0.4724960000000  0.5646610000000 1.0
C      1  0.4161360000000  0.5650090000000  0.5397670000000 1.0
C      1  0.5112230000000  0.4487520000000  0.4256640000000 1.0
C      1  0.5072500000000  0.4766870000000  0.4209350000000 1.0
C      1  0.4815170000000  0.5188480000000  0.5537580000000 1.0
C      1  0.5722270000000  0.4673290000000  0.4854780000000 1.0
C      1  0.4294970000000  0.5290170000000  0.4921510000000 1.0
C      1  0.4802330000000  0.4854870000000  0.4303080000000 1.0
C      1  0.5711760000000  0.4779120000000  0.5724740000000 1.0
C      1  0.4944260000000  0.4180060000000  0.4579760000000 1.0
C      1  0.5214490000000  0.5153300000000  0.4424010000000 1.0
C      1  0.5827320000000  0.4904430000000  0.4944890000000 1.0
C      1  0.4349030000000  0.4313900000000  0.5319090000000 1.0
C      1  0.4922240000000  0.4266260000000  0.5665240000000 1.0
C      1  0.5502650000000  0.5612990000000  0.4317650000000 1.0
C      1  0.4911420000000  0.5507400000000  0.3865470000000 1.0
C      1  0.5007600000000  0.4411290000000  0.5068630000000 1.0
C      1  0.4622680000000  0.5549550000000  0.4644590000000 1.0
C      1  0.5644430000000  0.4511890000000  0.5756220000000 1.0
C      1  0.5429810000000  0.5779480000000  0.4801220000000 1.0
C      1  0.4845550000000  0.5740730000000  0.4645290000000 1.0
C      1  0.4395140000000  0.4881130000000  0.5813150000000 1.0
C      1  0.5345620000000  0.5551920000000  0.4087790000000 1.0
C      1  0.5382570000000  0.5002020000000  0.5983260000000 1.0
C      1  0.5670940000000  0.4682340000000  0.4062100000000 1.0
C      1  0.5198240000000  0.4147060000000  0.4677610000000 1.0
C      1  0.5493590000000  0.5256150000000  0.5587790000000 1.0
C      1  0.4533690000000  0.4221410000000  0.5128950000000 1.0
C      1  0.4888950000000  0.4922020000000  0.5461460000000 1.0
C      1  0.4945120000000  0.5094360000000  0.5012520000000 1.0
C      1  0.4325830000000  0.4859930000000  0.4656970000000 1.0
END
