TITL C-612601-4209-380 0.991094947801258 125000 -497.042300451916 0 0 81 (C1) n - 1
REM
REM in /home/nfs/bkarasulu/CARBON/AIRSS/Generating-Clusters/TERSOFF/Only-C1/FIRE-HFTN
REM
REM
REM
REM
REM
REM ./C.cell (11c1c37f851c82e70ff6c80c92926a4b)
REM AIRSS Version 0.9.1 bugfix July 2018 build 013d7b7c2542+ Fri, 06 Jul 2018 19:26:36 +0100
REM compiler GCC version 9.2.1 20190827 (Red Hat 9.2.1-1)
REM options -cpp -mtune=generic -march=x86-64 -g -O0 -fpre-include=/usr/include/finclude/math-vector-fortran.h
REM seed -736903130 -1075583186 -1672105538 -702518225 1335792120 290655730 1481652578 -1854884673 -1497555604 2145482058 1669182056 -85429577 1258624375 414057590 -499528299 505972563 -1590291489 432366290 -1660856382 -1552221993 -1343863974 1557946576 -1329280934 1482130234 1346074183 -1603272262 -685273901 -1670359502 -1295716921 -1099999754 938522496 403851144 -1241112571
REM
CELL 1.54180   50.00000   50.00000   50.00000   90.00000   90.00000   90.00000
LATT -1
SFAC C  
C      1  0.5255430000000  0.5426000000000  0.4303610000000 1.0
C      1  0.5657190000000  0.3845320000000  0.4838440000000 1.0
C      1  0.5808110000000  0.4086510000000  0.4836020000000 1.0
C      1  0.5536650000000  0.5646830000000  0.4660420000000 1.0
C      1  0.4136860000000  0.5476560000000  0.4920740000000 1.0
C      1  0.4145210000000  0.4695340000000  0.5216550000000 1.0
C      1  0.4426500000000  0.4949390000000  0.4569250000000 1.0
C      1  0.4713260000000  0.6085140000000  0.5026170000000 1.0
C      1  0.5703170000000  0.4314430000000  0.4713040000000 1.0
C      1  0.4318900000000  0.5144570000000  0.5589210000000 1.0
C      1  0.5793330000000  0.5072080000000  0.4510270000000 1.0
C      1  0.4322530000000  0.4757240000000  0.4756050000000 1.0
C      1  0.5430920000000  0.4626840000000  0.5100730000000 1.0
C      1  0.4623720000000  0.5434500000000  0.5862360000000 1.0
C      1  0.6057900000000  0.4096750000000  0.4960490000000 1.0
C      1  0.4989940000000  0.4681990000000  0.5304250000000 1.0
C      1  0.4698710000000  0.4921220000000  0.4477130000000 1.0
C      1  0.5154880000000  0.5112120000000  0.4876310000000 1.0
C      1  0.4563960000000  0.5865190000000  0.5658540000000 1.0
C      1  0.4706450000000  0.6158790000000  0.4769540000000 1.0
C      1  0.4826620000000  0.5621180000000  0.5123600000000 1.0
C      1  0.5604090000000  0.5098050000000  0.5474520000000 1.0
C      1  0.4750290000000  0.4291380000000  0.4832250000000 1.0
C      1  0.6290910000000  0.4100810000000  0.5077120000000 1.0
C      1  0.5197560000000  0.5374380000000  0.5536210000000 1.0
C      1  0.5131320000000  0.3928970000000  0.4918670000000 1.0
C      1  0.4291810000000  0.5236830000000  0.5315170000000 1.0
C      1  0.4793250000000  0.5368560000000  0.5248530000000 1.0
C      1  0.5417970000000  0.5274430000000  0.5386880000000 1.0
C      1  0.5378300000000  0.4980850000000  0.4755200000000 1.0
C      1  0.4605200000000  0.5779360000000  0.4446320000000 1.0
C      1  0.4834650000000  0.4688880000000  0.4567070000000 1.0
C      1  0.4910190000000  0.4073460000000  0.4895520000000 1.0
C      1  0.4310470000000  0.4480820000000  0.4702680000000 1.0
C      1  0.5779630000000  0.3602610000000  0.4774810000000 1.0
C      1  0.5425410000000  0.5415610000000  0.5141490000000 1.0
C      1  0.5346860000000  0.5474880000000  0.4048960000000 1.0
C      1  0.5495390000000  0.5696320000000  0.5161650000000 1.0
C      1  0.6031890000000  0.3151040000000  0.4659620000000 1.0
C      1  0.4732990000000  0.5692340000000  0.5804290000000 1.0
C      1  0.5384840000000  0.3853580000000  0.4900870000000 1.0
C      1  0.4363060000000  0.5662470000000  0.4527400000000 1.0
C      1  0.4804960000000  0.5063090000000  0.5614270000000 1.0
C      1  0.4185660000000  0.5475880000000  0.5200250000000 1.0
C      1  0.4297810000000  0.4839610000000  0.5027360000000 1.0
C      1  0.4241350000000  0.5447650000000  0.4660100000000 1.0
C      1  0.5103220000000  0.4681560000000  0.5750370000000 1.0
C      1  0.5212570000000  0.5376290000000  0.4955800000000 1.0
C      1  0.4941510000000  0.5273100000000  0.5473590000000 1.0
C      1  0.5564590000000  0.5781070000000  0.4897450000000 1.0
C      1  0.4903380000000  0.4726130000000  0.5039000000000 1.0
C      1  0.4664570000000  0.6038900000000  0.4534210000000 1.0
C      1  0.5448080000000  0.4543590000000  0.4377800000000 1.0
C      1  0.5215090000000  0.5657820000000  0.5596360000000 1.0
C      1  0.4908870000000  0.5000980000000  0.4968290000000 1.0
C      1  0.5269770000000  0.4586500000000  0.5325650000000 1.0
C      1  0.5904960000000  0.3376540000000  0.4717020000000 1.0
C      1  0.4483530000000  0.5848310000000  0.5390350000000 1.0
C      1  0.4241790000000  0.5720290000000  0.5326220000000 1.0
C      1  0.4085020000000  0.4725620000000  0.5477430000000 1.0
C      1  0.6156740000000  0.2929250000000  0.4603170000000 1.0
C      1  0.5448010000000  0.5414470000000  0.4516530000000 1.0
C      1  0.4155560000000  0.4921470000000  0.5649890000000 1.0
C      1  0.5029300000000  0.5592730000000  0.4928720000000 1.0
C      1  0.5012030000000  0.5742580000000  0.5773880000000 1.0
C      1  0.4478590000000  0.4277200000000  0.4757230000000 1.0
C      1  0.4806910000000  0.5613700000000  0.4345120000000 1.0
C      1  0.4699420000000  0.5155260000000  0.5080360000000 1.0
C      1  0.5537330000000  0.4526240000000  0.4635950000000 1.0
C      1  0.5312040000000  0.4565720000000  0.5609590000000 1.0
C      1  0.4973440000000  0.5387080000000  0.4341500000000 1.0
C      1  0.4857460000000  0.4554010000000  0.4817630000000 1.0
C      1  0.5455090000000  0.4715590000000  0.4832640000000 1.0
C      1  0.4567540000000  0.5187580000000  0.5728220000000 1.0
C      1  0.4287380000000  0.5192280000000  0.4551920000000 1.0
C      1  0.4432320000000  0.5071900000000  0.5123750000000 1.0
C      1  0.5385300000000  0.5801840000000  0.5408090000000 1.0
C      1  0.5543510000000  0.5151410000000  0.4590750000000 1.0
C      1  0.4848710000000  0.5134700000000  0.4368840000000 1.0
C      1  0.4683620000000  0.5857800000000  0.5186820000000 1.0
C      1  0.4906650000000  0.4800630000000  0.5569950000000 1.0
END
