TITL C-612603-7354-328 0.989732990064769 125000 -1018.88894578431 0 0 165 (C1) n - 1
REM
REM in /home/nfs/bkarasulu/CARBON/AIRSS/Generating-Clusters/TERSOFF/Only-C1/FIRE-HFTN
REM
REM
REM
REM
REM
REM ./C.cell (11c1c37f851c82e70ff6c80c92926a4b)
REM AIRSS Version 0.9.1 bugfix July 2018 build 013d7b7c2542+ Fri, 06 Jul 2018 19:26:36 +0100
REM compiler GCC version 9.2.1 20190827 (Red Hat 9.2.1-1)
REM options -cpp -mtune=generic -march=x86-64 -g -O0 -fpre-include=/usr/include/finclude/math-vector-fortran.h
REM seed -486944217 -1284490359 1916843854 1348570755 1050751426 837470337 -2136701057 -1932394257 -646558804 1950100723 -505719527 -1921485217 804748603 803797532 2057091675 -1468071477 -642721641 -1827688803 -538469153 1792616752 -1688385046 2002249924 2015782360 -1669752257 1842556770 -1951597802 -1278125992 -1667080256 -322567916 1635188902 1019977699 -1865706826 -66312692
REM
CELL 1.54180   50.00000   50.00000   50.00000   90.00000   90.00000   90.00000
LATT -1
SFAC C  
C      1  0.3768650000000  0.4073630000000  0.4469460000000 1.0
C      1  0.5693260000000  0.4333780000000  0.5443490000000 1.0
C      1  0.6376460000000  0.4710020000000  0.4859250000000 1.0
C      1  0.5642540000000  0.5770260000000  0.4857600000000 1.0
C      1  0.4020490000000  0.4781470000000  0.5228930000000 1.0
C      1  0.4989090000000  0.5697530000000  0.5837200000000 1.0
C      1  0.5803350000000  0.5236580000000  0.5375220000000 1.0
C      1  0.5336230000000  0.4123390000000  0.4817060000000 1.0
C      1  0.4750790000000  0.4344310000000  0.5139250000000 1.0
C      1  0.5404250000000  0.4641780000000  0.4124900000000 1.0
C      1  0.4858070000000  0.5877520000000  0.5649980000000 1.0
C      1  0.3924840000000  0.4881860000000  0.4706540000000 1.0
C      1  0.5058260000000  0.5872780000000  0.5183720000000 1.0
C      1  0.4092370000000  0.5148040000000  0.4332310000000 1.0
C      1  0.5396600000000  0.4659880000000  0.6015850000000 1.0
C      1  0.4483440000000  0.4557750000000  0.5961890000000 1.0
C      1  0.4034330000000  0.4494980000000  0.5259900000000 1.0
C      1  0.4316790000000  0.5835550000000  0.5630530000000 1.0
C      1  0.4614380000000  0.5514620000000  0.3964270000000 1.0
C      1  0.4460040000000  0.4319440000000  0.5819580000000 1.0
C      1  0.5074820000000  0.4289980000000  0.6470880000000 1.0
C      1  0.5937610000000  0.4393580000000  0.5316640000000 1.0
C      1  0.4754600000000  0.4841230000000  0.5134880000000 1.0
C      1  0.4430450000000  0.4650770000000  0.5478450000000 1.0
C      1  0.5460110000000  0.5469630000000  0.6164290000000 1.0
C      1  0.5184890000000  0.4353840000000  0.4438950000000 1.0
C      1  0.5885830000000  0.4604640000000  0.4229990000000 1.0
C      1  0.4880400000000  0.5514340000000  0.6027150000000 1.0
C      1  0.4719120000000  0.5383730000000  0.5368060000000 1.0
C      1  0.4642050000000  0.4176900000000  0.5633100000000 1.0
C      1  0.4624230000000  0.4808710000000  0.6002670000000 1.0
C      1  0.5435130000000  0.4730410000000  0.4612580000000 1.0
C      1  0.5247840000000  0.5071590000000  0.3968250000000 1.0
C      1  0.4949230000000  0.6193400000000  0.3652070000000 1.0
C      1  0.3870350000000  0.5037130000000  0.4475040000000 1.0
C      1  0.5022900000000  0.4947410000000  0.4747150000000 1.0
C      1  0.5453260000000  0.5221270000000  0.5737140000000 1.0
C      1  0.4613300000000  0.5186210000000  0.4823680000000 1.0
C      1  0.4761090000000  0.5084200000000  0.3963790000000 1.0
C      1  0.5673390000000  0.4588640000000  0.4063440000000 1.0
C      1  0.4922660000000  0.4510550000000  0.5659080000000 1.0
C      1  0.5599780000000  0.5364210000000  0.5229630000000 1.0
C      1  0.4972860000000  0.5486680000000  0.4844890000000 1.0
C      1  0.4129300000000  0.5708970000000  0.5470370000000 1.0
C      1  0.5259590000000  0.5504490000000  0.6343350000000 1.0
C      1  0.5004700000000  0.5222980000000  0.3879440000000 1.0
C      1  0.4889120000000  0.5988440000000  0.3821260000000 1.0
C      1  0.4935930000000  0.3969760000000  0.4537620000000 1.0
C      1  0.4352750000000  0.5193370000000  0.5728250000000 1.0
C      1  0.5516210000000  0.4269820000000  0.4975710000000 1.0
C      1  0.4653950000000  0.4693120000000  0.4527870000000 1.0
C      1  0.4268490000000  0.4419800000000  0.5390450000000 1.0
C      1  0.4346770000000  0.5892390000000  0.4853090000000 1.0
C      1  0.5011220000000  0.5609220000000  0.5094420000000 1.0
C      1  0.4984630000000  0.5412300000000  0.5291180000000 1.0
C      1  0.5888820000000  0.4727690000000  0.4484610000000 1.0
C      1  0.5015740000000  0.5429080000000  0.4388620000000 1.0
C      1  0.6097980000000  0.5110140000000  0.4721540000000 1.0
C      1  0.4913990000000  0.3673570000000  0.5328480000000 1.0
C      1  0.6227910000000  0.4504400000000  0.4942100000000 1.0
C      1  0.4995600000000  0.5533240000000  0.6287570000000 1.0
C      1  0.4550470000000  0.5561190000000  0.5257900000000 1.0
C      1  0.5068500000000  0.4359250000000  0.6207630000000 1.0
C      1  0.3965350000000  0.4994110000000  0.5038610000000 1.0
C      1  0.4239480000000  0.4866830000000  0.5416020000000 1.0
C      1  0.6290150000000  0.5224300000000  0.5317880000000 1.0
C      1  0.4775430000000  0.5021760000000  0.4240810000000 1.0
C      1  0.4794950000000  0.5258020000000  0.4391730000000 1.0
C      1  0.5561180000000  0.5900810000000  0.5362610000000 1.0
C      1  0.4009510000000  0.4180280000000  0.4401270000000 1.0
C      1  0.4662070000000  0.5988810000000  0.3990110000000 1.0
C      1  0.5075620000000  0.5932570000000  0.5456450000000 1.0
C      1  0.5343400000000  0.5857100000000  0.5551110000000 1.0
C      1  0.5561220000000  0.3408220000000  0.6039130000000 1.0
C      1  0.5734650000000  0.4438170000000  0.4879470000000 1.0
C      1  0.4545240000000  0.4870180000000  0.4328990000000 1.0
C      1  0.5318730000000  0.5781320000000  0.3911310000000 1.0
C      1  0.4497440000000  0.5938820000000  0.4604760000000 1.0
C      1  0.4360570000000  0.4783220000000  0.4919560000000 1.0
C      1  0.4245100000000  0.4570080000000  0.4810940000000 1.0
C      1  0.4579110000000  0.5845430000000  0.5268530000000 1.0
C      1  0.5232590000000  0.6021890000000  0.5012670000000 1.0
C      1  0.4557760000000  0.5990570000000  0.5034740000000 1.0
C      1  0.5281310000000  0.5680510000000  0.5772210000000 1.0
C      1  0.5696830000000  0.4635700000000  0.4678230000000 1.0
C      1  0.4721710000000  0.3981400000000  0.4377600000000 1.0
C      1  0.6330890000000  0.4961410000000  0.4779670000000 1.0
C      1  0.4238530000000  0.4026050000000  0.4331890000000 1.0
C      1  0.5451090000000  0.5751230000000  0.4607020000000 1.0
C      1  0.4502500000000  0.4108400000000  0.4258610000000 1.0
C      1  0.4899570000000  0.4244580000000  0.5749590000000 1.0
C      1  0.5048720000000  0.5749770000000  0.3841200000000 1.0
C      1  0.5131400000000  0.4621930000000  0.6114270000000 1.0
C      1  0.4962880000000  0.4629140000000  0.3934510000000 1.0
C      1  0.4062150000000  0.4463550000000  0.4387960000000 1.0
C      1  0.5301280000000  0.3557920000000  0.5658670000000 1.0
C      1  0.5739700000000  0.5403990000000  0.4539270000000 1.0
C      1  0.5752620000000  0.5184660000000  0.4355970000000 1.0
C      1  0.4090260000000  0.5563490000000  0.5217170000000 1.0
C      1  0.4721930000000  0.4679700000000  0.5545140000000 1.0
C      1  0.5431950000000  0.5185210000000  0.4177060000000 1.0
C      1  0.5436980000000  0.5467860000000  0.5881260000000 1.0
C      1  0.4906110000000  0.5502150000000  0.3865950000000 1.0
C      1  0.4551630000000  0.5095480000000  0.5912100000000 1.0
C      1  0.4998720000000  0.4179050000000  0.6001380000000 1.0
C      1  0.4568360000000  0.5311790000000  0.4571280000000 1.0
C      1  0.5112600000000  0.3570690000000  0.5472270000000 1.0
C      1  0.4861210000000  0.4870910000000  0.5389730000000 1.0
C      1  0.4799840000000  0.5254640000000  0.5945160000000 1.0
C      1  0.5304150000000  0.4956830000000  0.4720820000000 1.0
C      1  0.4504140000000  0.5237670000000  0.3969860000000 1.0
C      1  0.5400330000000  0.5215870000000  0.4810890000000 1.0
C      1  0.4925270000000  0.4808540000000  0.6045480000000 1.0
C      1  0.5323580000000  0.4587690000000  0.4391880000000 1.0
C      1  0.4265970000000  0.4516600000000  0.4188220000000 1.0
C      1  0.4589250000000  0.5902970000000  0.5553070000000 1.0
C      1  0.5166350000000  0.5841800000000  0.4605000000000 1.0
C      1  0.4861630000000  0.4697580000000  0.4727820000000 1.0
C      1  0.4384580000000  0.5504170000000  0.4480110000000 1.0
C      1  0.5285100000000  0.5352100000000  0.4351610000000 1.0
C      1  0.5975710000000  0.4435770000000  0.5039420000000 1.0
C      1  0.5606070000000  0.4625480000000  0.5827180000000 1.0
C      1  0.5154320000000  0.4131410000000  0.4604070000000 1.0
C      1  0.5105350000000  0.5003660000000  0.5452800000000 1.0
C      1  0.5568940000000  0.5861780000000  0.4352660000000 1.0
C      1  0.5167220000000  0.5203590000000  0.5266540000000 1.0
C      1  0.4746440000000  0.3872360000000  0.5269800000000 1.0
C      1  0.4679680000000  0.4138430000000  0.5339500000000 1.0
C      1  0.4511200000000  0.4370440000000  0.4131560000000 1.0
C      1  0.4813590000000  0.4588400000000  0.4996150000000 1.0
C      1  0.4036020000000  0.4618680000000  0.4630030000000 1.0
C      1  0.5475630000000  0.3613750000000  0.5870570000000 1.0
C      1  0.4902730000000  0.5203530000000  0.4833600000000 1.0
C      1  0.4133180000000  0.5418470000000  0.4399690000000 1.0
C      1  0.5846510000000  0.5528080000000  0.4796560000000 1.0
C      1  0.3613860000000  0.5076950000000  0.4389220000000 1.0
C      1  0.5209420000000  0.4778880000000  0.3971490000000 1.0
C      1  0.5647990000000  0.4364340000000  0.5719850000000 1.0
C      1  0.5939020000000  0.5007290000000  0.4494470000000 1.0
C      1  0.5493220000000  0.4259010000000  0.5258630000000 1.0
C      1  0.4155520000000  0.5715890000000  0.4975880000000 1.0
C      1  0.4786130000000  0.6078510000000  0.4779170000000 1.0
C      1  0.5445230000000  0.5436800000000  0.4588360000000 1.0
C      1  0.4543640000000  0.4974510000000  0.4994690000000 1.0
C      1  0.5204160000000  0.5069480000000  0.5715000000000 1.0
C      1  0.5508650000000  0.5924470000000  0.5073210000000 1.0
C      1  0.5014640000000  0.5058220000000  0.5925960000000 1.0
C      1  0.4083170000000  0.5270960000000  0.5235310000000 1.0
C      1  0.4555260000000  0.5758850000000  0.4114800000000 1.0
C      1  0.5818320000000  0.5927520000000  0.5455550000000 1.0
C      1  0.5641660000000  0.3216220000000  0.6195940000000 1.0
C      1  0.4323600000000  0.5037370000000  0.4199400000000 1.0
C      1  0.5385900000000  0.5255000000000  0.5094100000000 1.0
C      1  0.4998940000000  0.5617590000000  0.4597500000000 1.0
C      1  0.5070670000000  0.6052150000000  0.4770150000000 1.0
C      1  0.6007630000000  0.5312490000000  0.4919300000000 1.0
C      1  0.4741640000000  0.4483700000000  0.4001880000000 1.0
C      1  0.4479410000000  0.5756580000000  0.4391900000000 1.0
C      1  0.5623120000000  0.4131690000000  0.5873190000000 1.0
C      1  0.5743430000000  0.4846950000000  0.5712180000000 1.0
C      1  0.4227210000000  0.5144490000000  0.5475020000000 1.0
C      1  0.5563930000000  0.3875980000000  0.5913150000000 1.0
C      1  0.5502700000000  0.5849350000000  0.4092840000000 1.0
C      1  0.6040530000000  0.5252070000000  0.5207710000000 1.0
C      1  0.5696290000000  0.5109870000000  0.5617170000000 1.0
END
