TITL C-612600-6631-334 14.0372596364125 125000 -674.717172880888 0 0 113 (C1) n - 1
REM
REM in /home/nfs/bkarasulu/CARBON/AIRSS/Generating-Clusters/TERSOFF/Only-C1/FIRE-HFTN
REM
REM
REM
REM
REM
REM ./C.cell (11c1c37f851c82e70ff6c80c92926a4b)
REM AIRSS Version 0.9.1 bugfix July 2018 build 013d7b7c2542+ Fri, 06 Jul 2018 19:26:36 +0100
REM compiler GCC version 9.2.1 20190827 (Red Hat 9.2.1-1)
REM options -cpp -mtune=generic -march=x86-64 -g -O0 -fpre-include=/usr/include/finclude/math-vector-fortran.h
REM seed 877088970 -1499869763 -885304785 -2040954101 644996211 -1551875508 -120048260 -1190923232 508579381 1309146780 -1121741402 1963665902 1580020627 -896636481 1562492425 1591436584 464942966 2016043923 -9077026 -1492468640 -1404942530 1781081056 -656395602 424516063 -1239850386 117236769 -593948555 -1220664498 312222610 1122453058 -1617843449 -18850140 1525942605
REM
CELL 1.54180   50.00000   50.00000   50.00000   90.00000   90.00000   90.00000
LATT -1
SFAC C  
C      1  0.4739960000000  0.4890630000000  0.4289550000000 1.0
C      1  0.4710080000000  0.4944350000000  0.3795230000000 1.0
C      1  0.5148300000000  0.5261290000000  0.4052190000000 1.0
C      1  0.4793300000000  0.5536480000000  0.4381640000000 1.0
C      1  0.4697210000000  0.4128290000000  0.5386050000000 1.0
C      1  0.5289050000000  0.4972360000000  0.5263380000000 1.0
C      1  0.5662610000000  0.4662570000000  0.4719450000000 1.0
C      1  0.3872920000000  0.4781600000000  0.5045620000000 1.0
C      1  0.5628450000000  0.5393920000000  0.4463340000000 1.0
C      1  0.4613540000000  0.4480820000000  0.5716690000000 1.0
C      1  0.4932360000000  0.4137690000000  0.4947810000000 1.0
C      1  0.5062860000000  0.5636850000000  0.5482310000000 1.0
C      1  0.5303790000000  0.4199650000000  0.5743180000000 1.0
C      1  0.5725670000000  0.5602940000000  0.4610620000000 1.0
C      1  0.4699050000000  0.5793400000000  0.4505330000000 1.0
C      1  0.4687930000000  0.5856850000000  0.5118890000000 1.0
C      1  0.5275990000000  0.5792660000000  0.5379610000000 1.0
C      1  0.3767800000000  0.4974590000000  0.5195230000000 1.0
C      1  0.4876760000000  0.4408680000000  0.5833250000000 1.0
C      1  0.5380570000000  0.3996100000000  0.5070600000000 1.0
C      1  0.5507100000000  0.4486440000000  0.4550370000000 1.0
C      1  0.5684950000000  0.4921510000000  0.4608160000000 1.0
C      1  0.4079260000000  0.4641600000000  0.4953970000000 1.0
C      1  0.4239360000000  0.4228220000000  0.5461280000000 1.0
C      1  0.4437580000000  0.4308060000000  0.5032700000000 1.0
C      1  0.4617050000000  0.5493770000000  0.5727040000000 1.0
C      1  0.5095140000000  0.4562540000000  0.5200920000000 1.0
C      1  0.4380560000000  0.4586590000000  0.4933930000000 1.0
C      1  0.4794770000000  0.5369710000000  0.5077280000000 1.0
C      1  0.4619380000000  0.5006880000000  0.4051450000000 1.0
C      1  0.5088600000000  0.5026250000000  0.6084910000000 1.0
C      1  0.5120170000000  0.4765810000000  0.5399930000000 1.0
C      1  0.4401140000000  0.5615750000000  0.4850910000000 1.0
C      1  0.5468260000000  0.4056050000000  0.5570440000000 1.0
C      1  0.5665440000000  0.5083410000000  0.5736910000000 1.0
C      1  0.5169520000000  0.4582800000000  0.3932480000000 1.0
C      1  0.5281850000000  0.5014330000000  0.4143910000000 1.0
C      1  0.5297910000000  0.6064540000000  0.4852140000000 1.0
C      1  0.4950210000000  0.5156160000000  0.4952590000000 1.0
C      1  0.5107490000000  0.6075240000000  0.4659410000000 1.0
C      1  0.5067970000000  0.4764810000000  0.6138180000000 1.0
C      1  0.5771990000000  0.5521510000000  0.5527270000000 1.0
C      1  0.5361140000000  0.4271770000000  0.4674930000000 1.0
C      1  0.4924980000000  0.4403790000000  0.4505960000000 1.0
C      1  0.4155290000000  0.5353810000000  0.5687250000000 1.0
C      1  0.5484440000000  0.3979690000000  0.5315280000000 1.0
C      1  0.6038650000000  0.5492950000000  0.4951110000000 1.0
C      1  0.4216980000000  0.4207460000000  0.5189890000000 1.0
C      1  0.5817500000000  0.5652940000000  0.4877730000000 1.0
C      1  0.4621810000000  0.4830580000000  0.5375850000000 1.0
C      1  0.4694030000000  0.4187890000000  0.5103120000000 1.0
C      1  0.5399300000000  0.5154990000000  0.5700540000000 1.0
C      1  0.4988560000000  0.5448050000000  0.4185300000000 1.0
C      1  0.5930470000000  0.4837550000000  0.5436240000000 1.0
C      1  0.5939150000000  0.4789150000000  0.5153160000000 1.0
C      1  0.5584280000000  0.4602670000000  0.5773910000000 1.0
C      1  0.5241610000000  0.5042400000000  0.4429370000000 1.0
C      1  0.5346410000000  0.4733400000000  0.4095380000000 1.0
C      1  0.4576970000000  0.5342960000000  0.4460290000000 1.0
C      1  0.5091610000000  0.4685220000000  0.4938770000000 1.0
C      1  0.4573400000000  0.5169460000000  0.4688020000000 1.0
C      1  0.5093430000000  0.5357390000000  0.5445260000000 1.0
C      1  0.4011540000000  0.5741960000000  0.4278710000000 1.0
C      1  0.4994110000000  0.4393250000000  0.4008710000000 1.0
C      1  0.5492650000000  0.5143030000000  0.4575370000000 1.0
C      1  0.5141650000000  0.5134340000000  0.5835540000000 1.0
C      1  0.5661730000000  0.5778050000000  0.5082160000000 1.0
C      1  0.5110480000000  0.5623020000000  0.4804020000000 1.0
C      1  0.4515060000000  0.4750200000000  0.5640050000000 1.0
C      1  0.5427150000000  0.5245880000000  0.4843900000000 1.0
C      1  0.4502970000000  0.4267150000000  0.5554880000000 1.0
C      1  0.4454670000000  0.4611330000000  0.4644640000000 1.0
C      1  0.5356580000000  0.4460030000000  0.5855010000000 1.0
C      1  0.4349030000000  0.5368920000000  0.4285990000000 1.0
C      1  0.3789110000000  0.5168240000000  0.5376200000000 1.0
C      1  0.4412910000000  0.5732500000000  0.4585660000000 1.0
C      1  0.5520720000000  0.4560190000000  0.4262840000000 1.0
C      1  0.3795570000000  0.5855750000000  0.4187490000000 1.0
C      1  0.5292440000000  0.5466050000000  0.4899680000000 1.0
C      1  0.5731680000000  0.4808350000000  0.5653500000000 1.0
C      1  0.5156310000000  0.4968100000000  0.5007990000000 1.0
C      1  0.4241150000000  0.5621020000000  0.4375190000000 1.0
C      1  0.5336460000000  0.5205910000000  0.5415000000000 1.0
C      1  0.4722140000000  0.6043030000000  0.4924220000000 1.0
C      1  0.4884110000000  0.4920410000000  0.5463680000000 1.0
C      1  0.4564040000000  0.4709100000000  0.4422460000000 1.0
C      1  0.3930550000000  0.5308280000000  0.5552540000000 1.0
C      1  0.5216940000000  0.4127820000000  0.4881710000000 1.0
C      1  0.4900390000000  0.4009720000000  0.5534260000000 1.0
C      1  0.4955900000000  0.4995930000000  0.4466580000000 1.0
C      1  0.5774540000000  0.4633230000000  0.4980150000000 1.0
C      1  0.4946140000000  0.5160760000000  0.5611570000000 1.0
C      1  0.4770880000000  0.4909920000000  0.3544120000000 1.0
C      1  0.6098450000000  0.4983200000000  0.5016380000000 1.0
C      1  0.4990720000000  0.4565760000000  0.4709120000000 1.0
C      1  0.4495270000000  0.4829730000000  0.5104280000000 1.0
C      1  0.5619940000000  0.5675480000000  0.5353660000000 1.0
C      1  0.4389430000000  0.5179250000000  0.4081090000000 1.0
C      1  0.4910210000000  0.4319820000000  0.4252650000000 1.0
C      1  0.4814860000000  0.5661220000000  0.5633840000000 1.0
C      1  0.5018870000000  0.4164040000000  0.5734380000000 1.0
C      1  0.4846090000000  0.5096900000000  0.4702690000000 1.0
C      1  0.5097270000000  0.4554400000000  0.5958780000000 1.0
C      1  0.4457980000000  0.4994340000000  0.5785960000000 1.0
C      1  0.4421050000000  0.5281210000000  0.5749340000000 1.0
C      1  0.4834580000000  0.5996810000000  0.4664040000000 1.0
C      1  0.5417170000000  0.5929450000000  0.5062520000000 1.0
C      1  0.4442290000000  0.5062420000000  0.4921840000000 1.0
C      1  0.5735140000000  0.4447290000000  0.4125980000000 1.0
C      1  0.6052770000000  0.5099160000000  0.5507740000000 1.0
C      1  0.5860850000000  0.5275060000000  0.5631180000000 1.0
C      1  0.4610410000000  0.5591530000000  0.5049940000000 1.0
C      1  0.6133120000000  0.5243630000000  0.4967250000000 1.0
END
