TITL C-612604-1799-856 1.13227205244884e-05 125000 -676.928446858272 0 0 109 (C1) n - 1
REM
REM in /home/nfs/bkarasulu/CARBON/AIRSS/Generating-Clusters/TERSOFF/Only-C1/FIRE-HFTN
REM
REM
REM
REM
REM
REM ./C.cell (11c1c37f851c82e70ff6c80c92926a4b)
REM AIRSS Version 0.9.1 bugfix July 2018 build 013d7b7c2542+ Fri, 06 Jul 2018 19:26:36 +0100
REM compiler GCC version 9.2.1 20190827 (Red Hat 9.2.1-1)
REM options -cpp -mtune=generic -march=x86-64 -g -O0 -fpre-include=/usr/include/finclude/math-vector-fortran.h
REM seed -1342125453 -1314503458 747641408 -712630409 -616968332 -738160690 1155305689 1436915662 506305379 1056451988 -103843037 533549438 -870912924 -1539376451 1686483919 -1666998561 1803819738 -1755540875 -194331828 1377713292 462556739 -2130726336 -56940050 552054314 2033091072 -795114347 -588065036 -1409936991 -604635087 701207181 352682453 1702858385 -525039251
REM
CELL 1.54180   50.00000   50.00000   50.00000   90.00000   90.00000   90.00000
LATT -1
SFAC C  
C      1  0.4793440000000  0.4428000000000  0.4984970000000 1.0
C      1  0.5084500000000  0.5005770000000  0.6054630000000 1.0
C      1  0.4235860000000  0.5860620000000  0.4837910000000 1.0
C      1  0.4985080000000  0.4971180000000  0.4468710000000 1.0
C      1  0.4225640000000  0.4809430000000  0.5608080000000 1.0
C      1  0.4823000000000  0.4993750000000  0.4242220000000 1.0
C      1  0.4276510000000  0.5952000000000  0.5085990000000 1.0
C      1  0.5754120000000  0.4793180000000  0.4738780000000 1.0
C      1  0.5781180000000  0.4991140000000  0.5730570000000 1.0
C      1  0.4444780000000  0.5244060000000  0.5656300000000 1.0
C      1  0.5182510000000  0.4626090000000  0.5739850000000 1.0
C      1  0.5138810000000  0.4740490000000  0.3992100000000 1.0
C      1  0.4478250000000  0.4675720000000  0.5710540000000 1.0
C      1  0.5677640000000  0.4726160000000  0.5750680000000 1.0
C      1  0.3884740000000  0.4675180000000  0.5234180000000 1.0
C      1  0.5246220000000  0.4521050000000  0.4115120000000 1.0
C      1  0.4990160000000  0.4798250000000  0.5887190000000 1.0
C      1  0.5025470000000  0.5998860000000  0.4696140000000 1.0
C      1  0.5107830000000  0.5042760000000  0.5100820000000 1.0
C      1  0.5208100000000  0.4191580000000  0.4794810000000 1.0
C      1  0.5832770000000  0.4382550000000  0.4495650000000 1.0
C      1  0.5307810000000  0.5856240000000  0.3813320000000 1.0
C      1  0.5928150000000  0.5106180000000  0.5515970000000 1.0
C      1  0.4863880000000  0.5445810000000  0.5157810000000 1.0
C      1  0.5862790000000  0.5281250000000  0.5301740000000 1.0
C      1  0.5379510000000  0.5082950000000  0.5179110000000 1.0
C      1  0.4724810000000  0.5010440000000  0.5352270000000 1.0
C      1  0.5330460000000  0.4130680000000  0.5322480000000 1.0
C      1  0.5207690000000  0.4647580000000  0.5268260000000 1.0
C      1  0.5281670000000  0.5865250000000  0.4718230000000 1.0
C      1  0.4432840000000  0.5636500000000  0.4454710000000 1.0
C      1  0.4956720000000  0.4320530000000  0.4785380000000 1.0
C      1  0.4709810000000  0.4842330000000  0.5793810000000 1.0
C      1  0.5133880000000  0.5268710000000  0.6065790000000 1.0
C      1  0.5457910000000  0.4820600000000  0.5294370000000 1.0
C      1  0.4517070000000  0.3964150000000  0.5017860000000 1.0
C      1  0.5526830000000  0.5537440000000  0.5061000000000 1.0
C      1  0.5835140000000  0.4862150000000  0.5003150000000 1.0
C      1  0.4891320000000  0.4460890000000  0.4538600000000 1.0
C      1  0.5521920000000  0.5915240000000  0.4266370000000 1.0
C      1  0.4474400000000  0.4004320000000  0.4754820000000 1.0
C      1  0.5033570000000  0.4707780000000  0.4556880000000 1.0
C      1  0.5664130000000  0.4257290000000  0.4696400000000 1.0
C      1  0.4397590000000  0.5755860000000  0.5552100000000 1.0
C      1  0.5641570000000  0.4258430000000  0.4984670000000 1.0
C      1  0.5692500000000  0.4363170000000  0.4245510000000 1.0
C      1  0.5169030000000  0.5609960000000  0.4336120000000 1.0
C      1  0.4019700000000  0.4667960000000  0.5468320000000 1.0
C      1  0.5058960000000  0.4539370000000  0.5493040000000 1.0
C      1  0.4551670000000  0.5014030000000  0.4247080000000 1.0
C      1  0.4229370000000  0.5097870000000  0.5532320000000 1.0
C      1  0.4976110000000  0.4978430000000  0.4001920000000 1.0
C      1  0.4909440000000  0.5177990000000  0.5232970000000 1.0
C      1  0.5110160000000  0.4762350000000  0.5021970000000 1.0
C      1  0.5704830000000  0.4701680000000  0.5204120000000 1.0
C      1  0.5660250000000  0.5193480000000  0.5883320000000 1.0
C      1  0.5362840000000  0.5780140000000  0.4455550000000 1.0
C      1  0.4842570000000  0.4359150000000  0.5547270000000 1.0
C      1  0.4334230000000  0.4958480000000  0.5092170000000 1.0
C      1  0.5367160000000  0.4148980000000  0.5035290000000 1.0
C      1  0.4568370000000  0.4831890000000  0.5182100000000 1.0
C      1  0.4468810000000  0.4357800000000  0.5314150000000 1.0
C      1  0.5695290000000  0.4416500000000  0.5228490000000 1.0
C      1  0.5094460000000  0.5695580000000  0.3778450000000 1.0
C      1  0.5387490000000  0.4237310000000  0.4564970000000 1.0
C      1  0.5516890000000  0.5418870000000  0.5803280000000 1.0
C      1  0.5554700000000  0.5589630000000  0.5562620000000 1.0
C      1  0.4672800000000  0.5073120000000  0.5625610000000 1.0
C      1  0.5307190000000  0.5678990000000  0.4940510000000 1.0
C      1  0.4440380000000  0.5521760000000  0.5673020000000 1.0
C      1  0.4336740000000  0.5909420000000  0.5342560000000 1.0
C      1  0.4977040000000  0.5384780000000  0.4718310000000 1.0
C      1  0.4618920000000  0.5464270000000  0.5002460000000 1.0
C      1  0.4587780000000  0.4550800000000  0.5131070000000 1.0
C      1  0.5408490000000  0.5139130000000  0.4702420000000 1.0
C      1  0.5342790000000  0.5786950000000  0.5593580000000 1.0
C      1  0.5173110000000  0.5720210000000  0.5802450000000 1.0
C      1  0.5259580000000  0.5477930000000  0.5931980000000 1.0
C      1  0.5515050000000  0.4327690000000  0.5461750000000 1.0
C      1  0.5481590000000  0.5941260000000  0.4000370000000 1.0
C      1  0.3964890000000  0.5180850000000  0.4684410000000 1.0
C      1  0.5477820000000  0.4852650000000  0.4692140000000 1.0
C      1  0.5099500000000  0.3990060000000  0.5402050000000 1.0
C      1  0.5677500000000  0.5514190000000  0.5318010000000 1.0
C      1  0.4808630000000  0.5935330000000  0.4543270000000 1.0
C      1  0.4948700000000  0.5508050000000  0.3935060000000 1.0
C      1  0.3864120000000  0.4950590000000  0.4785730000000 1.0
C      1  0.4977530000000  0.5230070000000  0.3871370000000 1.0
C      1  0.4101400000000  0.5401610000000  0.4799490000000 1.0
C      1  0.5917430000000  0.4637710000000  0.4573530000000 1.0
C      1  0.5135220000000  0.5184450000000  0.4600620000000 1.0
C      1  0.4699210000000  0.5724680000000  0.4375330000000 1.0
C      1  0.4690050000000  0.5380270000000  0.4747580000000 1.0
C      1  0.5538590000000  0.5244970000000  0.4965560000000 1.0
C      1  0.4665380000000  0.4342510000000  0.4419160000000 1.0
C      1  0.4194090000000  0.5153450000000  0.5246970000000 1.0
C      1  0.4910240000000  0.5595470000000  0.4210960000000 1.0
C      1  0.4586050000000  0.4085780000000  0.5262740000000 1.0
C      1  0.5402520000000  0.4351740000000  0.4285550000000 1.0
C      1  0.3833790000000  0.4777590000000  0.4990210000000 1.0
C      1  0.4840620000000  0.4095860000000  0.5417330000000 1.0
C      1  0.4510900000000  0.4148260000000  0.4529700000000 1.0
C      1  0.4240130000000  0.5627260000000  0.4674180000000 1.0
C      1  0.5468580000000  0.4534770000000  0.5692430000000 1.0
C      1  0.4110900000000  0.5373900000000  0.5089260000000 1.0
C      1  0.5066150000000  0.5531110000000  0.4962820000000 1.0
C      1  0.4564790000000  0.4442170000000  0.5576120000000 1.0
C      1  0.5820820000000  0.5146140000000  0.5046250000000 1.0
C      1  0.5230160000000  0.4715180000000  0.4764710000000 1.0
END
