TITL C-612600-6631-534 4.6322481209965 125000 -1070.25476024784 0 0 174 (C1) n - 1
REM
REM in /home/nfs/bkarasulu/CARBON/AIRSS/Generating-Clusters/TERSOFF/Only-C1/FIRE-HFTN
REM
REM
REM
REM
REM
REM ./C.cell (11c1c37f851c82e70ff6c80c92926a4b)
REM AIRSS Version 0.9.1 bugfix July 2018 build 013d7b7c2542+ Fri, 06 Jul 2018 19:26:36 +0100
REM compiler GCC version 9.2.1 20190827 (Red Hat 9.2.1-1)
REM options -cpp -mtune=generic -march=x86-64 -g -O0 -fpre-include=/usr/include/finclude/math-vector-fortran.h
REM seed 95016287 -1338613103 -1550424545 1251100435 1825216932 -1227861935 -2131174743 1739357473 1191572556 1260122188 -2010719878 1381920965 -460940134 55411225 -499397928 909349477 -601721444 2054185393 1474490803 -100161084 -1659063227 -2061994977 -2067940070 -187369008 2097410043 1380035206 1149027490 -264089183 6699746 1479705104 1394434917 851078574 1189574316
REM
CELL 1.54180   50.00000   50.00000   50.00000   90.00000   90.00000   90.00000
LATT -1
SFAC C  
C      1  0.4771150000000  0.4556710000000  0.4834680000000 1.0
C      1  0.5880680000000  0.5102730000000  0.4258410000000 1.0
C      1  0.6027170000000  0.5279570000000  0.4658380000000 1.0
C      1  0.4168530000000  0.5396560000000  0.4010900000000 1.0
C      1  0.5235300000000  0.6114600000000  0.4913580000000 1.0
C      1  0.6034510000000  0.4767430000000  0.4582160000000 1.0
C      1  0.4866920000000  0.4786640000000  0.5885880000000 1.0
C      1  0.4038560000000  0.4871080000000  0.5333130000000 1.0
C      1  0.4501060000000  0.4276330000000  0.4304810000000 1.0
C      1  0.6034710000000  0.5038500000000  0.4490870000000 1.0
C      1  0.5164490000000  0.4397240000000  0.5819780000000 1.0
C      1  0.5637470000000  0.4964770000000  0.4907650000000 1.0
C      1  0.5362550000000  0.4209620000000  0.4270010000000 1.0
C      1  0.3885820000000  0.5219280000000  0.4885590000000 1.0
C      1  0.4955240000000  0.4978480000000  0.5151760000000 1.0
C      1  0.4600530000000  0.4841770000000  0.3786420000000 1.0
C      1  0.4281640000000  0.5452470000000  0.5104920000000 1.0
C      1  0.5896300000000  0.4845270000000  0.5939840000000 1.0
C      1  0.5304550000000  0.3810290000000  0.4834280000000 1.0
C      1  0.4743100000000  0.4885650000000  0.5318430000000 1.0
C      1  0.4655490000000  0.5886990000000  0.5781010000000 1.0
C      1  0.5167590000000  0.5019630000000  0.3919680000000 1.0
C      1  0.5288110000000  0.3742120000000  0.5111970000000 1.0
C      1  0.5675320000000  0.4440590000000  0.4855520000000 1.0
C      1  0.5119950000000  0.4484340000000  0.3932030000000 1.0
C      1  0.3944310000000  0.4223080000000  0.5136970000000 1.0
C      1  0.4086930000000  0.5375160000000  0.4692880000000 1.0
C      1  0.4726040000000  0.5095500000000  0.3778560000000 1.0
C      1  0.5287820000000  0.5593870000000  0.4165690000000 1.0
C      1  0.4613820000000  0.4489780000000  0.4127390000000 1.0
C      1  0.5222670000000  0.4897130000000  0.5111110000000 1.0
C      1  0.4289650000000  0.4925290000000  0.5200160000000 1.0
C      1  0.4401170000000  0.4999350000000  0.4163230000000 1.0
C      1  0.5762150000000  0.4694770000000  0.4990410000000 1.0
C      1  0.4795120000000  0.5934280000000  0.5532340000000 1.0
C      1  0.4771510000000  0.4773740000000  0.4658900000000 1.0
C      1  0.5484330000000  0.5074200000000  0.6027980000000 1.0
C      1  0.5606000000000  0.4501430000000  0.3967030000000 1.0
C      1  0.5641070000000  0.5257650000000  0.5040020000000 1.0
C      1  0.5000240000000  0.5556140000000  0.4178240000000 1.0
C      1  0.5329430000000  0.4651400000000  0.4423970000000 1.0
C      1  0.4427820000000  0.5109060000000  0.4797420000000 1.0
C      1  0.5313470000000  0.5151210000000  0.4646800000000 1.0
C      1  0.5869510000000  0.4804430000000  0.5472150000000 1.0
C      1  0.5432970000000  0.5958460000000  0.4495130000000 1.0
C      1  0.5415940000000  0.4880390000000  0.5348340000000 1.0
C      1  0.5381530000000  0.6172510000000  0.5551250000000 1.0
C      1  0.5139570000000  0.4815570000000  0.4340210000000 1.0
C      1  0.4358970000000  0.5942720000000  0.5294760000000 1.0
C      1  0.5350170000000  0.4948390000000  0.4846650000000 1.0
C      1  0.6389530000000  0.4956830000000  0.5136070000000 1.0
C      1  0.4293420000000  0.5635930000000  0.5349630000000 1.0
C      1  0.5519100000000  0.3996700000000  0.4791920000000 1.0
C      1  0.4631460000000  0.6066060000000  0.5329160000000 1.0
C      1  0.5212230000000  0.4343090000000  0.4765160000000 1.0
C      1  0.5533990000000  0.5412290000000  0.4786570000000 1.0
C      1  0.4661280000000  0.5734400000000  0.4992130000000 1.0
C      1  0.4244670000000  0.6012310000000  0.5041330000000 1.0
C      1  0.5763370000000  0.5409890000000  0.4584140000000 1.0
C      1  0.5284410000000  0.4860030000000  0.5633490000000 1.0
C      1  0.4529430000000  0.4511700000000  0.6137570000000 1.0
C      1  0.4933560000000  0.4000990000000  0.6043450000000 1.0
C      1  0.4655920000000  0.4753670000000  0.6082100000000 1.0
C      1  0.5449180000000  0.4046420000000  0.5476480000000 1.0
C      1  0.4688370000000  0.4035250000000  0.6145640000000 1.0
C      1  0.5552200000000  0.6015490000000  0.5682680000000 1.0
C      1  0.5350540000000  0.5641760000000  0.4850570000000 1.0
C      1  0.5700840000000  0.5331340000000  0.4306320000000 1.0
C      1  0.5472850000000  0.5372820000000  0.4133690000000 1.0
C      1  0.5308310000000  0.5104750000000  0.5803990000000 1.0
C      1  0.4141610000000  0.4126120000000  0.4951100000000 1.0
C      1  0.4661160000000  0.3991950000000  0.4889460000000 1.0
C      1  0.4876980000000  0.4377360000000  0.4033480000000 1.0
C      1  0.4329010000000  0.5168570000000  0.5058430000000 1.0
C      1  0.4221420000000  0.5589130000000  0.4849840000000 1.0
C      1  0.5390180000000  0.5837830000000  0.4260500000000 1.0
C      1  0.4584640000000  0.4996680000000  0.6228040000000 1.0
C      1  0.4302760000000  0.4545060000000  0.4813260000000 1.0
C      1  0.5400850000000  0.4956100000000  0.6267490000000 1.0
C      1  0.5420120000000  0.5158750000000  0.3951350000000 1.0
C      1  0.6053220000000  0.5276150000000  0.5290940000000 1.0
C      1  0.4661320000000  0.5434740000000  0.6078070000000 1.0
C      1  0.5066900000000  0.5257550000000  0.4557760000000 1.0
C      1  0.5579180000000  0.5152280000000  0.5334160000000 1.0
C      1  0.4917550000000  0.5127270000000  0.3988130000000 1.0
C      1  0.5879360000000  0.4667680000000  0.5720370000000 1.0
C      1  0.4671640000000  0.6215590000000  0.4833760000000 1.0
C      1  0.5670690000000  0.4694910000000  0.5283940000000 1.0
C      1  0.4447170000000  0.5236440000000  0.6110460000000 1.0
C      1  0.5366890000000  0.5914660000000  0.4764150000000 1.0
C      1  0.4516460000000  0.4753030000000  0.5201030000000 1.0
C      1  0.5827550000000  0.5603770000000  0.5874000000000 1.0
C      1  0.3855280000000  0.4755060000000  0.5145770000000 1.0
C      1  0.4993820000000  0.5247470000000  0.6325590000000 1.0
C      1  0.5901980000000  0.4551760000000  0.4428180000000 1.0
C      1  0.5072170000000  0.6212370000000  0.5124140000000 1.0
C      1  0.4460360000000  0.5678880000000  0.5775660000000 1.0
C      1  0.4384670000000  0.3975800000000  0.4961860000000 1.0
C      1  0.5868030000000  0.5350920000000  0.5949500000000 1.0
C      1  0.4527390000000  0.4575870000000  0.4981180000000 1.0
C      1  0.5627340000000  0.4967810000000  0.3878130000000 1.0
C      1  0.4965390000000  0.5355670000000  0.4805820000000 1.0
C      1  0.5373100000000  0.4802650000000  0.6476530000000 1.0
C      1  0.5276020000000  0.4382820000000  0.4486750000000 1.0
C      1  0.4004800000000  0.5117120000000  0.5870510000000 1.0
C      1  0.5805710000000  0.4341280000000  0.4604180000000 1.0
C      1  0.4989010000000  0.4063320000000  0.5281610000000 1.0
C      1  0.4191350000000  0.5311190000000  0.5984980000000 1.0
C      1  0.4715970000000  0.5356730000000  0.5481690000000 1.0
C      1  0.5707740000000  0.5823730000000  0.5782880000000 1.0
C      1  0.4781590000000  0.6197750000000  0.5103130000000 1.0
C      1  0.4395410000000  0.5835230000000  0.4841510000000 1.0
C      1  0.4960980000000  0.4361530000000  0.4893690000000 1.0
C      1  0.5113280000000  0.4156940000000  0.5922350000000 1.0
C      1  0.5453260000000  0.4265650000000  0.4899810000000 1.0
C      1  0.4170050000000  0.5113810000000  0.4031050000000 1.0
C      1  0.3963960000000  0.4960110000000  0.3939350000000 1.0
C      1  0.4194520000000  0.5563470000000  0.5828080000000 1.0
C      1  0.4790800000000  0.3934790000000  0.4629960000000 1.0
C      1  0.5806520000000  0.4615540000000  0.4158290000000 1.0
C      1  0.4677630000000  0.5004320000000  0.4782040000000 1.0
C      1  0.5206310000000  0.6256390000000  0.5368020000000 1.0
C      1  0.4065770000000  0.5561270000000  0.5549310000000 1.0
C      1  0.4327540000000  0.5240470000000  0.4566790000000 1.0
C      1  0.4156020000000  0.4329770000000  0.4752790000000 1.0
C      1  0.3937070000000  0.5323150000000  0.5441130000000 1.0
C      1  0.5240030000000  0.3934590000000  0.5318500000000 1.0
C      1  0.4712180000000  0.4080020000000  0.4386940000000 1.0
C      1  0.5503870000000  0.4721270000000  0.3795050000000 1.0
C      1  0.5052920000000  0.5275350000000  0.5806590000000 1.0
C      1  0.6278580000000  0.4738760000000  0.5023010000000 1.0
C      1  0.4529140000000  0.4248090000000  0.6175600000000 1.0
C      1  0.4515890000000  0.4750170000000  0.4046740000000 1.0
C      1  0.3829270000000  0.4470660000000  0.5159320000000 1.0
C      1  0.5060710000000  0.3818840000000  0.4670810000000 1.0
C      1  0.4866740000000  0.5290930000000  0.4270370000000 1.0
C      1  0.5822220000000  0.4901710000000  0.4076460000000 1.0
C      1  0.4519270000000  0.5545100000000  0.5518780000000 1.0
C      1  0.4058130000000  0.5060710000000  0.5573930000000 1.0
C      1  0.5208190000000  0.4741710000000  0.3828840000000 1.0
C      1  0.5567750000000  0.4023910000000  0.4323360000000 1.0
C      1  0.5765840000000  0.5092930000000  0.5988180000000 1.0
C      1  0.6044830000000  0.4721640000000  0.4869500000000 1.0
C      1  0.4519010000000  0.6041790000000  0.4660200000000 1.0
C      1  0.3817540000000  0.4932090000000  0.4913850000000 1.0
C      1  0.4978480000000  0.5462420000000  0.5559570000000 1.0
C      1  0.4235950000000  0.4209360000000  0.4288740000000 1.0
C      1  0.4966340000000  0.5721640000000  0.5414300000000 1.0
C      1  0.5367330000000  0.4344600000000  0.4022110000000 1.0
C      1  0.4795900000000  0.5076140000000  0.6411090000000 1.0
C      1  0.3840380000000  0.5328240000000  0.5164460000000 1.0
C      1  0.4885230000000  0.4796180000000  0.4411560000000 1.0
C      1  0.5869360000000  0.5095900000000  0.5432280000000 1.0
C      1  0.4366230000000  0.5851270000000  0.4193390000000 1.0
C      1  0.5699070000000  0.4064460000000  0.4569800000000 1.0
C      1  0.4852660000000  0.4143220000000  0.5048210000000 1.0
C      1  0.5106100000000  0.4664380000000  0.5768380000000 1.0
C      1  0.4896530000000  0.4115430000000  0.4165990000000 1.0
C      1  0.4947680000000  0.5382430000000  0.6075110000000 1.0
C      1  0.4374540000000  0.5044290000000  0.5606380000000 1.0
C      1  0.6229480000000  0.5313840000000  0.4852510000000 1.0
C      1  0.4857630000000  0.5141010000000  0.4944120000000 1.0
C      1  0.5871060000000  0.5436170000000  0.5126560000000 1.0
C      1  0.5093120000000  0.5563710000000  0.4944870000000 1.0
C      1  0.4249700000000  0.5644580000000  0.4070080000000 1.0
C      1  0.4674940000000  0.5285300000000  0.3590490000000 1.0
C      1  0.4522040000000  0.5195160000000  0.4342030000000 1.0
C      1  0.4661850000000  0.5073200000000  0.5538700000000 1.0
C      1  0.4917760000000  0.5693550000000  0.5121810000000 1.0
C      1  0.5778390000000  0.4400370000000  0.5713370000000 1.0
C      1  0.5631070000000  0.4201030000000  0.5603860000000 1.0
C      1  0.6271640000000  0.5211420000000  0.5118680000000 1.0
C      1  0.4472130000000  0.6002790000000  0.4387110000000 1.0
C      1  0.4844170000000  0.5039480000000  0.5765050000000 1.0
END
