TITL C-612605-9286-372 563.328862073836 125000 -1078.37873145649 0 0 174 (C1) n - 1
REM
REM in /home/nfs/bkarasulu/CARBON/AIRSS/Generating-Clusters/TERSOFF/Only-C1/FIRE-HFTN
REM
REM
REM
REM
REM
REM ./C.cell (11c1c37f851c82e70ff6c80c92926a4b)
REM AIRSS Version 0.9.1 bugfix July 2018 build 013d7b7c2542+ Fri, 06 Jul 2018 19:26:36 +0100
REM compiler GCC version 9.2.1 20190827 (Red Hat 9.2.1-1)
REM options -cpp -mtune=generic -march=x86-64 -g -O0 -fpre-include=/usr/include/finclude/math-vector-fortran.h
REM seed -132859914 824873405 1816228912 706259039 -1400814530 -58452561 -806096210 -1604466614 -2094249880 -1922700143 -1302030449 -804852521 -1236236017 -1457297261 137472554 -1568873916 1850704002 -157957547 2085488614 -1714575287 -182075100 1042239692 -579892468 -954565911 50756045 45496023 -1594099489 -1910461083 -336120985 -930300913 403090178 832998016 -269119188
REM
CELL 1.54180   50.00000   50.00000   50.00000   90.00000   90.00000   90.00000
LATT -1
SFAC C  
C      1  0.5057520000000  0.4174380000000  0.4347810000000 1.0
C      1  0.5513430000000  0.5316250000000  0.4885700000000 1.0
C      1  0.5967510000000  0.5314750000000  0.4800360000000 1.0
C      1  0.4581940000000  0.5015020000000  0.5451090000000 1.0
C      1  0.4865100000000  0.5624740000000  0.6175020000000 1.0
C      1  0.4419250000000  0.4546430000000  0.4040780000000 1.0
C      1  0.5257890000000  0.6499720000000  0.5198110000000 1.0
C      1  0.4949690000000  0.5794050000000  0.5963510000000 1.0
C      1  0.4020060000000  0.4907970000000  0.5775950000000 1.0
C      1  0.4299510000000  0.5608600000000  0.5545050000000 1.0
C      1  0.4779380000000  0.5769730000000  0.4251250000000 1.0
C      1  0.4562240000000  0.5598600000000  0.4331540000000 1.0
C      1  0.4470270000000  0.5803250000000  0.5685400000000 1.0
C      1  0.4167840000000  0.4333080000000  0.4573380000000 1.0
C      1  0.5690940000000  0.4674840000000  0.5064380000000 1.0
C      1  0.4751990000000  0.4502080000000  0.5664360000000 1.0
C      1  0.5934620000000  0.5492240000000  0.4545200000000 1.0
C      1  0.5301240000000  0.4139990000000  0.5476090000000 1.0
C      1  0.4557720000000  0.4519050000000  0.4697940000000 1.0
C      1  0.4593140000000  0.4334220000000  0.4906830000000 1.0
C      1  0.4358900000000  0.4765650000000  0.5047500000000 1.0
C      1  0.5054340000000  0.6170140000000  0.4540290000000 1.0
C      1  0.5949610000000  0.5013240000000  0.4800440000000 1.0
C      1  0.5509590000000  0.4356180000000  0.4121790000000 1.0
C      1  0.5002620000000  0.4906630000000  0.4439720000000 1.0
C      1  0.5422980000000  0.4511650000000  0.3896000000000 1.0
C      1  0.5799630000000  0.5414020000000  0.4301800000000 1.0
C      1  0.4581660000000  0.5268130000000  0.5305210000000 1.0
C      1  0.5159050000000  0.4622720000000  0.3886500000000 1.0
C      1  0.4277100000000  0.5367490000000  0.5712360000000 1.0
C      1  0.4667200000000  0.4377830000000  0.5167730000000 1.0
C      1  0.4933230000000  0.4709630000000  0.6454950000000 1.0
C      1  0.4394850000000  0.5235650000000  0.5084820000000 1.0
C      1  0.3822970000000  0.5324670000000  0.3974620000000 1.0
C      1  0.5661490000000  0.5174540000000  0.5878000000000 1.0
C      1  0.4794650000000  0.5297560000000  0.4012110000000 1.0
C      1  0.4401670000000  0.5168230000000  0.5890170000000 1.0
C      1  0.5802880000000  0.4997820000000  0.5712440000000 1.0
C      1  0.4568760000000  0.5081550000000  0.4378870000000 1.0
C      1  0.5008400000000  0.5584690000000  0.5222420000000 1.0
C      1  0.5456930000000  0.5789780000000  0.5188560000000 1.0
C      1  0.4792860000000  0.3928410000000  0.5413990000000 1.0
C      1  0.4937690000000  0.3975750000000  0.4845370000000 1.0
C      1  0.5393230000000  0.4784210000000  0.5532880000000 1.0
C      1  0.5705070000000  0.5617280000000  0.4125860000000 1.0
C      1  0.4048650000000  0.5365370000000  0.4822420000000 1.0
C      1  0.5050730000000  0.6385430000000  0.5320010000000 1.0
C      1  0.4908300000000  0.4967960000000  0.6518350000000 1.0
C      1  0.4221350000000  0.4727960000000  0.4075510000000 1.0
C      1  0.4900580000000  0.5919150000000  0.5535150000000 1.0
C      1  0.4848030000000  0.4822520000000  0.5133280000000 1.0
C      1  0.5034310000000  0.4780100000000  0.4917760000000 1.0
C      1  0.4782840000000  0.4920070000000  0.4268310000000 1.0
C      1  0.4135080000000  0.5349260000000  0.5109040000000 1.0
C      1  0.4992320000000  0.5434470000000  0.5663500000000 1.0
C      1  0.4475470000000  0.4075860000000  0.4852200000000 1.0
C      1  0.4848080000000  0.4967560000000  0.5599650000000 1.0
C      1  0.4199450000000  0.4109480000000  0.4765970000000 1.0
C      1  0.4595760000000  0.5334030000000  0.4230130000000 1.0
C      1  0.3921300000000  0.5111410000000  0.4087610000000 1.0
C      1  0.5209270000000  0.5368350000000  0.3779810000000 1.0
C      1  0.5721610000000  0.5952760000000  0.4446150000000 1.0
C      1  0.5460820000000  0.5639860000000  0.5701770000000 1.0
C      1  0.4268420000000  0.5771610000000  0.5000850000000 1.0
C      1  0.4868440000000  0.5206540000000  0.5770120000000 1.0
C      1  0.5203540000000  0.5717890000000  0.5062260000000 1.0
C      1  0.4110080000000  0.4680120000000  0.5146300000000 1.0
C      1  0.4570380000000  0.4388350000000  0.4225720000000 1.0
C      1  0.5063970000000  0.4719390000000  0.4643610000000 1.0
C      1  0.3978820000000  0.4404370000000  0.5796670000000 1.0
C      1  0.5240140000000  0.5101500000000  0.3734900000000 1.0
C      1  0.5555760000000  0.5833290000000  0.4233950000000 1.0
C      1  0.5655240000000  0.5944110000000  0.5042610000000 1.0
C      1  0.5260010000000  0.4323320000000  0.5702300000000 1.0
C      1  0.3897490000000  0.4849000000000  0.5544070000000 1.0
C      1  0.5124150000000  0.5756480000000  0.4782030000000 1.0
C      1  0.6255560000000  0.4926070000000  0.5541790000000 1.0
C      1  0.6044490000000  0.5102000000000  0.5598110000000 1.0
C      1  0.4717620000000  0.6019450000000  0.4867500000000 1.0
C      1  0.4959380000000  0.4438170000000  0.3953630000000 1.0
C      1  0.5625580000000  0.5203760000000  0.4316280000000 1.0
C      1  0.4379500000000  0.4628460000000  0.5969740000000 1.0
C      1  0.5275990000000  0.4916010000000  0.5309920000000 1.0
C      1  0.5642220000000  0.6222170000000  0.5037510000000 1.0
C      1  0.5786160000000  0.4324610000000  0.4508150000000 1.0
C      1  0.5002480000000  0.4950860000000  0.5353570000000 1.0
C      1  0.5543330000000  0.5534520000000  0.4747940000000 1.0
C      1  0.5857320000000  0.5789630000000  0.4910870000000 1.0
C      1  0.6335770000000  0.4692050000000  0.5440010000000 1.0
C      1  0.4674410000000  0.3884180000000  0.4928630000000 1.0
C      1  0.4762260000000  0.5363450000000  0.6210820000000 1.0
C      1  0.5781710000000  0.4392170000000  0.4227660000000 1.0
C      1  0.5556660000000  0.4014400000000  0.4803860000000 1.0
C      1  0.4807580000000  0.5398570000000  0.5166390000000 1.0
C      1  0.4590570000000  0.4583420000000  0.6151240000000 1.0
C      1  0.4189120000000  0.5621490000000  0.4747600000000 1.0
C      1  0.4126350000000  0.4158780000000  0.5449530000000 1.0
C      1  0.5547890000000  0.4147840000000  0.4550760000000 1.0
C      1  0.4276800000000  0.4901550000000  0.5900830000000 1.0
C      1  0.4979430000000  0.4020540000000  0.4571670000000 1.0
C      1  0.4199620000000  0.5611400000000  0.5247180000000 1.0
C      1  0.5012230000000  0.4325670000000  0.6155390000000 1.0
C      1  0.5284390000000  0.5170290000000  0.4902130000000 1.0
C      1  0.4449200000000  0.4768000000000  0.4772110000000 1.0
C      1  0.5309170000000  0.4595010000000  0.4577060000000 1.0
C      1  0.4939440000000  0.4703570000000  0.5717400000000 1.0
C      1  0.4570970000000  0.4824750000000  0.5224230000000 1.0
C      1  0.5012680000000  0.5483380000000  0.3948740000000 1.0
C      1  0.5866240000000  0.4727390000000  0.4837090000000 1.0
C      1  0.5909280000000  0.4442860000000  0.4742660000000 1.0
C      1  0.4594580000000  0.4016460000000  0.5608070000000 1.0
C      1  0.4265090000000  0.4384390000000  0.5854110000000 1.0
C      1  0.5693340000000  0.4097290000000  0.5047540000000 1.0
C      1  0.5086290000000  0.4112460000000  0.5051700000000 1.0
C      1  0.5210320000000  0.5089400000000  0.4372010000000 1.0
C      1  0.5563210000000  0.5421860000000  0.5857780000000 1.0
C      1  0.4938500000000  0.6166480000000  0.5419240000000 1.0
C      1  0.6008490000000  0.5354980000000  0.5481360000000 1.0
C      1  0.5833150000000  0.5503800000000  0.5317520000000 1.0
C      1  0.4737670000000  0.5879020000000  0.5768340000000 1.0
C      1  0.5874680000000  0.5775400000000  0.4621900000000 1.0
C      1  0.4439920000000  0.4391740000000  0.4473150000000 1.0
C      1  0.5549810000000  0.4100060000000  0.5310520000000 1.0
C      1  0.5134170000000  0.5513340000000  0.4612580000000 1.0
C      1  0.4047530000000  0.4900390000000  0.4220680000000 1.0
C      1  0.6293950000000  0.4463130000000  0.5308430000000 1.0
C      1  0.4851970000000  0.4314220000000  0.4184030000000 1.0
C      1  0.4545430000000  0.5217190000000  0.4837970000000 1.0
C      1  0.3947740000000  0.4630080000000  0.5371180000000 1.0
C      1  0.3999570000000  0.4863820000000  0.4506450000000 1.0
C      1  0.4482760000000  0.5953070000000  0.4976620000000 1.0
C      1  0.5457840000000  0.4511890000000  0.5032590000000 1.0
C      1  0.4858050000000  0.5006390000000  0.4000730000000 1.0
C      1  0.6149950000000  0.4298390000000  0.5154720000000 1.0
C      1  0.4055850000000  0.4004690000000  0.5227410000000 1.0
C      1  0.4963420000000  0.5988720000000  0.4734210000000 1.0
C      1  0.5755850000000  0.6224800000000  0.4457960000000 1.0
C      1  0.5275760000000  0.4920820000000  0.5019100000000 1.0
C      1  0.3986330000000  0.5116160000000  0.4671900000000 1.0
C      1  0.5033450000000  0.5720800000000  0.4111810000000 1.0
C      1  0.5083000000000  0.4897940000000  0.3856290000000 1.0
C      1  0.3945320000000  0.4380770000000  0.5509710000000 1.0
C      1  0.4843080000000  0.4524930000000  0.6263240000000 1.0
C      1  0.4349370000000  0.4163160000000  0.5653800000000 1.0
C      1  0.5916280000000  0.5522750000000  0.5033310000000 1.0
C      1  0.4496650000000  0.5020160000000  0.4646360000000 1.0
C      1  0.5577080000000  0.5643990000000  0.5415990000000 1.0
C      1  0.5476600000000  0.4979850000000  0.4339790000000 1.0
C      1  0.5260190000000  0.5364470000000  0.4397540000000 1.0
C      1  0.5237420000000  0.5780840000000  0.5851890000000 1.0
C      1  0.6000440000000  0.4469990000000  0.4085700000000 1.0
C      1  0.5184920000000  0.6133230000000  0.4308310000000 1.0
C      1  0.5251210000000  0.4339980000000  0.5005290000000 1.0
C      1  0.5216360000000  0.4611310000000  0.5672900000000 1.0
C      1  0.5057120000000  0.4045090000000  0.5338230000000 1.0
C      1  0.4348140000000  0.5651760000000  0.4511320000000 1.0
C      1  0.5932900000000  0.4257250000000  0.4979480000000 1.0
C      1  0.4019990000000  0.4016000000000  0.4960670000000 1.0
C      1  0.4667500000000  0.4418290000000  0.5427480000000 1.0
C      1  0.4804630000000  0.5309700000000  0.4896170000000 1.0
C      1  0.4676080000000  0.3781780000000  0.5193680000000 1.0
C      1  0.5350070000000  0.4200260000000  0.4321510000000 1.0
C      1  0.5492970000000  0.6436480000000  0.5089400000000 1.0
C      1  0.5001400000000  0.5656710000000  0.5486380000000 1.0
C      1  0.5670740000000  0.4804560000000  0.5554890000000 1.0
C      1  0.5171560000000  0.4233750000000  0.5957950000000 1.0
C      1  0.4005420000000  0.4578170000000  0.4584060000000 1.0
C      1  0.5587880000000  0.4543150000000  0.3679070000000 1.0
C      1  0.4669490000000  0.5231490000000  0.5974430000000 1.0
C      1  0.5794370000000  0.4714700000000  0.5321000000000 1.0
C      1  0.5269390000000  0.5887840000000  0.4188430000000 1.0
C      1  0.5505330000000  0.4727890000000  0.4447590000000 1.0
C      1  0.4825670000000  0.5207220000000  0.6434080000000 1.0
C      1  0.5056400000000  0.5296710000000  0.4788280000000 1.0
END
