TITL C-612607-4507-1323 0.152797776102925 125000 -304.19934876577 0 0 52 (C1) n - 1
REM
REM in /home/nfs/bkarasulu/CARBON/AIRSS/Generating-Clusters/TERSOFF/Only-C1/FIRE-HFTN
REM
REM
REM
REM
REM
REM ./C.cell (11c1c37f851c82e70ff6c80c92926a4b)
REM AIRSS Version 0.9.1 bugfix July 2018 build 013d7b7c2542+ Fri, 06 Jul 2018 19:26:36 +0100
REM compiler GCC version 9.2.1 20190827 (Red Hat 9.2.1-1)
REM options -cpp -mtune=generic -march=x86-64 -g -O0 -fpre-include=/usr/include/finclude/math-vector-fortran.h
REM seed 1363523137 -1929084315 1987671691 2040449821 -961473684 -60291046 1736115323 -710889058 38391553 1624121990 541339627 -737537980 302728541 280777597 -1204501279 -1981141817 1719688490 2053278021 -546201480 -204138059 -1178271973 -52646920 1349727353 -700973570 -1263777223 138563132 1704597480 520061044 -1075668959 -1622121639 1028453355 242585028 -2121311061
REM
CELL 1.54180   50.00000   50.00000   50.00000   90.00000   90.00000   90.00000
LATT -1
SFAC C  
C      1  0.4830780000000  0.4948140000000  0.5738140000000 1.0
C      1  0.5702540000000  0.4506360000000  0.5189490000000 1.0
C      1  0.5524660000000  0.5081330000000  0.4740450000000 1.0
C      1  0.4948480000000  0.5515040000000  0.5370780000000 1.0
C      1  0.4705010000000  0.5063520000000  0.4068340000000 1.0
C      1  0.4740400000000  0.5648310000000  0.5233210000000 1.0
C      1  0.5066070000000  0.4761550000000  0.4197900000000 1.0
C      1  0.4554600000000  0.4587430000000  0.5586670000000 1.0
C      1  0.4791330000000  0.5432570000000  0.5825680000000 1.0
C      1  0.5083160000000  0.5632660000000  0.4516980000000 1.0
C      1  0.4675830000000  0.5181720000000  0.5765810000000 1.0
C      1  0.4084590000000  0.4509890000000  0.5488740000000 1.0
C      1  0.4673920000000  0.5520630000000  0.4280510000000 1.0
C      1  0.5773060000000  0.4712950000000  0.4035910000000 1.0
C      1  0.5093190000000  0.5240970000000  0.4949350000000 1.0
C      1  0.5772760000000  0.5189220000000  0.4652510000000 1.0
C      1  0.4638600000000  0.5701830000000  0.6267980000000 1.0
C      1  0.5164790000000  0.4449490000000  0.4704410000000 1.0
C      1  0.4390220000000  0.4598540000000  0.4804700000000 1.0
C      1  0.5323080000000  0.4653750000000  0.4597280000000 1.0
C      1  0.5797330000000  0.5437650000000  0.4546400000000 1.0
C      1  0.5320850000000  0.5513190000000  0.4604680000000 1.0
C      1  0.4635320000000  0.5631110000000  0.4985620000000 1.0
C      1  0.5547150000000  0.4704080000000  0.4165530000000 1.0
C      1  0.4567630000000  0.4764180000000  0.4680310000000 1.0
C      1  0.4812900000000  0.4682070000000  0.5647100000000 1.0
C      1  0.4400430000000  0.5149280000000  0.5714960000000 1.0
C      1  0.4806970000000  0.5575440000000  0.4520360000000 1.0
C      1  0.5313300000000  0.4707210000000  0.4317720000000 1.0
C      1  0.5310380000000  0.5271540000000  0.4768180000000 1.0
C      1  0.4985910000000  0.5543130000000  0.5649610000000 1.0
C      1  0.4636010000000  0.4732360000000  0.4410200000000 1.0
C      1  0.4647800000000  0.5321860000000  0.4103930000000 1.0
C      1  0.4245450000000  0.4945290000000  0.5634650000000 1.0
C      1  0.4870360000000  0.4136360000000  0.5012490000000 1.0
C      1  0.5104020000000  0.5337130000000  0.5214710000000 1.0
C      1  0.4828660000000  0.5216540000000  0.4840710000000 1.0
C      1  0.5631900000000  0.4668620000000  0.4972990000000 1.0
C      1  0.4713080000000  0.5571880000000  0.6054720000000 1.0
C      1  0.5492410000000  0.4802540000000  0.4771090000000 1.0
C      1  0.4690750000000  0.4976790000000  0.4815110000000 1.0
C      1  0.4719110000000  0.4009090000000  0.5182440000000 1.0
C      1  0.4286970000000  0.4674450000000  0.5567250000000 1.0
C      1  0.5206600000000  0.5671720000000  0.5747830000000 1.0
C      1  0.5578810000000  0.5596650000000  0.4522910000000 1.0
C      1  0.5278710000000  0.4452480000000  0.5515010000000 1.0
C      1  0.4713160000000  0.5470170000000  0.4767760000000 1.0
C      1  0.5041210000000  0.4529240000000  0.5603940000000 1.0
C      1  0.5505930000000  0.4445470000000  0.5378860000000 1.0
C      1  0.5956820000000  0.4409730000000  0.5215160000000 1.0
C      1  0.4796910000000  0.4836860000000  0.4205390000000 1.0
C      1  0.5020090000000  0.4280000000000  0.4847560000000 1.0
END
