TITL C-612605-9286-864 75.4376906990069 125000 -711.772646281431 0 0 117 (C1) n - 1
REM
REM in /home/nfs/bkarasulu/CARBON/AIRSS/Generating-Clusters/TERSOFF/Only-C1/FIRE-HFTN
REM
REM
REM
REM
REM
REM ./C.cell (11c1c37f851c82e70ff6c80c92926a4b)
REM AIRSS Version 0.9.1 bugfix July 2018 build 013d7b7c2542+ Fri, 06 Jul 2018 19:26:36 +0100
REM compiler GCC version 9.2.1 20190827 (Red Hat 9.2.1-1)
REM options -cpp -mtune=generic -march=x86-64 -g -O0 -fpre-include=/usr/include/finclude/math-vector-fortran.h
REM seed 1811613929 -1594024293 -705203283 284089862 724167523 1154959396 -257999850 759426040 2063493168 -1969350125 -840462350 1647196098 -1220367921 1263888682 -2072206592 -1556068193 -2138506348 575525259 -1620498109 981265711 839518088 527611724 -1816200597 -97039560 1256827154 337471595 1696632974 -2113066836 -937793191 214894664 -1914683615 -317935379 1181245320
REM
CELL 1.54180   50.00000   50.00000   50.00000   90.00000   90.00000   90.00000
LATT -1
SFAC C  
C      1  0.5530170000000  0.6147030000000  0.5087100000000 1.0
C      1  0.4257160000000  0.4038930000000  0.4456870000000 1.0
C      1  0.5600110000000  0.4564010000000  0.4864000000000 1.0
C      1  0.4966070000000  0.4273930000000  0.4946530000000 1.0
C      1  0.4724030000000  0.5737610000000  0.5005890000000 1.0
C      1  0.4599320000000  0.4653480000000  0.4239780000000 1.0
C      1  0.5422170000000  0.5270380000000  0.5975880000000 1.0
C      1  0.5430010000000  0.4754520000000  0.5482600000000 1.0
C      1  0.4226660000000  0.4769360000000  0.4950410000000 1.0
C      1  0.4316500000000  0.4111340000000  0.4706060000000 1.0
C      1  0.5183810000000  0.4459890000000  0.5055670000000 1.0
C      1  0.4541100000000  0.4654470000000  0.3756590000000 1.0
C      1  0.5366470000000  0.4881660000000  0.6305600000000 1.0
C      1  0.5875860000000  0.4932630000000  0.4732710000000 1.0
C      1  0.5279880000000  0.4811910000000  0.4057870000000 1.0
C      1  0.4501510000000  0.4535340000000  0.4005170000000 1.0
C      1  0.4616510000000  0.5223690000000  0.4813400000000 1.0
C      1  0.4190440000000  0.4540330000000  0.5750560000000 1.0
C      1  0.4966280000000  0.5024670000000  0.5422400000000 1.0
C      1  0.5592630000000  0.5279040000000  0.4540110000000 1.0
C      1  0.4177770000000  0.4873250000000  0.4680780000000 1.0
C      1  0.4590480000000  0.4777270000000  0.3527160000000 1.0
C      1  0.5363910000000  0.4669260000000  0.4974310000000 1.0
C      1  0.4960800000000  0.3767960000000  0.4981600000000 1.0
C      1  0.5385950000000  0.5154510000000  0.5224990000000 1.0
C      1  0.5934390000000  0.4961020000000  0.5020690000000 1.0
C      1  0.4878450000000  0.4805730000000  0.4935910000000 1.0
C      1  0.4426530000000  0.6437910000000  0.5576760000000 1.0
C      1  0.5020430000000  0.4968410000000  0.4734750000000 1.0
C      1  0.4317230000000  0.5341480000000  0.4484980000000 1.0
C      1  0.4659520000000  0.4683520000000  0.4496600000000 1.0
C      1  0.4731720000000  0.4630130000000  0.4761610000000 1.0
C      1  0.4301950000000  0.4989940000000  0.5118960000000 1.0
C      1  0.5716360000000  0.4759280000000  0.5452980000000 1.0
C      1  0.5024460000000  0.5675530000000  0.5370190000000 1.0
C      1  0.4224120000000  0.4976200000000  0.5620970000000 1.0
C      1  0.5293790000000  0.5607420000000  0.5404500000000 1.0
C      1  0.5994130000000  0.5199600000000  0.5169880000000 1.0
C      1  0.5687320000000  0.5257290000000  0.5872970000000 1.0
C      1  0.4746570000000  0.6050280000000  0.5386320000000 1.0
C      1  0.5882600000000  0.4369990000000  0.3947810000000 1.0
C      1  0.5698490000000  0.4716590000000  0.4651230000000 1.0
C      1  0.5403110000000  0.5027360000000  0.4965920000000 1.0
C      1  0.5087880000000  0.4097470000000  0.5345560000000 1.0
C      1  0.4800020000000  0.6006320000000  0.5103220000000 1.0
C      1  0.5138270000000  0.4967760000000  0.4249850000000 1.0
C      1  0.4363190000000  0.4292870000000  0.4030880000000 1.0
C      1  0.4428810000000  0.4304800000000  0.4873410000000 1.0
C      1  0.4257710000000  0.4488860000000  0.5028420000000 1.0
C      1  0.4183500000000  0.5434120000000  0.5002240000000 1.0
C      1  0.4551280000000  0.5359170000000  0.5708870000000 1.0
C      1  0.5954820000000  0.5269340000000  0.5431880000000 1.0
C      1  0.4849680000000  0.4787630000000  0.5239240000000 1.0
C      1  0.5737120000000  0.6255870000000  0.5202140000000 1.0
C      1  0.5384870000000  0.5627270000000  0.5667780000000 1.0
C      1  0.5045350000000  0.6111060000000  0.5008070000000 1.0
C      1  0.4679940000000  0.4325770000000  0.5469620000000 1.0
C      1  0.5501700000000  0.4675820000000  0.4179250000000 1.0
C      1  0.4324370000000  0.5084560000000  0.5385980000000 1.0
C      1  0.4988610000000  0.5644730000000  0.4475090000000 1.0
C      1  0.5998180000000  0.4712940000000  0.5852730000000 1.0
C      1  0.4874790000000  0.4990630000000  0.5740810000000 1.0
C      1  0.4524890000000  0.5280520000000  0.5437590000000 1.0
C      1  0.5865420000000  0.4865160000000  0.5670390000000 1.0
C      1  0.4695030000000  0.5026680000000  0.3071280000000 1.0
C      1  0.5228860000000  0.4443110000000  0.5795010000000 1.0
C      1  0.5269860000000  0.4988760000000  0.5417030000000 1.0
C      1  0.4850330000000  0.5534470000000  0.5188090000000 1.0
C      1  0.5189040000000  0.5779300000000  0.4589080000000 1.0
C      1  0.4435480000000  0.4226480000000  0.5376160000000 1.0
C      1  0.4649800000000  0.4768490000000  0.5693560000000 1.0
C      1  0.5850120000000  0.4754910000000  0.5202400000000 1.0
C      1  0.5310780000000  0.6015590000000  0.4978600000000 1.0
C      1  0.6261680000000  0.4074230000000  0.3735080000000 1.0
C      1  0.4582630000000  0.6251010000000  0.5483980000000 1.0
C      1  0.4501300000000  0.5714220000000  0.4822350000000 1.0
C      1  0.5091570000000  0.4890400000000  0.5929270000000 1.0
C      1  0.4776590000000  0.5282360000000  0.5302330000000 1.0
C      1  0.5244430000000  0.4338200000000  0.5317130000000 1.0
C      1  0.4273400000000  0.4107700000000  0.4200000000000 1.0
C      1  0.4037560000000  0.5029970000000  0.4248320000000 1.0
C      1  0.5263440000000  0.5482500000000  0.5879640000000 1.0
C      1  0.5286830000000  0.5051960000000  0.6086590000000 1.0
C      1  0.4709140000000  0.4368840000000  0.4857810000000 1.0
C      1  0.5280060000000  0.4623120000000  0.6259530000000 1.0
C      1  0.4862020000000  0.5203080000000  0.4666270000000 1.0
C      1  0.4884170000000  0.5856780000000  0.5544380000000 1.0
C      1  0.4065510000000  0.4458190000000  0.5520720000000 1.0
C      1  0.5159170000000  0.5249440000000  0.4276970000000 1.0
C      1  0.5334970000000  0.5773430000000  0.4829260000000 1.0
C      1  0.5452660000000  0.5267820000000  0.4788000000000 1.0
C      1  0.5315120000000  0.4500160000000  0.5534650000000 1.0
C      1  0.4252470000000  0.5692290000000  0.4962410000000 1.0
C      1  0.4450670000000  0.5568480000000  0.4570610000000 1.0
C      1  0.5416990000000  0.5520970000000  0.4933490000000 1.0
C      1  0.5431330000000  0.5336280000000  0.4313960000000 1.0
C      1  0.5481240000000  0.4740400000000  0.4463150000000 1.0
C      1  0.4368010000000  0.5220080000000  0.4959260000000 1.0
C      1  0.4796570000000  0.5279340000000  0.5832470000000 1.0
C      1  0.5400820000000  0.5439710000000  0.5209220000000 1.0
C      1  0.5848840000000  0.5160590000000  0.4562790000000 1.0
C      1  0.4874970000000  0.5761130000000  0.5810820000000 1.0
C      1  0.4642570000000  0.4901910000000  0.3299190000000 1.0
C      1  0.5859100000000  0.5151510000000  0.5675160000000 1.0
C      1  0.5692420000000  0.4519070000000  0.4056240000000 1.0
C      1  0.5147940000000  0.4609040000000  0.6003110000000 1.0
C      1  0.4213050000000  0.4381910000000  0.5292390000000 1.0
C      1  0.4746640000000  0.5149400000000  0.2847140000000 1.0
C      1  0.4963230000000  0.5367350000000  0.4451600000000 1.0
C      1  0.4999800000000  0.4016860000000  0.5080070000000 1.0
C      1  0.4363730000000  0.4766190000000  0.5750920000000 1.0
C      1  0.4877480000000  0.4133540000000  0.5529010000000 1.0
C      1  0.4726180000000  0.4609390000000  0.5451620000000 1.0
C      1  0.6073710000000  0.4220880000000  0.3840550000000 1.0
C      1  0.4182170000000  0.5082880000000  0.4477950000000 1.0
C      1  0.5205020000000  0.4861780000000  0.4522880000000 1.0
C      1  0.4976330000000  0.5500940000000  0.5890390000000 1.0
END
