TITL C-612604-1799-703 -1114.60740181564 125000 -568.027538719648 0 0 94 (C1) n - 1
REM
REM in /home/nfs/bkarasulu/CARBON/AIRSS/Generating-Clusters/TERSOFF/Only-C1/FIRE-HFTN
REM
REM
REM
REM
REM
REM ./C.cell (11c1c37f851c82e70ff6c80c92926a4b)
REM AIRSS Version 0.9.1 bugfix July 2018 build 013d7b7c2542+ Fri, 06 Jul 2018 19:26:36 +0100
REM compiler GCC version 9.2.1 20190827 (Red Hat 9.2.1-1)
REM options -cpp -mtune=generic -march=x86-64 -g -O0 -fpre-include=/usr/include/finclude/math-vector-fortran.h
REM seed -1234621478 -1652481855 -1083031804 566291116 -1320406401 -1067796584 -1126983108 1959239482 -785258032 1025744617 2052464563 -218303456 -1561257030 -1343540179 -1033513689 1432116669 -973191156 1394508052 -44978809 285963777 1281074772 -685962533 -806940823 2006690886 -80481418 37758458 -219738317 -1422812109 -184396198 942030344 1884483302 -898398162 -2136560630
REM
CELL 1.54180   50.00000   50.00000   50.00000   90.00000   90.00000   90.00000
LATT -1
SFAC C  
C      1  0.5788850000000  0.4358280000000  0.5501320000000 1.0
C      1  0.5571120000000  0.4972210000000  0.4762170000000 1.0
C      1  0.4915890000000  0.4898210000000  0.4187940000000 1.0
C      1  0.4862550000000  0.4712880000000  0.5678200000000 1.0
C      1  0.4330440000000  0.4490010000000  0.4574110000000 1.0
C      1  0.4378340000000  0.5596890000000  0.5822770000000 1.0
C      1  0.5709080000000  0.4817810000000  0.4302870000000 1.0
C      1  0.4762540000000  0.5296830000000  0.4895490000000 1.0
C      1  0.4524250000000  0.5520560000000  0.5595130000000 1.0
C      1  0.5289850000000  0.5052110000000  0.4835740000000 1.0
C      1  0.4635290000000  0.5253250000000  0.5598510000000 1.0
C      1  0.5655830000000  0.4749300000000  0.5344170000000 1.0
C      1  0.5267680000000  0.5930510000000  0.4775290000000 1.0
C      1  0.4969510000000  0.5145610000000  0.4034600000000 1.0
C      1  0.5012220000000  0.5415970000000  0.4981410000000 1.0
C      1  0.4647250000000  0.5894490000000  0.5192020000000 1.0
C      1  0.4547390000000  0.5715640000000  0.5387260000000 1.0
C      1  0.4433480000000  0.4931240000000  0.4412310000000 1.0
C      1  0.5465300000000  0.4715110000000  0.5137960000000 1.0
C      1  0.5092130000000  0.5376110000000  0.4092120000000 1.0
C      1  0.5722710000000  0.4359510000000  0.4329570000000 1.0
C      1  0.4899040000000  0.4314630000000  0.5952710000000 1.0
C      1  0.6118340000000  0.4650930000000  0.4889770000000 1.0
C      1  0.5783460000000  0.5083000000000  0.4369560000000 1.0
C      1  0.4718510000000  0.4956290000000  0.4422960000000 1.0
C      1  0.4992370000000  0.5954320000000  0.4844610000000 1.0
C      1  0.5710100000000  0.5268730000000  0.6053920000000 1.0
C      1  0.3955070000000  0.5787600000000  0.6468040000000 1.0
C      1  0.4595090000000  0.4744780000000  0.5554340000000 1.0
C      1  0.5037010000000  0.4913520000000  0.5281150000000 1.0
C      1  0.4628220000000  0.5456210000000  0.4703240000000 1.0
C      1  0.4667280000000  0.3994090000000  0.6298870000000 1.0
C      1  0.4798110000000  0.4856350000000  0.5140260000000 1.0
C      1  0.4719370000000  0.5945150000000  0.4721640000000 1.0
C      1  0.5286250000000  0.4422070000000  0.5680370000000 1.0
C      1  0.5979120000000  0.5032390000000  0.5192270000000 1.0
C      1  0.4782330000000  0.4153010000000  0.6127200000000 1.0
C      1  0.6050130000000  0.4608920000000  0.4631630000000 1.0
C      1  0.4270150000000  0.5087780000000  0.4581280000000 1.0
C      1  0.5428480000000  0.4718800000000  0.4255240000000 1.0
C      1  0.4609990000000  0.4094010000000  0.4664570000000 1.0
C      1  0.4364980000000  0.4659620000000  0.4341430000000 1.0
C      1  0.4920220000000  0.5199950000000  0.5639270000000 1.0
C      1  0.5217500000000  0.5336930000000  0.4802180000000 1.0
C      1  0.4409570000000  0.4344420000000  0.3958860000000 1.0
C      1  0.4538450000000  0.6004380000000  0.4947620000000 1.0
C      1  0.5470140000000  0.4430490000000  0.4240510000000 1.0
C      1  0.4838480000000  0.4851510000000  0.4678400000000 1.0
C      1  0.5244630000000  0.5450220000000  0.4545570000000 1.0
C      1  0.4096880000000  0.5724400000000  0.6253190000000 1.0
C      1  0.5237610000000  0.5530430000000  0.4275900000000 1.0
C      1  0.4381300000000  0.4080440000000  0.3936090000000 1.0
C      1  0.4778690000000  0.4559150000000  0.4712620000000 1.0
C      1  0.5885400000000  0.4574890000000  0.5338430000000 1.0
C      1  0.4194960000000  0.5125260000000  0.4838450000000 1.0
C      1  0.4141750000000  0.4540810000000  0.4778800000000 1.0
C      1  0.6059530000000  0.4739430000000  0.5155100000000 1.0
C      1  0.4417750000000  0.3848300000000  0.4063100000000 1.0
C      1  0.5492210000000  0.5165740000000  0.5368420000000 1.0
C      1  0.4753430000000  0.5009880000000  0.4910980000000 1.0
C      1  0.5285040000000  0.4962430000000  0.5142010000000 1.0
C      1  0.5837140000000  0.5365600000000  0.4808200000000 1.0
C      1  0.4760620000000  0.4680160000000  0.4048220000000 1.0
C      1  0.4576710000000  0.4370470000000  0.4661970000000 1.0
C      1  0.5373640000000  0.5751830000000  0.4190940000000 1.0
C      1  0.5584530000000  0.4711000000000  0.4877570000000 1.0
C      1  0.5138830000000  0.5379440000000  0.5617370000000 1.0
C      1  0.5511450000000  0.5809900000000  0.4795760000000 1.0
C      1  0.4263640000000  0.5033760000000  0.5329950000000 1.0
C      1  0.4499780000000  0.3760200000000  0.4301950000000 1.0
C      1  0.5039380000000  0.5616290000000  0.5180860000000 1.0
C      1  0.5734790000000  0.5028890000000  0.5354320000000 1.0
C      1  0.6000920000000  0.5256370000000  0.5017270000000 1.0
C      1  0.5132210000000  0.4886940000000  0.4626870000000 1.0
C      1  0.5108460000000  0.5593360000000  0.5446800000000 1.0
C      1  0.5706960000000  0.5621260000000  0.4811980000000 1.0
C      1  0.4999990000000  0.4936620000000  0.5562710000000 1.0
C      1  0.4238190000000  0.5661120000000  0.6038140000000 1.0
C      1  0.4578350000000  0.3862610000000  0.4535950000000 1.0
C      1  0.5401880000000  0.5272670000000  0.5611420000000 1.0
C      1  0.4625290000000  0.4675380000000  0.5273440000000 1.0
C      1  0.4467890000000  0.5017600000000  0.5534740000000 1.0
C      1  0.4502910000000  0.4564040000000  0.4103860000000 1.0
C      1  0.3815660000000  0.5849700000000  0.6679400000000 1.0
C      1  0.4929070000000  0.5864520000000  0.5115960000000 1.0
C      1  0.5182100000000  0.4830170000000  0.4343160000000 1.0
C      1  0.5017950000000  0.4487140000000  0.5766240000000 1.0
C      1  0.4102080000000  0.4694510000000  0.4997540000000 1.0
C      1  0.5737020000000  0.5161200000000  0.4635240000000 1.0
C      1  0.4169090000000  0.4961710000000  0.5069910000000 1.0
C      1  0.5876450000000  0.4592460000000  0.4409270000000 1.0
C      1  0.5560460000000  0.5275700000000  0.5840680000000 1.0
C      1  0.5539280000000  0.4341180000000  0.5618530000000 1.0
C      1  0.4648660000000  0.5702430000000  0.4592310000000 1.0
END
