TITL C-612600-6631-429 4.47511505855878e-05 125000 -1124.49003326161 0 0 182 (C1) n - 1
REM
REM in /home/nfs/bkarasulu/CARBON/AIRSS/Generating-Clusters/TERSOFF/Only-C1/FIRE-HFTN
REM
REM
REM
REM
REM
REM ./C.cell (11c1c37f851c82e70ff6c80c92926a4b)
REM AIRSS Version 0.9.1 bugfix July 2018 build 013d7b7c2542+ Fri, 06 Jul 2018 19:26:36 +0100
REM compiler GCC version 9.2.1 20190827 (Red Hat 9.2.1-1)
REM options -cpp -mtune=generic -march=x86-64 -g -O0 -fpre-include=/usr/include/finclude/math-vector-fortran.h
REM seed -1638200031 2002433104 1674417423 -216301471 -1521046926 -1167431216 -1441235368 644492735 199369154 -1818069601 737426227 1807001147 -510507133 1086982112 -2088398111 -50116736 -913252021 13318208 -656300123 -1307651251 -1529249901 -1994898537 -989574250 897279 1610390538 -1332325317 1833801129 801107861 -303817092 -201662651 -1286118114 743050018 -1678156735
REM
CELL 1.54180   50.00000   50.00000   50.00000   90.00000   90.00000   90.00000
LATT -1
SFAC C  
C      1  0.4181550000000  0.4492580000000  0.4258620000000 1.0
C      1  0.4708630000000  0.4720200000000  0.3732640000000 1.0
C      1  0.5748440000000  0.5577610000000  0.5624380000000 1.0
C      1  0.6054840000000  0.5590830000000  0.5224250000000 1.0
C      1  0.5557450000000  0.5261920000000  0.6349620000000 1.0
C      1  0.4536430000000  0.4695110000000  0.6342750000000 1.0
C      1  0.5916670000000  0.5342660000000  0.5694740000000 1.0
C      1  0.5091430000000  0.4649350000000  0.4542460000000 1.0
C      1  0.6147740000000  0.5759330000000  0.4750170000000 1.0
C      1  0.4974660000000  0.5679390000000  0.5034790000000 1.0
C      1  0.4663250000000  0.5284320000000  0.5572840000000 1.0
C      1  0.5190690000000  0.6107550000000  0.5068230000000 1.0
C      1  0.5270230000000  0.4602080000000  0.5162250000000 1.0
C      1  0.3846480000000  0.4978540000000  0.5720860000000 1.0
C      1  0.6138850000000  0.5256330000000  0.5534150000000 1.0
C      1  0.5476810000000  0.3921270000000  0.4353870000000 1.0
C      1  0.5678470000000  0.5750770000000  0.4242350000000 1.0
C      1  0.4607760000000  0.5076740000000  0.4175430000000 1.0
C      1  0.5228440000000  0.5337710000000  0.5254090000000 1.0
C      1  0.5174480000000  0.4840610000000  0.3872240000000 1.0
C      1  0.5452870000000  0.4768930000000  0.3887630000000 1.0
C      1  0.4281630000000  0.4145030000000  0.5700790000000 1.0
C      1  0.3873100000000  0.5643090000000  0.4882220000000 1.0
C      1  0.5768210000000  0.5225530000000  0.6164440000000 1.0
C      1  0.5132490000000  0.5881580000000  0.4911630000000 1.0
C      1  0.4091110000000  0.4303590000000  0.5564120000000 1.0
C      1  0.5527770000000  0.5772960000000  0.5663090000000 1.0
C      1  0.5591720000000  0.5231730000000  0.6618180000000 1.0
C      1  0.5635770000000  0.4799110000000  0.4720340000000 1.0
C      1  0.3805420000000  0.5161430000000  0.4309960000000 1.0
C      1  0.5013150000000  0.5360140000000  0.4364170000000 1.0
C      1  0.5826290000000  0.4990410000000  0.4237100000000 1.0
C      1  0.4561140000000  0.4615150000000  0.5122790000000 1.0
C      1  0.4081970000000  0.5771790000000  0.4991650000000 1.0
C      1  0.4039660000000  0.4729980000000  0.4173290000000 1.0
C      1  0.4392880000000  0.5354390000000  0.5547790000000 1.0
C      1  0.5543010000000  0.4554440000000  0.4278140000000 1.0
C      1  0.5411780000000  0.4145970000000  0.5042720000000 1.0
C      1  0.4253390000000  0.4229230000000  0.5037190000000 1.0
C      1  0.4193080000000  0.5465890000000  0.4068790000000 1.0
C      1  0.6035030000000  0.5498470000000  0.4756470000000 1.0
C      1  0.5430740000000  0.5117190000000  0.5656840000000 1.0
C      1  0.4466120000000  0.4485740000000  0.4238820000000 1.0
C      1  0.4531310000000  0.4046400000000  0.4344410000000 1.0
C      1  0.4636980000000  0.4256470000000  0.4167100000000 1.0
C      1  0.4570990000000  0.5575960000000  0.6111140000000 1.0
C      1  0.5476490000000  0.4952200000000  0.5431010000000 1.0
C      1  0.4655660000000  0.4690030000000  0.6574410000000 1.0
C      1  0.4431130000000  0.5070680000000  0.3946720000000 1.0
C      1  0.4961170000000  0.5577590000000  0.4219820000000 1.0
C      1  0.4827950000000  0.4828490000000  0.5653910000000 1.0
C      1  0.4104840000000  0.4263290000000  0.4421790000000 1.0
C      1  0.5603150000000  0.4821320000000  0.4146010000000 1.0
C      1  0.5796510000000  0.6088590000000  0.4883970000000 1.0
C      1  0.4833900000000  0.4309540000000  0.4745760000000 1.0
C      1  0.4171500000000  0.5603140000000  0.5874800000000 1.0
C      1  0.5062310000000  0.6346500000000  0.5046030000000 1.0
C      1  0.5731060000000  0.5240160000000  0.5067840000000 1.0
C      1  0.5029790000000  0.5933160000000  0.5598800000000 1.0
C      1  0.5117080000000  0.4217610000000  0.5784640000000 1.0
C      1  0.5402920000000  0.6058920000000  0.5255640000000 1.0
C      1  0.3894850000000  0.5423140000000  0.4429720000000 1.0
C      1  0.5039900000000  0.4914110000000  0.4633730000000 1.0
C      1  0.5551650000000  0.4502040000000  0.3819010000000 1.0
C      1  0.5679370000000  0.4188710000000  0.5494930000000 1.0
C      1  0.5179980000000  0.4000650000000  0.4952470000000 1.0
C      1  0.5102790000000  0.5407030000000  0.4992080000000 1.0
C      1  0.5845090000000  0.4627060000000  0.5743100000000 1.0
C      1  0.4833000000000  0.4522730000000  0.4566600000000 1.0
C      1  0.4819010000000  0.4147840000000  0.5208650000000 1.0
C      1  0.5256210000000  0.4036550000000  0.4254730000000 1.0
C      1  0.5972260000000  0.5372020000000  0.4512320000000 1.0
C      1  0.5898280000000  0.4056530000000  0.4631010000000 1.0
C      1  0.5113160000000  0.5412200000000  0.5498300000000 1.0
C      1  0.6184760000000  0.4850770000000  0.4610020000000 1.0
C      1  0.6060650000000  0.5991610000000  0.4856790000000 1.0
C      1  0.4112460000000  0.4808020000000  0.4665010000000 1.0
C      1  0.5329710000000  0.4063400000000  0.5829770000000 1.0
C      1  0.4508310000000  0.4902790000000  0.3734450000000 1.0
C      1  0.4585520000000  0.5753830000000  0.3922710000000 1.0
C      1  0.4178340000000  0.5184520000000  0.3999430000000 1.0
C      1  0.5902610000000  0.4524230000000  0.5263580000000 1.0
C      1  0.5138050000000  0.4289730000000  0.4223200000000 1.0
C      1  0.5143710000000  0.5111030000000  0.3789810000000 1.0
C      1  0.5877150000000  0.4290200000000  0.5090490000000 1.0
C      1  0.4505390000000  0.4545740000000  0.5875430000000 1.0
C      1  0.4484220000000  0.5823540000000  0.5522240000000 1.0
C      1  0.4782910000000  0.3707150000000  0.4884180000000 1.0
C      1  0.5271230000000  0.4752880000000  0.5396880000000 1.0
C      1  0.4337470000000  0.5653680000000  0.3920200000000 1.0
C      1  0.5559140000000  0.4556580000000  0.4795170000000 1.0
C      1  0.4866430000000  0.5247260000000  0.4916360000000 1.0
C      1  0.6040160000000  0.4862120000000  0.4382260000000 1.0
C      1  0.4841070000000  0.5471210000000  0.5452490000000 1.0
C      1  0.5546250000000  0.5261260000000  0.4854390000000 1.0
C      1  0.4305770000000  0.4083340000000  0.4535600000000 1.0
C      1  0.5329570000000  0.5484340000000  0.5987400000000 1.0
C      1  0.4884610000000  0.4964140000000  0.4867300000000 1.0
C      1  0.5658700000000  0.6090250000000  0.5133530000000 1.0
C      1  0.3986780000000  0.4605570000000  0.5224330000000 1.0
C      1  0.4152010000000  0.5510260000000  0.4351490000000 1.0
C      1  0.4914280000000  0.4688200000000  0.3956280000000 1.0
C      1  0.5129160000000  0.5126870000000  0.4463420000000 1.0
C      1  0.4019770000000  0.4886130000000  0.5264540000000 1.0
C      1  0.4902980000000  0.4359660000000  0.4080250000000 1.0
C      1  0.5405330000000  0.5114830000000  0.4436900000000 1.0
C      1  0.4446930000000  0.5519230000000  0.4804190000000 1.0
C      1  0.3814860000000  0.5434250000000  0.4708240000000 1.0
C      1  0.5624930000000  0.4373600000000  0.4057100000000 1.0
C      1  0.6342320000000  0.5945360000000  0.5486930000000 1.0
C      1  0.6163800000000  0.4921020000000  0.5140170000000 1.0
C      1  0.4762180000000  0.4840670000000  0.4202190000000 1.0
C      1  0.5832160000000  0.5283100000000  0.4277080000000 1.0
C      1  0.5563530000000  0.4044370000000  0.5702010000000 1.0
C      1  0.5911350000000  0.4802100000000  0.5208880000000 1.0
C      1  0.4604530000000  0.4525390000000  0.5388290000000 1.0
C      1  0.5066250000000  0.4679370000000  0.5585170000000 1.0
C      1  0.4360060000000  0.5724070000000  0.4998740000000 1.0
C      1  0.5328390000000  0.5737200000000  0.4755440000000 1.0
C      1  0.4742130000000  0.5869720000000  0.5691990000000 1.0
C      1  0.6201910000000  0.5770000000000  0.5354670000000 1.0
C      1  0.4594830000000  0.4669250000000  0.5632670000000 1.0
C      1  0.4162970000000  0.5031700000000  0.5067470000000 1.0
C      1  0.4016690000000  0.5015270000000  0.4825700000000 1.0
C      1  0.4333880000000  0.4020470000000  0.4828750000000 1.0
C      1  0.4384350000000  0.5455750000000  0.4520700000000 1.0
C      1  0.5713230000000  0.3941350000000  0.4476700000000 1.0
C      1  0.4528480000000  0.5783970000000  0.5232600000000 1.0
C      1  0.4273530000000  0.4607760000000  0.4733800000000 1.0
C      1  0.5651410000000  0.4129810000000  0.5208180000000 1.0
C      1  0.4943500000000  0.4169600000000  0.4960730000000 1.0
C      1  0.4795020000000  0.5090340000000  0.5737200000000 1.0
C      1  0.5698650000000  0.5000390000000  0.5242780000000 1.0
C      1  0.4002800000000  0.4787320000000  0.5856790000000 1.0
C      1  0.6250590000000  0.5103830000000  0.5339780000000 1.0
C      1  0.3437070000000  0.4868850000000  0.4505930000000 1.0
C      1  0.4784260000000  0.5658940000000  0.5237110000000 1.0
C      1  0.4799720000000  0.4319720000000  0.5419750000000 1.0
C      1  0.3647530000000  0.5037810000000  0.4522470000000 1.0
C      1  0.5071840000000  0.5175010000000  0.6189420000000 1.0
C      1  0.4997440000000  0.5173870000000  0.5912100000000 1.0
C      1  0.4819240000000  0.5723190000000  0.4047870000000 1.0
C      1  0.4247550000000  0.5172060000000  0.6096870000000 1.0
C      1  0.4210700000000  0.4894130000000  0.6029730000000 1.0
C      1  0.5650180000000  0.5963920000000  0.4401520000000 1.0
C      1  0.5816920000000  0.4443840000000  0.5532010000000 1.0
C      1  0.5685560000000  0.5487510000000  0.4137400000000 1.0
C      1  0.3995420000000  0.4523600000000  0.5734450000000 1.0
C      1  0.4584890000000  0.5308310000000  0.4936100000000 1.0
C      1  0.5223650000000  0.5311560000000  0.5757890000000 1.0
C      1  0.5009480000000  0.4393310000000  0.5598630000000 1.0
C      1  0.4386790000000  0.4474450000000  0.4950450000000 1.0
C      1  0.5309960000000  0.5332640000000  0.6233980000000 1.0
C      1  0.4301080000000  0.5616480000000  0.5623860000000 1.0
C      1  0.4531900000000  0.3815400000000  0.4885170000000 1.0
C      1  0.4713860000000  0.5753350000000  0.5959270000000 1.0
C      1  0.4443970000000  0.5077520000000  0.5039880000000 1.0
C      1  0.5056420000000  0.3743980000000  0.4902440000000 1.0
C      1  0.5519670000000  0.5430490000000  0.3919000000000 1.0
C      1  0.5950790000000  0.5422290000000  0.5024820000000 1.0
C      1  0.4457760000000  0.4266130000000  0.5868320000000 1.0
C      1  0.4420660000000  0.4710240000000  0.6090320000000 1.0
C      1  0.4648530000000  0.4862420000000  0.5018940000000 1.0
C      1  0.6242650000000  0.4890120000000  0.4870260000000 1.0
C      1  0.5271650000000  0.4507610000000  0.4369900000000 1.0
C      1  0.5305260000000  0.5324380000000  0.3801750000000 1.0
C      1  0.3777430000000  0.5150320000000  0.4760720000000 1.0
C      1  0.5348220000000  0.5460220000000  0.4824920000000 1.0
C      1  0.5560050000000  0.5059290000000  0.4661760000000 1.0
C      1  0.5393340000000  0.4431180000000  0.4980100000000 1.0
C      1  0.4550190000000  0.5255630000000  0.4390910000000 1.0
C      1  0.5326930000000  0.5926140000000  0.5505110000000 1.0
C      1  0.5663630000000  0.6099690000000  0.4633250000000 1.0
C      1  0.5873720000000  0.4871770000000  0.5850710000000 1.0
C      1  0.5856320000000  0.5151680000000  0.5907590000000 1.0
C      1  0.4315090000000  0.5449620000000  0.6072340000000 1.0
C      1  0.3986050000000  0.5015110000000  0.4138940000000 1.0
C      1  0.5973840000000  0.4199720000000  0.4844250000000 1.0
C      1  0.4650770000000  0.4647670000000  0.4382110000000 1.0
C      1  0.3868680000000  0.5021420000000  0.5457330000000 1.0
C      1  0.4086230000000  0.4335150000000  0.5272030000000 1.0
C      1  0.5435420000000  0.5733500000000  0.5930160000000 1.0
END
