TITL C-612604-1799-820 64225.1137666423 125000 -1013.60788966035 0 0 164 (C1) n - 1
REM
REM in /home/nfs/bkarasulu/CARBON/AIRSS/Generating-Clusters/TERSOFF/Only-C1/FIRE-HFTN
REM
REM
REM
REM
REM
REM ./C.cell (11c1c37f851c82e70ff6c80c92926a4b)
REM AIRSS Version 0.9.1 bugfix July 2018 build 013d7b7c2542+ Fri, 06 Jul 2018 19:26:36 +0100
REM compiler GCC version 9.2.1 20190827 (Red Hat 9.2.1-1)
REM options -cpp -mtune=generic -march=x86-64 -g -O0 -fpre-include=/usr/include/finclude/math-vector-fortran.h
REM seed 2024670859 -434067269 -1618970746 -79206279 -1636084565 1645040577 1876463055 -1758564033 -396974488 -871759519 217358863 -1309749477 772244690 -847699279 -1211620444 2001034752 171170686 1546751962 1946684400 -1363437657 -1779923777 -1356742768 -1400904969 1835785529 493379008 593567670 149071948 671184087 989026617 1897319391 266887789 111754710 -709438552
REM
CELL 1.54180   50.00000   50.00000   50.00000   90.00000   90.00000   90.00000
LATT -1
SFAC C  
C      1  0.4171030000000  0.5074870000000  0.6056060000000 1.0
C      1  0.5736600000000  0.4026680000000  0.5259390000000 1.0
C      1  0.4667150000000  0.4591810000000  0.5345950000000 1.0
C      1  0.4602800000000  0.5784290000000  0.5294070000000 1.0
C      1  0.4141970000000  0.4824350000000  0.6143310000000 1.0
C      1  0.5903170000000  0.4362600000000  0.4779590000000 1.0
C      1  0.6096710000000  0.5387370000000  0.5412440000000 1.0
C      1  0.3703380000000  0.5319540000000  0.5192760000000 1.0
C      1  0.4279740000000  0.4539930000000  0.4855210000000 1.0
C      1  0.5750110000000  0.5607250000000  0.5595370000000 1.0
C      1  0.5675150000000  0.4869710000000  0.5851110000000 1.0
C      1  0.5664440000000  0.3803010000000  0.4535780000000 1.0
C      1  0.4487980000000  0.4739110000000  0.4195380000000 1.0
C      1  0.5799230000000  0.4366890000000  0.5675560000000 1.0
C      1  0.5011710000000  0.4869450000000  0.4058310000000 1.0
C      1  0.5570060000000  0.3861920000000  0.4292180000000 1.0
C      1  0.4681910000000  0.4555460000000  0.4062590000000 1.0
C      1  0.5764660000000  0.4659210000000  0.5683140000000 1.0
C      1  0.5358670000000  0.4616270000000  0.4585800000000 1.0
C      1  0.5237940000000  0.4159110000000  0.4776130000000 1.0
C      1  0.4212040000000  0.5598820000000  0.4383560000000 1.0
C      1  0.4880760000000  0.5324760000000  0.5321960000000 1.0
C      1  0.5360050000000  0.5030990000000  0.5390570000000 1.0
C      1  0.4948660000000  0.5110230000000  0.5124810000000 1.0
C      1  0.5579430000000  0.5351460000000  0.5006970000000 1.0
C      1  0.4557730000000  0.3953090000000  0.4924570000000 1.0
C      1  0.4582810000000  0.5435720000000  0.5291750000000 1.0
C      1  0.5405590000000  0.4330430000000  0.4173630000000 1.0
C      1  0.5505140000000  0.5644800000000  0.4169540000000 1.0
C      1  0.5718000000000  0.5158770000000  0.5774080000000 1.0
C      1  0.4886840000000  0.4844040000000  0.5881260000000 1.0
C      1  0.5163530000000  0.5078190000000  0.3917130000000 1.0
C      1  0.5182880000000  0.4964660000000  0.5182870000000 1.0
C      1  0.5310770000000  0.5806260000000  0.5548300000000 1.0
C      1  0.5136970000000  0.4433350000000  0.4711730000000 1.0
C      1  0.4005100000000  0.5108380000000  0.4519430000000 1.0
C      1  0.5913660000000  0.4690880000000  0.4488570000000 1.0
C      1  0.5971290000000  0.4536700000000  0.5001350000000 1.0
C      1  0.4236740000000  0.5716160000000  0.6031650000000 1.0
C      1  0.5730590000000  0.5240770000000  0.4099800000000 1.0
C      1  0.5259780000000  0.5183400000000  0.5608460000000 1.0
C      1  0.5408500000000  0.3987750000000  0.4917920000000 1.0
C      1  0.4360180000000  0.5254060000000  0.5953050000000 1.0
C      1  0.5662490000000  0.5166210000000  0.4358490000000 1.0
C      1  0.5233070000000  0.6066230000000  0.5047440000000 1.0
C      1  0.5152840000000  0.4816620000000  0.5982730000000 1.0
C      1  0.4414020000000  0.4725810000000  0.5370640000000 1.0
C      1  0.4294210000000  0.4604620000000  0.6139450000000 1.0
C      1  0.4749450000000  0.5519140000000  0.4579760000000 1.0
C      1  0.5423590000000  0.4816330000000  0.5985290000000 1.0
C      1  0.4722920000000  0.4054770000000  0.4320350000000 1.0
C      1  0.4763120000000  0.4446440000000  0.5595730000000 1.0
C      1  0.5453730000000  0.4053620000000  0.4144470000000 1.0
C      1  0.5753090000000  0.4727670000000  0.5400960000000 1.0
C      1  0.5683300000000  0.5491660000000  0.4013820000000 1.0
C      1  0.4596240000000  0.4185800000000  0.4774140000000 1.0
C      1  0.5736640000000  0.5131230000000  0.5123320000000 1.0
C      1  0.5549340000000  0.5697570000000  0.5423920000000 1.0
C      1  0.3958370000000  0.4440170000000  0.4511140000000 1.0
C      1  0.6098890000000  0.5318780000000  0.4927040000000 1.0
C      1  0.5383340000000  0.5444760000000  0.6017520000000 1.0
C      1  0.5043680000000  0.4562750000000  0.4975870000000 1.0
C      1  0.5397580000000  0.5951070000000  0.4500810000000 1.0
C      1  0.4396330000000  0.5180990000000  0.3937440000000 1.0
C      1  0.5046770000000  0.4367930000000  0.5582060000000 1.0
C      1  0.4438630000000  0.4938930000000  0.4723040000000 1.0
C      1  0.5887950000000  0.5354860000000  0.5618960000000 1.0
C      1  0.5504090000000  0.4742080000000  0.4832970000000 1.0
C      1  0.5015310000000  0.5228810000000  0.4329940000000 1.0
C      1  0.5160920000000  0.3682520000000  0.5443360000000 1.0
C      1  0.4433600000000  0.5372120000000  0.5002560000000 1.0
C      1  0.4794350000000  0.5090840000000  0.5763530000000 1.0
C      1  0.4546840000000  0.4812270000000  0.4478910000000 1.0
C      1  0.4526370000000  0.3889520000000  0.5183010000000 1.0
C      1  0.5265830000000  0.4749540000000  0.5025140000000 1.0
C      1  0.3714670000000  0.5037120000000  0.5156970000000 1.0
C      1  0.4761340000000  0.4535040000000  0.5077540000000 1.0
C      1  0.4822590000000  0.5157420000000  0.4879440000000 1.0
C      1  0.4968000000000  0.4588070000000  0.4007840000000 1.0
C      1  0.5003400000000  0.5405540000000  0.4541480000000 1.0
C      1  0.4440270000000  0.5214950000000  0.5459470000000 1.0
C      1  0.3495290000000  0.5438150000000  0.5323860000000 1.0
C      1  0.4602090000000  0.4187450000000  0.5592960000000 1.0
C      1  0.5278500000000  0.4879440000000  0.4463140000000 1.0
C      1  0.5010450000000  0.4927450000000  0.4351920000000 1.0
C      1  0.4521740000000  0.5178670000000  0.5732600000000 1.0
C      1  0.5531230000000  0.4441260000000  0.4412030000000 1.0
C      1  0.5313500000000  0.5876730000000  0.5820920000000 1.0
C      1  0.4398600000000  0.5985010000000  0.4659650000000 1.0
C      1  0.4386850000000  0.5940790000000  0.5200830000000 1.0
C      1  0.4187370000000  0.5833220000000  0.4541350000000 1.0
C      1  0.5797250000000  0.4880320000000  0.4666040000000 1.0
C      1  0.6128630000000  0.5507160000000  0.5144220000000 1.0
C      1  0.4187490000000  0.6014380000000  0.5381930000000 1.0
C      1  0.5137550000000  0.5609940000000  0.4968530000000 1.0
C      1  0.5600410000000  0.5750960000000  0.4432540000000 1.0
C      1  0.6004320000000  0.5065890000000  0.5026430000000 1.0
C      1  0.4404190000000  0.5499870000000  0.6089050000000 1.0
C      1  0.4458970000000  0.5433520000000  0.3998100000000 1.0
C      1  0.4850980000000  0.5929270000000  0.5335530000000 1.0
C      1  0.4895490000000  0.4463150000000  0.4538560000000 1.0
C      1  0.5450340000000  0.3993210000000  0.5204290000000 1.0
C      1  0.4075130000000  0.5354920000000  0.4434610000000 1.0
C      1  0.4062310000000  0.4624210000000  0.4687480000000 1.0
C      1  0.5627360000000  0.4967210000000  0.5323580000000 1.0
C      1  0.4688870000000  0.5715190000000  0.4365020000000 1.0
C      1  0.5833420000000  0.5656960000000  0.4614130000000 1.0
C      1  0.5942020000000  0.5836310000000  0.4818140000000 1.0
C      1  0.5124430000000  0.5978980000000  0.4416750000000 1.0
C      1  0.4093410000000  0.5999680000000  0.5629990000000 1.0
C      1  0.6071830000000  0.5771780000000  0.5051880000000 1.0
C      1  0.4987130000000  0.6120230000000  0.5163430000000 1.0
C      1  0.4977190000000  0.5229020000000  0.5594400000000 1.0
C      1  0.4539580000000  0.4432020000000  0.4909760000000 1.0
C      1  0.5179140000000  0.5442180000000  0.4751730000000 1.0
C      1  0.5334880000000  0.5708720000000  0.6030350000000 1.0
C      1  0.5961900000000  0.5385140000000  0.4673320000000 1.0
C      1  0.5802240000000  0.4431860000000  0.4515930000000 1.0
C      1  0.6092840000000  0.4798020000000  0.4988780000000 1.0
C      1  0.4385690000000  0.5061550000000  0.4992480000000 1.0
C      1  0.3760130000000  0.4940140000000  0.4898080000000 1.0
C      1  0.4527360000000  0.4535730000000  0.6029850000000 1.0
C      1  0.5014300000000  0.3461990000000  0.5436830000000 1.0
C      1  0.5027920000000  0.5774980000000  0.4236250000000 1.0
C      1  0.3914940000000  0.5470640000000  0.5085170000000 1.0
C      1  0.5064710000000  0.5757680000000  0.5422170000000 1.0
C      1  0.4724900000000  0.4609630000000  0.5845640000000 1.0
C      1  0.4177280000000  0.4613790000000  0.5472530000000 1.0
C      1  0.4451280000000  0.5604670000000  0.4219110000000 1.0
C      1  0.3943030000000  0.4888390000000  0.4691210000000 1.0
C      1  0.5218360000000  0.5597410000000  0.4116720000000 1.0
C      1  0.4165920000000  0.5495270000000  0.4997490000000 1.0
C      1  0.4900030000000  0.6113330000000  0.4534730000000 1.0
C      1  0.3746700000000  0.4857510000000  0.5370190000000 1.0
C      1  0.5656050000000  0.3874190000000  0.4804830000000 1.0
C      1  0.4533060000000  0.3984810000000  0.5432710000000 1.0
C      1  0.3918540000000  0.4683030000000  0.5477560000000 1.0
C      1  0.5430330000000  0.5116500000000  0.4518840000000 1.0
C      1  0.4837960000000  0.3267460000000  0.5400530000000 1.0
C      1  0.5362310000000  0.4934330000000  0.3770790000000 1.0
C      1  0.5047160000000  0.5548020000000  0.5230220000000 1.0
C      1  0.4389270000000  0.4989860000000  0.5276600000000 1.0
C      1  0.5816320000000  0.4256810000000  0.5402160000000 1.0
C      1  0.5270230000000  0.3936100000000  0.5408920000000 1.0
C      1  0.5444120000000  0.5268040000000  0.5808390000000 1.0
C      1  0.4732490000000  0.4228360000000  0.4529690000000 1.0
C      1  0.4387160000000  0.6032260000000  0.4935240000000 1.0
C      1  0.5398830000000  0.4663650000000  0.3806570000000 1.0
C      1  0.5413760000000  0.5285410000000  0.4761790000000 1.0
C      1  0.5134980000000  0.5322320000000  0.4078920000000 1.0
C      1  0.4367660000000  0.4932010000000  0.4029320000000 1.0
C      1  0.5546010000000  0.5634240000000  0.5139650000000 1.0
C      1  0.4823830000000  0.4739700000000  0.4493470000000 1.0
C      1  0.5248260000000  0.4485520000000  0.3981400000000 1.0
C      1  0.4606720000000  0.5522880000000  0.6271430000000 1.0
C      1  0.4118220000000  0.5891120000000  0.5871210000000 1.0
C      1  0.5197480000000  0.4151320000000  0.5568010000000 1.0
C      1  0.4649550000000  0.5382760000000  0.4800750000000 1.0
C      1  0.5346160000000  0.5806770000000  0.5003710000000 1.0
C      1  0.4646130000000  0.5979200000000  0.4514240000000 1.0
C      1  0.5851270000000  0.3900830000000  0.5020560000000 1.0
C      1  0.5836670000000  0.4500610000000  0.5244810000000 1.0
C      1  0.4651350000000  0.3093300000000  0.5347550000000 1.0
C      1  0.5862020000000  0.5145320000000  0.4558250000000 1.0
END
