TITL C-612605-9286-1163 0.449421408486762 125000 -416.205340737947 0 0 70 (C1) n - 1
REM
REM in /home/nfs/bkarasulu/CARBON/AIRSS/Generating-Clusters/TERSOFF/Only-C1/FIRE-HFTN
REM
REM
REM
REM
REM
REM ./C.cell (11c1c37f851c82e70ff6c80c92926a4b)
REM AIRSS Version 0.9.1 bugfix July 2018 build 013d7b7c2542+ Fri, 06 Jul 2018 19:26:36 +0100
REM compiler GCC version 9.2.1 20190827 (Red Hat 9.2.1-1)
REM options -cpp -mtune=generic -march=x86-64 -g -O0 -fpre-include=/usr/include/finclude/math-vector-fortran.h
REM seed 1855273032 -1347593869 -1894594332 901036388 861824672 1376294056 -1132055343 -1266766651 374901123 226649423 -2011351853 -715356885 -1945762040 1847060071 1949750591 1837179600 1963844827 -907374945 155885056 -661574686 1388782547 993652823 335110507 840687970 -408236154 -1388431910 -1227158056 -605603825 -1841436661 -586418999 -109005751 717661557 -1996028587
REM
CELL 1.54180   50.00000   50.00000   50.00000   90.00000   90.00000   90.00000
LATT -1
SFAC C  
C      1  0.5361020000000  0.4425400000000  0.5815430000000 1.0
C      1  0.3600190000000  0.4517220000000  0.4805590000000 1.0
C      1  0.4893400000000  0.5699150000000  0.4054700000000 1.0
C      1  0.5421050000000  0.5193720000000  0.5528990000000 1.0
C      1  0.5377530000000  0.4902050000000  0.5928820000000 1.0
C      1  0.5497120000000  0.5125510000000  0.4604210000000 1.0
C      1  0.4590740000000  0.5283140000000  0.4795480000000 1.0
C      1  0.5239450000000  0.3956500000000  0.5880760000000 1.0
C      1  0.4996930000000  0.5825640000000  0.4500720000000 1.0
C      1  0.4172030000000  0.4727840000000  0.5598060000000 1.0
C      1  0.4794460000000  0.5439760000000  0.4111370000000 1.0
C      1  0.5031250000000  0.5066110000000  0.4551110000000 1.0
C      1  0.5254780000000  0.4668890000000  0.4462000000000 1.0
C      1  0.5125200000000  0.4815620000000  0.4699330000000 1.0
C      1  0.4750620000000  0.5139340000000  0.5538710000000 1.0
C      1  0.5404840000000  0.5463470000000  0.4046800000000 1.0
C      1  0.4833350000000  0.5599720000000  0.5399260000000 1.0
C      1  0.4653550000000  0.4681300000000  0.5500300000000 1.0
C      1  0.4518400000000  0.5081740000000  0.5702660000000 1.0
C      1  0.5697760000000  0.4557210000000  0.4624900000000 1.0
C      1  0.4938350000000  0.4264720000000  0.5652570000000 1.0
C      1  0.4052830000000  0.4654720000000  0.4724290000000 1.0
C      1  0.4794750000000  0.4900240000000  0.5374430000000 1.0
C      1  0.5545870000000  0.4655100000000  0.4408930000000 1.0
C      1  0.5504450000000  0.4972100000000  0.5682570000000 1.0
C      1  0.4290480000000  0.5420760000000  0.6051280000000 1.0
C      1  0.4757850000000  0.4429330000000  0.5547840000000 1.0
C      1  0.5720020000000  0.5120600000000  0.4411700000000 1.0
C      1  0.4786220000000  0.5820820000000  0.5233050000000 1.0
C      1  0.5308150000000  0.4645360000000  0.5989790000000 1.0
C      1  0.5216850000000  0.5358940000000  0.4881450000000 1.0
C      1  0.4655280000000  0.5071880000000  0.4946290000000 1.0
C      1  0.5242780000000  0.5252370000000  0.4620320000000 1.0
C      1  0.4399790000000  0.5253300000000  0.5884200000000 1.0
C      1  0.5359740000000  0.3478870000000  0.6064310000000 1.0
C      1  0.4917930000000  0.5365780000000  0.5527810000000 1.0
C      1  0.5092390000000  0.5796720000000  0.4235310000000 1.0
C      1  0.4661730000000  0.4869910000000  0.4277390000000 1.0
C      1  0.5349980000000  0.5701220000000  0.4165590000000 1.0
C      1  0.4719260000000  0.6062080000000  0.5343760000000 1.0
C      1  0.5559550000000  0.4489010000000  0.5620580000000 1.0
C      1  0.4978230000000  0.5221210000000  0.4086660000000 1.0
C      1  0.4844240000000  0.4925510000000  0.5099270000000 1.0
C      1  0.4434460000000  0.4775590000000  0.4377420000000 1.0
C      1  0.3985350000000  0.4663780000000  0.5419730000000 1.0
C      1  0.5629900000000  0.4745670000000  0.5560970000000 1.0
C      1  0.4814600000000  0.5711580000000  0.4687370000000 1.0
C      1  0.5188180000000  0.5335650000000  0.5602330000000 1.0
C      1  0.5299850000000  0.3715680000000  0.5973250000000 1.0
C      1  0.4233980000000  0.4706130000000  0.4537190000000 1.0
C      1  0.5692910000000  0.4708190000000  0.4849530000000 1.0
C      1  0.5180070000000  0.4210850000000  0.5784150000000 1.0
C      1  0.4433820000000  0.4810270000000  0.5642340000000 1.0
C      1  0.5629650000000  0.4981670000000  0.4831840000000 1.0
C      1  0.5158080000000  0.4792610000000  0.4206500000000 1.0
C      1  0.3884250000000  0.4622490000000  0.5177720000000 1.0
C      1  0.4807130000000  0.5796560000000  0.4954270000000 1.0
C      1  0.4928640000000  0.4988840000000  0.4275880000000 1.0
C      1  0.5490790000000  0.5208580000000  0.5253800000000 1.0
C      1  0.5378790000000  0.4957180000000  0.4084520000000 1.0
C      1  0.5936340000000  0.5216760000000  0.4601890000000 1.0
C      1  0.4652630000000  0.5485270000000  0.4609060000000 1.0
C      1  0.5111960000000  0.4909410000000  0.4990470000000 1.0
C      1  0.5270240000000  0.5151890000000  0.5074370000000 1.0
C      1  0.5845780000000  0.5176050000000  0.4888650000000 1.0
C      1  0.3843520000000  0.4597410000000  0.4901690000000 1.0
C      1  0.4615700000000  0.5435790000000  0.4332470000000 1.0
C      1  0.5625510000000  0.4899140000000  0.4241220000000 1.0
C      1  0.5751240000000  0.5278750000000  0.5140790000000 1.0
C      1  0.5266230000000  0.5218340000000  0.4021990000000 1.0
END
