TITL C-612605-9286-324 3.58408338812862e-05 125000 -178.119195622552 0 0 30 (C1) n - 1
REM
REM in /home/nfs/bkarasulu/CARBON/AIRSS/Generating-Clusters/TERSOFF/Only-C1/FIRE-HFTN
REM
REM
REM
REM
REM
REM ./C.cell (11c1c37f851c82e70ff6c80c92926a4b)
REM AIRSS Version 0.9.1 bugfix July 2018 build 013d7b7c2542+ Fri, 06 Jul 2018 19:26:36 +0100
REM compiler GCC version 9.2.1 20190827 (Red Hat 9.2.1-1)
REM options -cpp -mtune=generic -march=x86-64 -g -O0 -fpre-include=/usr/include/finclude/math-vector-fortran.h
REM seed -987097647 1176665757 -1800409276 -633020633 962860781 -1300675382 -349678494 -2138055503 -1635563217 1090749440 1433394661 1166018442 -898577618 -1398738204 -1966747100 -1197257789 303602461 -1848990735 -114353795 -712103799 1612132568 1107461364 1412781987 -577819003 1830079226 144726244 1315967765 688510721 633109818 1672827067 786871025 -1830956851 -1726601313
REM
CELL 1.54180   50.00000   50.00000   50.00000   90.00000   90.00000   90.00000
LATT -1
SFAC C  
C      1  0.5535540000000  0.4136050000000  0.4104680000000 1.0
C      1  0.4348050000000  0.4996450000000  0.5256300000000 1.0
C      1  0.5340570000000  0.5169020000000  0.4589920000000 1.0
C      1  0.4977440000000  0.4854460000000  0.4329220000000 1.0
C      1  0.5494090000000  0.5303430000000  0.5413780000000 1.0
C      1  0.5427200000000  0.4978610000000  0.4413360000000 1.0
C      1  0.4797720000000  0.4529430000000  0.4942840000000 1.0
C      1  0.4792220000000  0.5152950000000  0.5109330000000 1.0
C      1  0.4922430000000  0.5695180000000  0.5564020000000 1.0
C      1  0.5250500000000  0.4766680000000  0.4336190000000 1.0
C      1  0.4959940000000  0.4649930000000  0.5345860000000 1.0
C      1  0.5442300000000  0.5095560000000  0.5255060000000 1.0
C      1  0.4438180000000  0.5582910000000  0.5537230000000 1.0
C      1  0.4891180000000  0.5041990000000  0.4509060000000 1.0
C      1  0.5180720000000  0.4681760000000  0.5152680000000 1.0
C      1  0.4201290000000  0.5172230000000  0.5394780000000 1.0
C      1  0.5423740000000  0.4312610000000  0.4260390000000 1.0
C      1  0.4701000000000  0.5580500000000  0.5437550000000 1.0
C      1  0.5229850000000  0.4446770000000  0.4690500000000 1.0
C      1  0.4715630000000  0.4674450000000  0.5182340000000 1.0
C      1  0.5040350000000  0.5105940000000  0.4974430000000 1.0
C      1  0.5304960000000  0.4502520000000  0.4425000000000 1.0
C      1  0.5399120000000  0.5516450000000  0.5543010000000 1.0
C      1  0.4233430000000  0.5410260000000  0.5514340000000 1.0
C      1  0.5185150000000  0.5665030000000  0.5600450000000 1.0
C      1  0.5088780000000  0.4525630000000  0.4916030000000 1.0
C      1  0.4749620000000  0.5406210000000  0.5221650000000 1.0
C      1  0.5246070000000  0.4956670000000  0.5113280000000 1.0
C      1  0.4607610000000  0.4936640000000  0.5168670000000 1.0
C      1  0.5075330000000  0.5153680000000  0.4698070000000 1.0
END
