TITL C-612606-7351-392 -0.000861055026882868 125000 -502.069549875751 0 0 84 (C1) n - 1
REM
REM in /home/nfs/bkarasulu/CARBON/AIRSS/Generating-Clusters/TERSOFF/Only-C1/FIRE-HFTN
REM
REM
REM
REM
REM
REM ./C.cell (11c1c37f851c82e70ff6c80c92926a4b)
REM AIRSS Version 0.9.1 bugfix July 2018 build 013d7b7c2542+ Fri, 06 Jul 2018 19:26:36 +0100
REM compiler GCC version 9.2.1 20190827 (Red Hat 9.2.1-1)
REM options -cpp -mtune=generic -march=x86-64 -g -O0 -fpre-include=/usr/include/finclude/math-vector-fortran.h
REM seed 874804096 172686850 440865264 -355533240 -378782695 -1597429196 543905280 1019495178 322580556 -1782285070 614480115 -596427317 -1614125650 1925293510 -1465046419 -369442357 2005751463 219759592 1386378699 1993745541 1241890156 -433423714 1138572417 -25286896 -466056633 -1560712223 1751740813 -618800057 -1327038330 1829394789 1038040002 -150063361 1267294211
REM
CELL 1.54180   50.00000   50.00000   50.00000   90.00000   90.00000   90.00000
LATT -1
SFAC C  
C      1  0.4760900000000  0.4763540000000  0.5235110000000 1.0
C      1  0.5723100000000  0.4895140000000  0.5197130000000 1.0
C      1  0.5340480000000  0.4404840000000  0.4442440000000 1.0
C      1  0.4689470000000  0.5507100000000  0.4684620000000 1.0
C      1  0.5647770000000  0.5640350000000  0.5387470000000 1.0
C      1  0.5597580000000  0.4454240000000  0.4613360000000 1.0
C      1  0.5309730000000  0.3671760000000  0.4285550000000 1.0
C      1  0.4331880000000  0.4933580000000  0.5584320000000 1.0
C      1  0.5392170000000  0.4844990000000  0.4717860000000 1.0
C      1  0.5297970000000  0.5400290000000  0.5989660000000 1.0
C      1  0.4978990000000  0.6015440000000  0.4635510000000 1.0
C      1  0.5588400000000  0.5475640000000  0.5608270000000 1.0
C      1  0.5438120000000  0.4838350000000  0.5202930000000 1.0
C      1  0.4622070000000  0.4586760000000  0.5409080000000 1.0
C      1  0.5556130000000  0.5341400000000  0.4989790000000 1.0
C      1  0.5310830000000  0.5359460000000  0.4263880000000 1.0
C      1  0.5179950000000  0.4634740000000  0.4357260000000 1.0
C      1  0.5722030000000  0.5224740000000  0.5598180000000 1.0
C      1  0.5321070000000  0.4734340000000  0.5440990000000 1.0
C      1  0.5811930000000  0.5036960000000  0.5424870000000 1.0
C      1  0.4980960000000  0.5800980000000  0.4464240000000 1.0
C      1  0.5573590000000  0.3989420000000  0.4498110000000 1.0
C      1  0.4306200000000  0.4197850000000  0.5664470000000 1.0
C      1  0.5221840000000  0.5794010000000  0.5717330000000 1.0
C      1  0.4631970000000  0.5475920000000  0.4944040000000 1.0
C      1  0.4992860000000  0.5218280000000  0.5191620000000 1.0
C      1  0.4430390000000  0.4583000000000  0.4413790000000 1.0
C      1  0.5529860000000  0.4968520000000  0.4268110000000 1.0
C      1  0.5318860000000  0.6025040000000  0.5831060000000 1.0
C      1  0.5566830000000  0.5244430000000  0.4319530000000 1.0
C      1  0.5650550000000  0.4706280000000  0.4750000000000 1.0
C      1  0.4988600000000  0.5813250000000  0.5558620000000 1.0
C      1  0.5046460000000  0.5300790000000  0.4359760000000 1.0
C      1  0.5144620000000  0.5482970000000  0.4815290000000 1.0
C      1  0.5355730000000  0.4460870000000  0.5491780000000 1.0
C      1  0.4558430000000  0.4136230000000  0.5586290000000 1.0
C      1  0.5736390000000  0.5287110000000  0.4543700000000 1.0
C      1  0.4372260000000  0.4657520000000  0.5533780000000 1.0
C      1  0.5302560000000  0.4946410000000  0.4964220000000 1.0
C      1  0.4724060000000  0.4902970000000  0.4781210000000 1.0
C      1  0.5794110000000  0.4914600000000  0.4911760000000 1.0
C      1  0.4240110000000  0.4703350000000  0.4567800000000 1.0
C      1  0.5544300000000  0.3711050000000  0.4429270000000 1.0
C      1  0.5327800000000  0.4126190000000  0.4380210000000 1.0
C      1  0.3928920000000  0.4505510000000  0.5681850000000 1.0
C      1  0.4861960000000  0.4442040000000  0.4887920000000 1.0
C      1  0.5178000000000  0.3914400000000  0.4253870000000 1.0
C      1  0.4964420000000  0.5509820000000  0.4562970000000 1.0
C      1  0.4936550000000  0.4971050000000  0.5326590000000 1.0
C      1  0.4311970000000  0.5703960000000  0.5290660000000 1.0
C      1  0.4998210000000  0.4941230000000  0.5794660000000 1.0
C      1  0.5737500000000  0.5193600000000  0.4814190000000 1.0
C      1  0.5200400000000  0.5739300000000  0.4935230000000 1.0
C      1  0.4712420000000  0.4323900000000  0.5465730000000 1.0
C      1  0.5365150000000  0.5549910000000  0.5770110000000 1.0
C      1  0.5105620000000  0.4887930000000  0.5541040000000 1.0
C      1  0.4922330000000  0.4751970000000  0.4295980000000 1.0
C      1  0.4673830000000  0.5054090000000  0.4550520000000 1.0
C      1  0.4129360000000  0.5079350000000  0.4906310000000 1.0
C      1  0.4901460000000  0.6045310000000  0.5139630000000 1.0
C      1  0.5640270000000  0.5566190000000  0.5130950000000 1.0
C      1  0.5014230000000  0.4233600000000  0.4956180000000 1.0
C      1  0.4801880000000  0.5911750000000  0.5369600000000 1.0
C      1  0.5245400000000  0.5247210000000  0.4988640000000 1.0
C      1  0.4771700000000  0.4697290000000  0.4960160000000 1.0
C      1  0.5723380000000  0.4193400000000  0.4629050000000 1.0
C      1  0.4500600000000  0.5045050000000  0.5780970000000 1.0
C      1  0.5313980000000  0.4231400000000  0.5359860000000 1.0
C      1  0.4676800000000  0.4603430000000  0.4302090000000 1.0
C      1  0.4221090000000  0.4973570000000  0.4659420000000 1.0
C      1  0.4192010000000  0.4455520000000  0.5629830000000 1.0
C      1  0.4773440000000  0.5386580000000  0.5152340000000 1.0
C      1  0.5347310000000  0.4845990000000  0.4440730000000 1.0
C      1  0.4182830000000  0.5074220000000  0.5394720000000 1.0
C      1  0.4320730000000  0.5326280000000  0.4325310000000 1.0
C      1  0.4148400000000  0.5217430000000  0.5154820000000 1.0
C      1  0.4529050000000  0.5838000000000  0.5373250000000 1.0
C      1  0.4891460000000  0.5048600000000  0.4359340000000 1.0
C      1  0.4250120000000  0.5503040000000  0.4147320000000 1.0
C      1  0.5044560000000  0.5974430000000  0.4909120000000 1.0
C      1  0.4752890000000  0.5022760000000  0.5871480000000 1.0
C      1  0.4177990000000  0.5497670000000  0.5182770000000 1.0
C      1  0.4405180000000  0.5137000000000  0.4510020000000 1.0
C      1  0.5186750000000  0.4145520000000  0.5140520000000 1.0
END
