TITL C-612601-4209-1099 0.000905845847089232 125000 -601.783523181823 0 0 100 (C1) n - 1
REM
REM in /home/nfs/bkarasulu/CARBON/AIRSS/Generating-Clusters/TERSOFF/Only-C1/FIRE-HFTN
REM
REM
REM
REM
REM
REM ./C.cell (11c1c37f851c82e70ff6c80c92926a4b)
REM AIRSS Version 0.9.1 bugfix July 2018 build 013d7b7c2542+ Fri, 06 Jul 2018 19:26:36 +0100
REM compiler GCC version 9.2.1 20190827 (Red Hat 9.2.1-1)
REM options -cpp -mtune=generic -march=x86-64 -g -O0 -fpre-include=/usr/include/finclude/math-vector-fortran.h
REM seed -1135102430 1601722980 2098960364 -454646057 -627449861 449204892 -230308261 957898028 -70765056 292469479 -598320627 1326151830 -201887826 -877736497 363997827 1664558629 1585936835 398994521 1163185414 -54636184 -286824737 1192855586 -733272544 2011568896 461657241 -2102377714 -480262710 549709418 -86954290 2078910770 1623451730 -2141990646 1251726797
REM
CELL 1.54180   50.00000   50.00000   50.00000   90.00000   90.00000   90.00000
LATT -1
SFAC C  
C      1  0.4466280000000  0.5460340000000  0.5523750000000 1.0
C      1  0.5711990000000  0.5608400000000  0.5036910000000 1.0
C      1  0.4539790000000  0.4156140000000  0.5488650000000 1.0
C      1  0.4580810000000  0.4772050000000  0.6179180000000 1.0
C      1  0.3986300000000  0.4750650000000  0.4896290000000 1.0
C      1  0.4940480000000  0.4667020000000  0.5027420000000 1.0
C      1  0.4757340000000  0.4628400000000  0.4602500000000 1.0
C      1  0.4686980000000  0.5140840000000  0.5802720000000 1.0
C      1  0.4244490000000  0.4955240000000  0.4258180000000 1.0
C      1  0.5576430000000  0.4761780000000  0.5580590000000 1.0
C      1  0.5282110000000  0.4571260000000  0.5900960000000 1.0
C      1  0.5744930000000  0.5972490000000  0.4727430000000 1.0
C      1  0.5429800000000  0.5207230000000  0.4045610000000 1.0
C      1  0.4522150000000  0.5186950000000  0.5576170000000 1.0
C      1  0.4600350000000  0.5663050000000  0.5408430000000 1.0
C      1  0.5029070000000  0.4683870000000  0.4738730000000 1.0
C      1  0.5580380000000  0.4974260000000  0.4596290000000 1.0
C      1  0.5254270000000  0.4499530000000  0.4702180000000 1.0
C      1  0.4050190000000  0.4480840000000  0.4968340000000 1.0
C      1  0.5250480000000  0.3846770000000  0.4893910000000 1.0
C      1  0.4923170000000  0.4869970000000  0.4128140000000 1.0
C      1  0.4114250000000  0.4303530000000  0.4481000000000 1.0
C      1  0.4928750000000  0.5011540000000  0.4382230000000 1.0
C      1  0.5225110000000  0.5397460000000  0.4119030000000 1.0
C      1  0.5129780000000  0.5462780000000  0.4382180000000 1.0
C      1  0.4771980000000  0.5744690000000  0.5196590000000 1.0
C      1  0.5718840000000  0.5478000000000  0.4332440000000 1.0
C      1  0.5132680000000  0.4439120000000  0.5690810000000 1.0
C      1  0.5509690000000  0.4262260000000  0.5476180000000 1.0
C      1  0.5191880000000  0.3602760000000  0.4785630000000 1.0
C      1  0.4380860000000  0.5635640000000  0.4932120000000 1.0
C      1  0.4601880000000  0.4339940000000  0.4980530000000 1.0
C      1  0.5183840000000  0.6240770000000  0.4913760000000 1.0
C      1  0.4659020000000  0.5697850000000  0.4930830000000 1.0
C      1  0.5728830000000  0.5006860000000  0.4370450000000 1.0
C      1  0.4624130000000  0.4958730000000  0.6002600000000 1.0
C      1  0.5324350000000  0.5390520000000  0.4585470000000 1.0
C      1  0.4172510000000  0.4443650000000  0.4260780000000 1.0
C      1  0.5856400000000  0.6167190000000  0.4877340000000 1.0
C      1  0.5493030000000  0.4479460000000  0.4862880000000 1.0
C      1  0.5236870000000  0.4208920000000  0.5548400000000 1.0
C      1  0.5044800000000  0.5177790000000  0.5307090000000 1.0
C      1  0.5189670000000  0.3903210000000  0.5166010000000 1.0
C      1  0.4974950000000  0.5461500000000  0.6016030000000 1.0
C      1  0.4253450000000  0.5146920000000  0.4844850000000 1.0
C      1  0.4047020000000  0.5007860000000  0.4457170000000 1.0
C      1  0.5103720000000  0.5273550000000  0.5572850000000 1.0
C      1  0.4550720000000  0.4797040000000  0.4653800000000 1.0
C      1  0.5915720000000  0.5960320000000  0.5311220000000 1.0
C      1  0.5213020000000  0.4485250000000  0.4092230000000 1.0
C      1  0.4668270000000  0.4593410000000  0.5083360000000 1.0
C      1  0.5215130000000  0.6434240000000  0.4741860000000 1.0
C      1  0.4136820000000  0.4383640000000  0.5224330000000 1.0
C      1  0.5817430000000  0.5713260000000  0.5261970000000 1.0
C      1  0.4668580000000  0.4938360000000  0.4016170000000 1.0
C      1  0.5136440000000  0.6044940000000  0.5085810000000 1.0
C      1  0.5373080000000  0.4049950000000  0.4737550000000 1.0
C      1  0.4529600000000  0.4765900000000  0.5263730000000 1.0
C      1  0.4587420000000  0.5028950000000  0.5350660000000 1.0
C      1  0.4049510000000  0.4981330000000  0.4740610000000 1.0
C      1  0.5241480000000  0.4245650000000  0.4551010000000 1.0
C      1  0.5094430000000  0.4715580000000  0.5254010000000 1.0
C      1  0.4776300000000  0.4076320000000  0.5342910000000 1.0
C      1  0.5669210000000  0.5703340000000  0.4773290000000 1.0
C      1  0.4714320000000  0.5224150000000  0.4379140000000 1.0
C      1  0.4498390000000  0.5089740000000  0.4206560000000 1.0
C      1  0.5675080000000  0.5228800000000  0.4198800000000 1.0
C      1  0.4512080000000  0.5040180000000  0.4794830000000 1.0
C      1  0.5636380000000  0.4503920000000  0.5476870000000 1.0
C      1  0.5233840000000  0.4958250000000  0.5263290000000 1.0
C      1  0.5011080000000  0.4611790000000  0.5504460000000 1.0
C      1  0.4728390000000  0.5164770000000  0.4922060000000 1.0
C      1  0.5095710000000  0.4950550000000  0.4607530000000 1.0
C      1  0.5538270000000  0.5023670000000  0.5990790000000 1.0
C      1  0.5505460000000  0.5276090000000  0.5852660000000 1.0
C      1  0.4700610000000  0.4103720000000  0.5066260000000 1.0
C      1  0.4972500000000  0.5604570000000  0.6233960000000 1.0
C      1  0.5219340000000  0.4285040000000  0.4273130000000 1.0
C      1  0.4223450000000  0.4687480000000  0.4161400000000 1.0
C      1  0.4302100000000  0.4267080000000  0.5407160000000 1.0
C      1  0.5332100000000  0.5104950000000  0.4647680000000 1.0
C      1  0.5489900000000  0.4767140000000  0.5862250000000 1.0
C      1  0.5571140000000  0.5538150000000  0.4569980000000 1.0
C      1  0.4792150000000  0.5155010000000  0.5191450000000 1.0
C      1  0.4227760000000  0.5416410000000  0.4914340000000 1.0
C      1  0.5352530000000  0.4950620000000  0.3950560000000 1.0
C      1  0.4784850000000  0.5635310000000  0.4683260000000 1.0
C      1  0.5933170000000  0.6166520000000  0.5136650000000 1.0
C      1  0.5030410000000  0.5855650000000  0.5263890000000 1.0
C      1  0.4930030000000  0.5291660000000  0.5798610000000 1.0
C      1  0.5354770000000  0.5736000000000  0.5701130000000 1.0
C      1  0.5490480000000  0.5561970000000  0.5864460000000 1.0
C      1  0.5182300000000  0.5801260000000  0.5501540000000 1.0
C      1  0.4850840000000  0.5468210000000  0.4462180000000 1.0
C      1  0.4067300000000  0.4307920000000  0.4744430000000 1.0
C      1  0.5161680000000  0.4756500000000  0.4030840000000 1.0
C      1  0.5063230000000  0.4046220000000  0.5379750000000 1.0
C      1  0.5573070000000  0.4215170000000  0.4872470000000 1.0
C      1  0.5461750000000  0.4981670000000  0.5438480000000 1.0
C      1  0.5384290000000  0.5206810000000  0.5604980000000 1.0
END
