TITL C-612601-4209-305 1.05455807577153 125000 -473.363205939756 0 0 78 (C1) n - 1
REM
REM in /home/nfs/bkarasulu/CARBON/AIRSS/Generating-Clusters/TERSOFF/Only-C1/FIRE-HFTN
REM
REM
REM
REM
REM
REM ./C.cell (11c1c37f851c82e70ff6c80c92926a4b)
REM AIRSS Version 0.9.1 bugfix July 2018 build 013d7b7c2542+ Fri, 06 Jul 2018 19:26:36 +0100
REM compiler GCC version 9.2.1 20190827 (Red Hat 9.2.1-1)
REM options -cpp -mtune=generic -march=x86-64 -g -O0 -fpre-include=/usr/include/finclude/math-vector-fortran.h
REM seed 756167009 -777031249 1703475937 -258307732 -1492344339 -1516833232 2076731864 -702117276 -1149780082 -635182294 1590413111 -1287657135 -1329684459 239282960 -714213804 1604831286 -1453952309 -331012801 1631584871 -1986518240 -1474312649 -1944311209 -1432527725 -1237003749 309713786 1479370034 1321649819 1134345972 -2029975308 -73129865 -1406054619 1971103698 -2101153866
REM
CELL 1.54180   50.00000   50.00000   50.00000   90.00000   90.00000   90.00000
LATT -1
SFAC C  
C      1  0.4407180000000  0.5180980000000  0.5444150000000 1.0
C      1  0.4276220000000  0.5090580000000  0.5208830000000 1.0
C      1  0.5630730000000  0.5119240000000  0.4415770000000 1.0
C      1  0.4561090000000  0.5836650000000  0.5320050000000 1.0
C      1  0.5629110000000  0.4838570000000  0.4369510000000 1.0
C      1  0.4207150000000  0.4010880000000  0.5313820000000 1.0
C      1  0.5467480000000  0.4118810000000  0.4863340000000 1.0
C      1  0.4263540000000  0.4200520000000  0.4877830000000 1.0
C      1  0.4174060000000  0.6447910000000  0.5002140000000 1.0
C      1  0.4047710000000  0.4212020000000  0.4398790000000 1.0
C      1  0.4849440000000  0.5364380000000  0.5415130000000 1.0
C      1  0.5435720000000  0.5567570000000  0.4364820000000 1.0
C      1  0.5336960000000  0.4905720000000  0.4912140000000 1.0
C      1  0.5834130000000  0.5443160000000  0.5044940000000 1.0
C      1  0.5591950000000  0.5490340000000  0.6001230000000 1.0
C      1  0.5071840000000  0.5423250000000  0.5618430000000 1.0
C      1  0.4788020000000  0.4856430000000  0.5513840000000 1.0
C      1  0.5047420000000  0.4091080000000  0.5316890000000 1.0
C      1  0.5605560000000  0.5562780000000  0.6251200000000 1.0
C      1  0.4681270000000  0.5128190000000  0.5499270000000 1.0
C      1  0.4959420000000  0.4161510000000  0.4825400000000 1.0
C      1  0.4301710000000  0.6249850000000  0.5113680000000 1.0
C      1  0.4923000000000  0.5379540000000  0.4292130000000 1.0
C      1  0.5071830000000  0.4809330000000  0.5507900000000 1.0
C      1  0.4453820000000  0.5479980000000  0.4359700000000 1.0
C      1  0.4688050000000  0.5613150000000  0.5383450000000 1.0
C      1  0.5060780000000  0.4262570000000  0.5789210000000 1.0
C      1  0.5618200000000  0.4664660000000  0.4579510000000 1.0
C      1  0.5145810000000  0.5192520000000  0.4272910000000 1.0
C      1  0.5227690000000  0.5717500000000  0.4451980000000 1.0
C      1  0.4606060000000  0.5009320000000  0.4864110000000 1.0
C      1  0.4153580000000  0.4211480000000  0.4637020000000 1.0
C      1  0.5609110000000  0.4290330000000  0.5011330000000 1.0
C      1  0.4188970000000  0.4824470000000  0.5247780000000 1.0
C      1  0.4966710000000  0.5612860000000  0.4464900000000 1.0
C      1  0.4608940000000  0.4628730000000  0.5478980000000 1.0
C      1  0.4964250000000  0.5282370000000  0.5138880000000 1.0
C      1  0.5322780000000  0.4825730000000  0.5377870000000 1.0
C      1  0.4649170000000  0.5327950000000  0.4215710000000 1.0
C      1  0.4869520000000  0.4110160000000  0.5087440000000 1.0
C      1  0.4759180000000  0.5678570000000  0.4647070000000 1.0
C      1  0.5796420000000  0.4806760000000  0.5457260000000 1.0
C      1  0.4499080000000  0.5564680000000  0.4626940000000 1.0
C      1  0.5616750000000  0.4560640000000  0.5084100000000 1.0
C      1  0.4372560000000  0.4806950000000  0.4469640000000 1.0
C      1  0.4363510000000  0.4144070000000  0.5132660000000 1.0
C      1  0.5400130000000  0.5489290000000  0.5293720000000 1.0
C      1  0.4831670000000  0.4359130000000  0.4670880000000 1.0
C      1  0.5863430000000  0.5160010000000  0.5128050000000 1.0
C      1  0.4952780000000  0.4246480000000  0.5541530000000 1.0
C      1  0.4625240000000  0.4219500000000  0.5201760000000 1.0
C      1  0.5850280000000  0.5447910000000  0.4758130000000 1.0
C      1  0.4708020000000  0.4367050000000  0.5441790000000 1.0
C      1  0.4336840000000  0.4661800000000  0.5405330000000 1.0
C      1  0.5250580000000  0.5288150000000  0.5165060000000 1.0
C      1  0.4876240000000  0.5090780000000  0.4931750000000 1.0
C      1  0.5850680000000  0.5080660000000  0.5403420000000 1.0
C      1  0.5787050000000  0.5191380000000  0.4645120000000 1.0
C      1  0.4370240000000  0.5425510000000  0.4835630000000 1.0
C      1  0.5635820000000  0.5589490000000  0.5179990000000 1.0
C      1  0.4431570000000  0.6047280000000  0.5224820000000 1.0
C      1  0.4397670000000  0.4898810000000  0.4217840000000 1.0
C      1  0.5221530000000  0.4078720000000  0.4766160000000 1.0
C      1  0.5088190000000  0.4942390000000  0.4789720000000 1.0
C      1  0.4561530000000  0.4789650000000  0.4677960000000 1.0
C      1  0.5601230000000  0.4765550000000  0.4858860000000 1.0
C      1  0.5573250000000  0.5413060000000  0.5734690000000 1.0
C      1  0.5798280000000  0.5005220000000  0.4881950000000 1.0
C      1  0.5337390000000  0.5022370000000  0.5169230000000 1.0
C      1  0.5418210000000  0.5287070000000  0.4322630000000 1.0
C      1  0.5084810000000  0.4919390000000  0.4316060000000 1.0
C      1  0.5013400000000  0.4798250000000  0.4558610000000 1.0
C      1  0.4548670000000  0.5090540000000  0.4103930000000 1.0
C      1  0.5779160000000  0.5263780000000  0.5607750000000 1.0
C      1  0.5347660000000  0.5480030000000  0.5574100000000 1.0
C      1  0.4792290000000  0.4629840000000  0.4613810000000 1.0
C      1  0.5570990000000  0.4672600000000  0.5348530000000 1.0
C      1  0.4391700000000  0.5173580000000  0.4961500000000 1.0
END
