TITL C-612603-7354-135 0.293883377264571 125000 -209.77298169138 0 0 35 (C1) n - 1
REM
REM in /home/nfs/bkarasulu/CARBON/AIRSS/Generating-Clusters/TERSOFF/Only-C1/FIRE-HFTN
REM
REM
REM
REM
REM
REM ./C.cell (11c1c37f851c82e70ff6c80c92926a4b)
REM AIRSS Version 0.9.1 bugfix July 2018 build 013d7b7c2542+ Fri, 06 Jul 2018 19:26:36 +0100
REM compiler GCC version 9.2.1 20190827 (Red Hat 9.2.1-1)
REM options -cpp -mtune=generic -march=x86-64 -g -O0 -fpre-include=/usr/include/finclude/math-vector-fortran.h
REM seed 85531331 409439373 711298416 1120087776 148062139 292016359 -1884343155 -1038568386 -1337994931 -506288494 396896259 1596930617 -1240928527 65066606 -591635154 -794096267 1577837572 -1520204787 1406134118 -840887277 921139665 1975856955 -908111946 -2134326505 1743527240 647962811 -1423359282 -250715802 1016219482 -73533928 -873094966 -1165727072 1845757440
REM
CELL 1.54180   50.00000   50.00000   50.00000   90.00000   90.00000   90.00000
LATT -1
SFAC C  
C      1  0.5436350000000  0.5077880000000  0.5280870000000 1.0
C      1  0.4551350000000  0.5173210000000  0.4357110000000 1.0
C      1  0.5067850000000  0.4430960000000  0.5960310000000 1.0
C      1  0.5445430000000  0.4874660000000  0.5486060000000 1.0
C      1  0.4471660000000  0.5091960000000  0.4620030000000 1.0
C      1  0.4991830000000  0.4955370000000  0.5431020000000 1.0
C      1  0.5347110000000  0.4674600000000  0.4705490000000 1.0
C      1  0.4993030000000  0.5003230000000  0.4377610000000 1.0
C      1  0.5021130000000  0.5220520000000  0.5027650000000 1.0
C      1  0.5588900000000  0.5123320000000  0.5045960000000 1.0
C      1  0.4828030000000  0.5229430000000  0.4317340000000 1.0
C      1  0.4685210000000  0.4960070000000  0.4759550000000 1.0
C      1  0.4779400000000  0.5052320000000  0.5009830000000 1.0
C      1  0.5112260000000  0.5478900000000  0.4615840000000 1.0
C      1  0.5419920000000  0.4936510000000  0.4608900000000 1.0
C      1  0.5860580000000  0.5146390000000  0.5048280000000 1.0
C      1  0.5154330000000  0.5152320000000  0.5273410000000 1.0
C      1  0.5523900000000  0.4490320000000  0.4798710000000 1.0
C      1  0.4894980000000  0.3893550000000  0.6514040000000 1.0
C      1  0.4884330000000  0.4832140000000  0.4591710000000 1.0
C      1  0.5277740000000  0.5003180000000  0.4368380000000 1.0
C      1  0.5125290000000  0.4610950000000  0.5774670000000 1.0
C      1  0.4757840000000  0.4920380000000  0.5267330000000 1.0
C      1  0.5065060000000  0.4635200000000  0.4689010000000 1.0
C      1  0.4513490000000  0.5801080000000  0.4484660000000 1.0
C      1  0.4199390000000  0.5499660000000  0.4735020000000 1.0
C      1  0.4747090000000  0.5709410000000  0.4391090000000 1.0
C      1  0.5435500000000  0.5145710000000  0.4804340000000 1.0
C      1  0.5009920000000  0.4250870000000  0.6145880000000 1.0
C      1  0.5195270000000  0.5307330000000  0.4820910000000 1.0
C      1  0.4917360000000  0.5486870000000  0.4411570000000 1.0
C      1  0.4951980000000  0.4070730000000  0.6331490000000 1.0
C      1  0.5181660000000  0.4798400000000  0.5579900000000 1.0
C      1  0.4299660000000  0.5723490000000  0.4626240000000 1.0
C      1  0.4265150000000  0.5239090000000  0.4739790000000 1.0
END
