TITL C-612606-7351-1395 0.000120927062550623 125000 -922.542993440874 0 0 151 (C1) n - 1
REM
REM in /home/nfs/bkarasulu/CARBON/AIRSS/Generating-Clusters/TERSOFF/Only-C1/FIRE-HFTN
REM
REM
REM
REM
REM
REM ./C.cell (11c1c37f851c82e70ff6c80c92926a4b)
REM AIRSS Version 0.9.1 bugfix July 2018 build 013d7b7c2542+ Fri, 06 Jul 2018 19:26:36 +0100
REM compiler GCC version 9.2.1 20190827 (Red Hat 9.2.1-1)
REM options -cpp -mtune=generic -march=x86-64 -g -O0 -fpre-include=/usr/include/finclude/math-vector-fortran.h
REM seed 846464302 -336013854 -463521914 -1068488925 1094396759 724454331 2031342126 501133617 1140933685 1608572140 -1756210061 1943641161 892618958 -768963655 1551732336 1679963776 2118014436 769280517 709854012 39049322 1238645704 -943937158 280626781 73903730 683292889 522467330 1765118620 782546307 241434970 444579626 -1725713051 -1218432100 157190479
REM
CELL 1.54180   50.00000   50.00000   50.00000   90.00000   90.00000   90.00000
LATT -1
SFAC C  
C      1  0.5361260000000  0.4788650000000  0.5546250000000 1.0
C      1  0.4361010000000  0.4651250000000  0.4148500000000 1.0
C      1  0.3995160000000  0.4993170000000  0.4696900000000 1.0
C      1  0.4502700000000  0.5110090000000  0.4737380000000 1.0
C      1  0.5545660000000  0.4684040000000  0.5734850000000 1.0
C      1  0.4618640000000  0.6148490000000  0.4644490000000 1.0
C      1  0.5630440000000  0.5486530000000  0.4858340000000 1.0
C      1  0.6208190000000  0.5042610000000  0.4894530000000 1.0
C      1  0.5727650000000  0.5313290000000  0.4224880000000 1.0
C      1  0.4901590000000  0.4048120000000  0.4493320000000 1.0
C      1  0.4728400000000  0.4938710000000  0.6068030000000 1.0
C      1  0.4800120000000  0.4240930000000  0.5543440000000 1.0
C      1  0.5177020000000  0.5027060000000  0.4993450000000 1.0
C      1  0.4464840000000  0.3934640000000  0.5393800000000 1.0
C      1  0.5834560000000  0.5655360000000  0.5515210000000 1.0
C      1  0.5701590000000  0.4713360000000  0.4447630000000 1.0
C      1  0.4401060000000  0.4590830000000  0.5724670000000 1.0
C      1  0.5704890000000  0.5532500000000  0.4374790000000 1.0
C      1  0.4768170000000  0.6132060000000  0.5132470000000 1.0
C      1  0.5443870000000  0.6092240000000  0.5138710000000 1.0
C      1  0.5515950000000  0.5928310000000  0.4635640000000 1.0
C      1  0.5331160000000  0.5883220000000  0.5582910000000 1.0
C      1  0.5965400000000  0.4887450000000  0.5629750000000 1.0
C      1  0.4727590000000  0.5029110000000  0.5589320000000 1.0
C      1  0.3849570000000  0.4785430000000  0.5465270000000 1.0
C      1  0.4440160000000  0.5007480000000  0.5955830000000 1.0
C      1  0.5526910000000  0.5225920000000  0.4734570000000 1.0
C      1  0.5513800000000  0.6081360000000  0.4878030000000 1.0
C      1  0.5243900000000  0.5566570000000  0.5966880000000 1.0
C      1  0.4661440000000  0.4377100000000  0.5049030000000 1.0
C      1  0.5162160000000  0.5461420000000  0.4038220000000 1.0
C      1  0.3782110000000  0.4709830000000  0.5216480000000 1.0
C      1  0.4686570000000  0.5146480000000  0.4481020000000 1.0
C      1  0.4571770000000  0.6116260000000  0.4932840000000 1.0
C      1  0.5533510000000  0.4242220000000  0.5312340000000 1.0
C      1  0.5229050000000  0.5718920000000  0.4015950000000 1.0
C      1  0.5077410000000  0.5261170000000  0.5109140000000 1.0
C      1  0.4756720000000  0.4317190000000  0.4102200000000 1.0
C      1  0.5276830000000  0.5901870000000  0.4474080000000 1.0
C      1  0.4712950000000  0.5202870000000  0.3798430000000 1.0
C      1  0.5781660000000  0.5062310000000  0.4110240000000 1.0
C      1  0.5146490000000  0.4949700000000  0.4539330000000 1.0
C      1  0.4640770000000  0.4656030000000  0.5006510000000 1.0
C      1  0.5384750000000  0.5575490000000  0.5020350000000 1.0
C      1  0.5771780000000  0.5316630000000  0.5843670000000 1.0
C      1  0.4827010000000  0.4796200000000  0.5176830000000 1.0
C      1  0.4122680000000  0.5719270000000  0.5364760000000 1.0
C      1  0.5419440000000  0.5682940000000  0.5772920000000 1.0
C      1  0.4302100000000  0.5997030000000  0.4945950000000 1.0
C      1  0.5600860000000  0.4872620000000  0.5952250000000 1.0
C      1  0.5238820000000  0.4574520000000  0.6116300000000 1.0
C      1  0.5462340000000  0.4128150000000  0.5564130000000 1.0
C      1  0.5071560000000  0.5760690000000  0.4614900000000 1.0
C      1  0.5076930000000  0.5263610000000  0.4194520000000 1.0
C      1  0.5129660000000  0.4015200000000  0.4678730000000 1.0
C      1  0.4548570000000  0.5166650000000  0.4024290000000 1.0
C      1  0.5288730000000  0.5408390000000  0.5230480000000 1.0
C      1  0.5971320000000  0.5042140000000  0.3913270000000 1.0
C      1  0.5441980000000  0.4473910000000  0.5174200000000 1.0
C      1  0.5808400000000  0.5035960000000  0.5833320000000 1.0
C      1  0.4963760000000  0.4170290000000  0.4233360000000 1.0
C      1  0.4967090000000  0.5114950000000  0.4407730000000 1.0
C      1  0.4583770000000  0.5325320000000  0.4265150000000 1.0
C      1  0.5692700000000  0.4451040000000  0.5793960000000 1.0
C      1  0.4170710000000  0.5887660000000  0.5164440000000 1.0
C      1  0.5901010000000  0.5594480000000  0.5264940000000 1.0
C      1  0.4224200000000  0.4241710000000  0.4857470000000 1.0
C      1  0.5077710000000  0.4491670000000  0.4729020000000 1.0
C      1  0.5566290000000  0.4542220000000  0.4927510000000 1.0
C      1  0.4926550000000  0.5107380000000  0.3669260000000 1.0
C      1  0.5671340000000  0.4613570000000  0.4693000000000 1.0
C      1  0.5304290000000  0.5054820000000  0.4746370000000 1.0
C      1  0.5976680000000  0.4434440000000  0.5320910000000 1.0
C      1  0.4421440000000  0.6006920000000  0.4478390000000 1.0
C      1  0.4537910000000  0.4129550000000  0.5587850000000 1.0
C      1  0.5644820000000  0.4826710000000  0.4196110000000 1.0
C      1  0.6225180000000  0.5899840000000  0.4694810000000 1.0
C      1  0.5214050000000  0.4068750000000  0.5688340000000 1.0
C      1  0.4241080000000  0.4817200000000  0.5808870000000 1.0
C      1  0.5450060000000  0.4701710000000  0.4027120000000 1.0
C      1  0.3939700000000  0.4716870000000  0.4729040000000 1.0
C      1  0.4478820000000  0.5835100000000  0.4258510000000 1.0
C      1  0.5172910000000  0.5693870000000  0.4872030000000 1.0
C      1  0.4987980000000  0.6096930000000  0.5283150000000 1.0
C      1  0.5628530000000  0.3925610000000  0.4821960000000 1.0
C      1  0.4210520000000  0.5153410000000  0.4660450000000 1.0
C      1  0.5290220000000  0.4670360000000  0.5299810000000 1.0
C      1  0.5257990000000  0.6030720000000  0.5346590000000 1.0
C      1  0.4446060000000  0.4901640000000  0.4052050000000 1.0
C      1  0.5660490000000  0.4189380000000  0.5754900000000 1.0
C      1  0.5987040000000  0.5796290000000  0.4674610000000 1.0
C      1  0.5682440000000  0.5563530000000  0.5733800000000 1.0
C      1  0.4212540000000  0.5954300000000  0.4673600000000 1.0
C      1  0.5384510000000  0.4431080000000  0.4069040000000 1.0
C      1  0.6006270000000  0.4672950000000  0.5458780000000 1.0
C      1  0.5273270000000  0.5913400000000  0.4195180000000 1.0
C      1  0.5117830000000  0.4251630000000  0.4833710000000 1.0
C      1  0.4510420000000  0.5193050000000  0.5733940000000 1.0
C      1  0.5365240000000  0.5277700000000  0.5465840000000 1.0
C      1  0.4226600000000  0.5582140000000  0.5585660000000 1.0
C      1  0.4456370000000  0.4874420000000  0.4944160000000 1.0
C      1  0.5810400000000  0.4038880000000  0.4991810000000 1.0
C      1  0.5867360000000  0.5436740000000  0.5035870000000 1.0
C      1  0.4357380000000  0.4315610000000  0.5699790000000 1.0
C      1  0.4444250000000  0.4264840000000  0.4443950000000 1.0
C      1  0.5710130000000  0.5691280000000  0.4631880000000 1.0
C      1  0.5811490000000  0.4213870000000  0.5219420000000 1.0
C      1  0.5167960000000  0.4970480000000  0.3622350000000 1.0
C      1  0.4211270000000  0.5093500000000  0.5410400000000 1.0
C      1  0.4518290000000  0.4416110000000  0.4211750000000 1.0
C      1  0.4360350000000  0.5740780000000  0.5779690000000 1.0
C      1  0.4388500000000  0.5883960000000  0.4005990000000 1.0
C      1  0.5081830000000  0.5376910000000  0.6074450000000 1.0
C      1  0.4663440000000  0.4691380000000  0.5699170000000 1.0
C      1  0.4695860000000  0.5036760000000  0.5304570000000 1.0
C      1  0.5248900000000  0.5051630000000  0.5594230000000 1.0
C      1  0.4671570000000  0.5579550000000  0.4791350000000 1.0
C      1  0.4637080000000  0.4112920000000  0.4600620000000 1.0
C      1  0.4625370000000  0.5790770000000  0.5760820000000 1.0
C      1  0.5160190000000  0.3805530000000  0.5766540000000 1.0
C      1  0.3890070000000  0.4592930000000  0.4985720000000 1.0
C      1  0.4809790000000  0.5659200000000  0.4557480000000 1.0
C      1  0.4042650000000  0.4547510000000  0.4518320000000 1.0
C      1  0.4994070000000  0.5080410000000  0.5714590000000 1.0
C      1  0.4627320000000  0.5336010000000  0.4920020000000 1.0
C      1  0.4945320000000  0.5141220000000  0.5997880000000 1.0
C      1  0.4206830000000  0.4325160000000  0.4587130000000 1.0
C      1  0.4488590000000  0.3927080000000  0.5122260000000 1.0
C      1  0.5267860000000  0.4956280000000  0.3367750000000 1.0
C      1  0.4504440000000  0.4150110000000  0.4926100000000 1.0
C      1  0.4399550000000  0.4999180000000  0.5212290000000 1.0
C      1  0.5224660000000  0.4232850000000  0.4149420000000 1.0
C      1  0.4783890000000  0.5689980000000  0.5568660000000 1.0
C      1  0.4787710000000  0.5294090000000  0.5171720000000 1.0
C      1  0.5308670000000  0.4848600000000  0.3833440000000 1.0
C      1  0.5425100000000  0.4773620000000  0.6155260000000 1.0
C      1  0.4776570000000  0.5531220000000  0.5354500000000 1.0
C      1  0.4024780000000  0.4344990000000  0.5023750000000 1.0
C      1  0.4306570000000  0.5312840000000  0.5570710000000 1.0
C      1  0.4073050000000  0.4906260000000  0.5583640000000 1.0
C      1  0.5097780000000  0.3561940000000  0.5834930000000 1.0
C      1  0.4831100000000  0.4306350000000  0.5269950000000 1.0
C      1  0.6047490000000  0.5232620000000  0.4971870000000 1.0
C      1  0.4641950000000  0.5608650000000  0.4322760000000 1.0
C      1  0.5384430000000  0.3890440000000  0.4704990000000 1.0
C      1  0.5023430000000  0.4487350000000  0.5946830000000 1.0
C      1  0.5013880000000  0.4270630000000  0.5737290000000 1.0
C      1  0.5096890000000  0.4678660000000  0.4545000000000 1.0
C      1  0.5102180000000  0.4802020000000  0.5139510000000 1.0
C      1  0.4808890000000  0.4677180000000  0.5942970000000 1.0
C      1  0.4098770000000  0.4646930000000  0.4260610000000 1.0
END
