TITL C-612606-7351-1297 -0.000233440867680197 125000 -358.954939139213 0 0 61 (C1) n - 1
REM
REM in /home/nfs/bkarasulu/CARBON/AIRSS/Generating-Clusters/TERSOFF/Only-C1/FIRE-HFTN
REM
REM
REM
REM
REM
REM ./C.cell (11c1c37f851c82e70ff6c80c92926a4b)
REM AIRSS Version 0.9.1 bugfix July 2018 build 013d7b7c2542+ Fri, 06 Jul 2018 19:26:36 +0100
REM compiler GCC version 9.2.1 20190827 (Red Hat 9.2.1-1)
REM options -cpp -mtune=generic -march=x86-64 -g -O0 -fpre-include=/usr/include/finclude/math-vector-fortran.h
REM seed -998292587 446858639 -1102181217 866228999 2086313378 1785517128 641169750 598239590 -812613098 -843962764 532275265 495308858 1459942465 -1713624024 722659559 -1514755026 -510144806 -368884612 -22335591 -1767730305 -683327369 -502444722 14371215 -1215173018 1334955684 -843670685 235718148 -445935745 -123351579 -1618391803 956760681 1796840731 1159522400
REM
CELL 1.54180   50.00000   50.00000   50.00000   90.00000   90.00000   90.00000
LATT -1
SFAC C  
C      1  0.5070840000000  0.4409580000000  0.4533150000000 1.0
C      1  0.4466300000000  0.5401080000000  0.5705430000000 1.0
C      1  0.5569630000000  0.4702040000000  0.5070570000000 1.0
C      1  0.4745560000000  0.5267000000000  0.4360470000000 1.0
C      1  0.5385950000000  0.5393240000000  0.5228050000000 1.0
C      1  0.4724700000000  0.4820250000000  0.4894160000000 1.0
C      1  0.5233910000000  0.4546570000000  0.4729670000000 1.0
C      1  0.5486930000000  0.4742100000000  0.4107490000000 1.0
C      1  0.4365540000000  0.4170660000000  0.5037360000000 1.0
C      1  0.4877980000000  0.4799660000000  0.4234170000000 1.0
C      1  0.5115830000000  0.4146820000000  0.4471140000000 1.0
C      1  0.4658930000000  0.4563280000000  0.5557580000000 1.0
C      1  0.5132270000000  0.5638340000000  0.4700940000000 1.0
C      1  0.6017320000000  0.4919530000000  0.4564350000000 1.0
C      1  0.5782220000000  0.4889370000000  0.4456030000000 1.0
C      1  0.5405890000000  0.4479710000000  0.4953440000000 1.0
C      1  0.4284260000000  0.4865710000000  0.5317830000000 1.0
C      1  0.4445950000000  0.5335530000000  0.4764850000000 1.0
C      1  0.5487510000000  0.5614110000000  0.5066800000000 1.0
C      1  0.5349560000000  0.5744220000000  0.4862020000000 1.0
C      1  0.4581500000000  0.4598070000000  0.4798850000000 1.0
C      1  0.5894740000000  0.5141360000000  0.5973240000000 1.0
C      1  0.5014250000000  0.5310490000000  0.4261030000000 1.0
C      1  0.4585100000000  0.4591230000000  0.4516930000000 1.0
C      1  0.4859100000000  0.5039140000000  0.5417350000000 1.0
C      1  0.4693880000000  0.5391120000000  0.5862680000000 1.0
C      1  0.5203590000000  0.5222190000000  0.4452680000000 1.0
C      1  0.5469740000000  0.5161100000000  0.5386790000000 1.0
C      1  0.5678650000000  0.5174960000000  0.5831500000000 1.0
C      1  0.4833320000000  0.5654170000000  0.4718330000000 1.0
C      1  0.4425340000000  0.4657140000000  0.5420550000000 1.0
C      1  0.5064110000000  0.5230870000000  0.4924250000000 1.0
C      1  0.4994910000000  0.4940070000000  0.4937860000000 1.0
C      1  0.5139710000000  0.4459770000000  0.5357130000000 1.0
C      1  0.5305290000000  0.4964350000000  0.4496900000000 1.0
C      1  0.5203120000000  0.5283630000000  0.5806130000000 1.0
C      1  0.5168250000000  0.5354990000000  0.4692470000000 1.0
C      1  0.4703980000000  0.5253900000000  0.5339700000000 1.0
C      1  0.4459660000000  0.4824320000000  0.4394840000000 1.0
C      1  0.5283350000000  0.4317260000000  0.5157320000000 1.0
C      1  0.4776420000000  0.5726250000000  0.4992200000000 1.0
C      1  0.4859470000000  0.4985040000000  0.5697240000000 1.0
C      1  0.4661800000000  0.5433400000000  0.4596110000000 1.0
C      1  0.5524700000000  0.4862380000000  0.4350240000000 1.0
C      1  0.4745910000000  0.4738800000000  0.5766150000000 1.0
C      1  0.5104450000000  0.5390980000000  0.5158580000000 1.0
C      1  0.4873390000000  0.4408310000000  0.5447550000000 1.0
C      1  0.4858560000000  0.4558390000000  0.4402130000000 1.0
C      1  0.5468510000000  0.4872780000000  0.5289510000000 1.0
C      1  0.4442760000000  0.5305400000000  0.5437230000000 1.0
C      1  0.4661850000000  0.5000510000000  0.4289810000000 1.0
C      1  0.5073450000000  0.5422230000000  0.4020460000000 1.0
C      1  0.4284990000000  0.5145380000000  0.5250820000000 1.0
C      1  0.5187620000000  0.4826690000000  0.4722220000000 1.0
C      1  0.4469410000000  0.4391410000000  0.4945400000000 1.0
C      1  0.4926290000000  0.5221960000000  0.5839290000000 1.0
C      1  0.4927300000000  0.5613520000000  0.5191120000000 1.0
C      1  0.5448180000000  0.5207130000000  0.5675880000000 1.0
C      1  0.5215120000000  0.4738420000000  0.5350500000000 1.0
C      1  0.5013470000000  0.4896880000000  0.5238900000000 1.0
C      1  0.4307690000000  0.5235220000000  0.4976660000000 1.0
END
