TITL C-612604-1799-817 5.21088771778576e-05 125000 -1218.67890534307 0 0 200 (C1) n - 1
REM
REM in /home/nfs/bkarasulu/CARBON/AIRSS/Generating-Clusters/TERSOFF/Only-C1/FIRE-HFTN
REM
REM
REM
REM
REM
REM ./C.cell (11c1c37f851c82e70ff6c80c92926a4b)
REM AIRSS Version 0.9.1 bugfix July 2018 build 013d7b7c2542+ Fri, 06 Jul 2018 19:26:36 +0100
REM compiler GCC version 9.2.1 20190827 (Red Hat 9.2.1-1)
REM options -cpp -mtune=generic -march=x86-64 -g -O0 -fpre-include=/usr/include/finclude/math-vector-fortran.h
REM seed -617011966 660573874 -49606212 -366845663 27961048 -1011387952 -425717160 -1298230020 1246733179 1402367481 1861033576 76769927 191055152 1986919176 -587844374 -345808523 -1037359367 702630926 1672485370 -644334963 341464293 -2106501440 1329078217 1024543933 618755891 -12339887 -353829341 152249237 1856730836 698952344 -40165217 1256559857 -1761494482
REM
CELL 1.54180   50.00000   50.00000   50.00000   90.00000   90.00000   90.00000
LATT -1
SFAC C  
C      1  0.5412180000000  0.4726520000000  0.4883010000000 1.0
C      1  0.4866970000000  0.6141710000000  0.4834800000000 1.0
C      1  0.5728490000000  0.4918060000000  0.6197850000000 1.0
C      1  0.4649220000000  0.5011340000000  0.6171210000000 1.0
C      1  0.5946470000000  0.5793540000000  0.5162170000000 1.0
C      1  0.5975330000000  0.5647210000000  0.4676200000000 1.0
C      1  0.5244810000000  0.6267560000000  0.5141030000000 1.0
C      1  0.4222730000000  0.5055370000000  0.4629770000000 1.0
C      1  0.5401970000000  0.6077760000000  0.5281790000000 1.0
C      1  0.6250780000000  0.4990340000000  0.5602710000000 1.0
C      1  0.5156110000000  0.4305730000000  0.5766770000000 1.0
C      1  0.4264430000000  0.5479930000000  0.4145220000000 1.0
C      1  0.4431410000000  0.5417240000000  0.5005280000000 1.0
C      1  0.4367110000000  0.5813140000000  0.4532940000000 1.0
C      1  0.5257280000000  0.4542710000000  0.5917170000000 1.0
C      1  0.5268880000000  0.5389740000000  0.5714490000000 1.0
C      1  0.5088030000000  0.5792120000000  0.4031650000000 1.0
C      1  0.5964050000000  0.6124300000000  0.4569860000000 1.0
C      1  0.5515460000000  0.5034920000000  0.5342300000000 1.0
C      1  0.4818470000000  0.4785750000000  0.3979690000000 1.0
C      1  0.4380530000000  0.5586050000000  0.5659170000000 1.0
C      1  0.6012810000000  0.4830100000000  0.4055970000000 1.0
C      1  0.5103470000000  0.5456090000000  0.4962950000000 1.0
C      1  0.4935810000000  0.4942570000000  0.6143950000000 1.0
C      1  0.4665070000000  0.4140680000000  0.5655980000000 1.0
C      1  0.4997450000000  0.4676390000000  0.6030720000000 1.0
C      1  0.4048400000000  0.4808060000000  0.4994800000000 1.0
C      1  0.5413970000000  0.5091770000000  0.3916540000000 1.0
C      1  0.5613650000000  0.4721740000000  0.4661910000000 1.0
C      1  0.4409090000000  0.4266540000000  0.5694940000000 1.0
C      1  0.5269170000000  0.4966300000000  0.5453930000000 1.0
C      1  0.5330790000000  0.4437080000000  0.4948850000000 1.0
C      1  0.4922310000000  0.4874670000000  0.4906630000000 1.0
C      1  0.4098930000000  0.4383650000000  0.5308000000000 1.0
C      1  0.4140510000000  0.4670850000000  0.6239070000000 1.0
C      1  0.4957810000000  0.5038270000000  0.4344670000000 1.0
C      1  0.4587390000000  0.4651760000000  0.4106450000000 1.0
C      1  0.4456530000000  0.5056220000000  0.4451270000000 1.0
C      1  0.6032900000000  0.5185190000000  0.5634670000000 1.0
C      1  0.5590620000000  0.4100190000000  0.5651140000000 1.0
C      1  0.3816120000000  0.5288100000000  0.6160250000000 1.0
C      1  0.5151370000000  0.5426770000000  0.5986160000000 1.0
C      1  0.4388090000000  0.5922590000000  0.5180910000000 1.0
C      1  0.5537190000000  0.3741190000000  0.5226290000000 1.0
C      1  0.5985000000000  0.5455490000000  0.4432390000000 1.0
C      1  0.5963690000000  0.4846710000000  0.4318870000000 1.0
C      1  0.5230130000000  0.3859540000000  0.4498660000000 1.0
C      1  0.4745100000000  0.5335540000000  0.5819120000000 1.0
C      1  0.4100570000000  0.5924470000000  0.5172330000000 1.0
C      1  0.5209570000000  0.5973430000000  0.4198540000000 1.0
C      1  0.4252050000000  0.4844990000000  0.4810930000000 1.0
C      1  0.4650830000000  0.5761900000000  0.4587520000000 1.0
C      1  0.4890510000000  0.5116500000000  0.5723630000000 1.0
C      1  0.6023180000000  0.5400920000000  0.5429130000000 1.0
C      1  0.4488350000000  0.5656240000000  0.5158090000000 1.0
C      1  0.4992770000000  0.5477470000000  0.4360460000000 1.0
C      1  0.6185230000000  0.4498530000000  0.5658570000000 1.0
C      1  0.4283390000000  0.5222360000000  0.5148400000000 1.0
C      1  0.4761680000000  0.4499410000000  0.5954680000000 1.0
C      1  0.4131220000000  0.5009300000000  0.4112870000000 1.0
C      1  0.4662880000000  0.4877910000000  0.5406760000000 1.0
C      1  0.5724320000000  0.4895870000000  0.5465730000000 1.0
C      1  0.4757170000000  0.6262720000000  0.5751810000000 1.0
C      1  0.5103920000000  0.5718850000000  0.4838440000000 1.0
C      1  0.5522810000000  0.5935090000000  0.4643530000000 1.0
C      1  0.5231710000000  0.5315580000000  0.3906240000000 1.0
C      1  0.4906930000000  0.3878440000000  0.5097580000000 1.0
C      1  0.4506600000000  0.6093690000000  0.5370020000000 1.0
C      1  0.4922000000000  0.3778370000000  0.4833290000000 1.0
C      1  0.4152660000000  0.5821680000000  0.4716130000000 1.0
C      1  0.4000040000000  0.5877090000000  0.5433170000000 1.0
C      1  0.3972420000000  0.5153680000000  0.5465160000000 1.0
C      1  0.3830840000000  0.5169620000000  0.5928540000000 1.0
C      1  0.4519180000000  0.5841950000000  0.5793730000000 1.0
C      1  0.4073720000000  0.5619570000000  0.5529120000000 1.0
C      1  0.5686730000000  0.5607890000000  0.4103880000000 1.0
C      1  0.4890150000000  0.4404100000000  0.4732690000000 1.0
C      1  0.4281830000000  0.5730380000000  0.4273760000000 1.0
C      1  0.4888500000000  0.5545570000000  0.5957890000000 1.0
C      1  0.4204430000000  0.4553220000000  0.6002690000000 1.0
C      1  0.4589700000000  0.5552810000000  0.5406190000000 1.0
C      1  0.5063720000000  0.5467020000000  0.5260150000000 1.0
C      1  0.5835010000000  0.5368130000000  0.4176390000000 1.0
C      1  0.5494490000000  0.5485100000000  0.4526360000000 1.0
C      1  0.5125180000000  0.5171720000000  0.6143820000000 1.0
C      1  0.4082980000000  0.5273300000000  0.4249040000000 1.0
C      1  0.4007350000000  0.4286270000000  0.5034500000000 1.0
C      1  0.4482970000000  0.4213770000000  0.4929190000000 1.0
C      1  0.5502250000000  0.4138030000000  0.3911590000000 1.0
C      1  0.4431300000000  0.5146790000000  0.6061960000000 1.0
C      1  0.4011530000000  0.4455390000000  0.5809800000000 1.0
C      1  0.3603910000000  0.4880430000000  0.5624670000000 1.0
C      1  0.5281990000000  0.5520210000000  0.5454050000000 1.0
C      1  0.4470080000000  0.4471450000000  0.5917780000000 1.0
C      1  0.4494010000000  0.5405750000000  0.3987940000000 1.0
C      1  0.5893950000000  0.4727640000000  0.4572010000000 1.0
C      1  0.5640510000000  0.3869680000000  0.5458460000000 1.0
C      1  0.3872290000000  0.4425240000000  0.4804620000000 1.0
C      1  0.5462990000000  0.5834500000000  0.5139520000000 1.0
C      1  0.5844510000000  0.4114690000000  0.4763070000000 1.0
C      1  0.5492200000000  0.5622790000000  0.4295010000000 1.0
C      1  0.4617650000000  0.5274200000000  0.4845910000000 1.0
C      1  0.6190530000000  0.4360300000000  0.4563660000000 1.0
C      1  0.5713890000000  0.4328210000000  0.5793240000000 1.0
C      1  0.5018720000000  0.4369300000000  0.5017310000000 1.0
C      1  0.3903860000000  0.5494770000000  0.5016550000000 1.0
C      1  0.5433200000000  0.4054020000000  0.4539250000000 1.0
C      1  0.5832430000000  0.5628410000000  0.5381140000000 1.0
C      1  0.4963550000000  0.3977530000000  0.4385510000000 1.0
C      1  0.5421620000000  0.6117950000000  0.5558230000000 1.0
C      1  0.5732270000000  0.4168810000000  0.5003170000000 1.0
C      1  0.5350000000000  0.4777600000000  0.3901710000000 1.0
C      1  0.5846660000000  0.4737670000000  0.3865180000000 1.0
C      1  0.5160130000000  0.5129390000000  0.5647730000000 1.0
C      1  0.5055400000000  0.4105120000000  0.5166600000000 1.0
C      1  0.5028950000000  0.6293720000000  0.4984990000000 1.0
C      1  0.5130500000000  0.4730800000000  0.5418130000000 1.0
C      1  0.5614290000000  0.5336390000000  0.4712060000000 1.0
C      1  0.4130890000000  0.4307490000000  0.5589410000000 1.0
C      1  0.4023660000000  0.5249320000000  0.4550880000000 1.0
C      1  0.4211250000000  0.5038790000000  0.5357540000000 1.0
C      1  0.5319480000000  0.4170660000000  0.5584330000000 1.0
C      1  0.4804730000000  0.4482850000000  0.5190150000000 1.0
C      1  0.5542330000000  0.5564790000000  0.5300730000000 1.0
C      1  0.5171400000000  0.5226130000000  0.4778710000000 1.0
C      1  0.5016400000000  0.6293740000000  0.5807750000000 1.0
C      1  0.5295710000000  0.4153410000000  0.5307180000000 1.0
C      1  0.4681580000000  0.4186120000000  0.4727390000000 1.0
C      1  0.5241000000000  0.4159570000000  0.3854170000000 1.0
C      1  0.5694530000000  0.4835490000000  0.5937140000000 1.0
C      1  0.4943720000000  0.4788770000000  0.4459030000000 1.0
C      1  0.4383760000000  0.4812290000000  0.5383670000000 1.0
C      1  0.5583990000000  0.5267250000000  0.5183980000000 1.0
C      1  0.5554020000000  0.4574210000000  0.5889860000000 1.0
C      1  0.6155140000000  0.4622990000000  0.4654150000000 1.0
C      1  0.5198320000000  0.3712970000000  0.4760510000000 1.0
C      1  0.5934080000000  0.4756910000000  0.5339200000000 1.0
C      1  0.5128670000000  0.4399290000000  0.4546250000000 1.0
C      1  0.5059430000000  0.4334290000000  0.3980490000000 1.0
C      1  0.4568790000000  0.6083660000000  0.5644410000000 1.0
C      1  0.3804510000000  0.5060470000000  0.5671970000000 1.0
C      1  0.4789720000000  0.3942190000000  0.4626850000000 1.0
C      1  0.5646990000000  0.4340470000000  0.4044680000000 1.0
C      1  0.3852810000000  0.4794930000000  0.5168290000000 1.0
C      1  0.5601230000000  0.4606620000000  0.3926620000000 1.0
C      1  0.3639730000000  0.4592810000000  0.4808540000000 1.0
C      1  0.5811300000000  0.4262130000000  0.4269430000000 1.0
C      1  0.3943300000000  0.5419000000000  0.5359660000000 1.0
C      1  0.6329810000000  0.4835380000000  0.4722990000000 1.0
C      1  0.6213410000000  0.5070920000000  0.4801140000000 1.0
C      1  0.3629940000000  0.5116080000000  0.4800480000000 1.0
C      1  0.5800190000000  0.5003930000000  0.5722060000000 1.0
C      1  0.4730830000000  0.5517750000000  0.4464290000000 1.0
C      1  0.4882500000000  0.4206980000000  0.4182970000000 1.0
C      1  0.4860720000000  0.4674820000000  0.5381430000000 1.0
C      1  0.4729080000000  0.5774490000000  0.5981270000000 1.0
C      1  0.4876410000000  0.4275240000000  0.5792970000000 1.0
C      1  0.5266470000000  0.6219290000000  0.5751260000000 1.0
C      1  0.4759700000000  0.5083640000000  0.4998160000000 1.0
C      1  0.4808700000000  0.5380240000000  0.5358760000000 1.0
C      1  0.5185380000000  0.4643340000000  0.4421570000000 1.0
C      1  0.5815580000000  0.5898120000000  0.4631110000000 1.0
C      1  0.4764270000000  0.5320560000000  0.3983770000000 1.0
C      1  0.5396650000000  0.3691660000000  0.4986790000000 1.0
C      1  0.5202210000000  0.4944600000000  0.4879050000000 1.0
C      1  0.5728350000000  0.5224460000000  0.4939960000000 1.0
C      1  0.5438330000000  0.4769590000000  0.4435550000000 1.0
C      1  0.6075690000000  0.5618260000000  0.4963650000000 1.0
C      1  0.6176920000000  0.5408650000000  0.5159620000000 1.0
C      1  0.4008270000000  0.5763340000000  0.4952400000000 1.0
C      1  0.4790230000000  0.4693100000000  0.4707860000000 1.0
C      1  0.4028660000000  0.4459710000000  0.4560530000000 1.0
C      1  0.4458130000000  0.5339910000000  0.5847590000000 1.0
C      1  0.4334610000000  0.4551980000000  0.5270270000000 1.0
C      1  0.4495530000000  0.4705300000000  0.4763490000000 1.0
C      1  0.4864380000000  0.5871620000000  0.4753020000000 1.0
C      1  0.4640660000000  0.4374700000000  0.4185860000000 1.0
C      1  0.4540860000000  0.4408890000000  0.5134710000000 1.0
C      1  0.5368300000000  0.6028200000000  0.4414560000000 1.0
C      1  0.3840750000000  0.5311520000000  0.4779490000000 1.0
C      1  0.4357020000000  0.4827970000000  0.4238110000000 1.0
C      1  0.6169870000000  0.4732380000000  0.5504200000000 1.0
C      1  0.5092320000000  0.5244360000000  0.4492960000000 1.0
C      1  0.4219210000000  0.4114250000000  0.4934860000000 1.0
C      1  0.5018820000000  0.5495870000000  0.4051100000000 1.0
C      1  0.4846030000000  0.5053270000000  0.4078470000000 1.0
C      1  0.5534540000000  0.5007040000000  0.4331030000000 1.0
C      1  0.4741780000000  0.5116930000000  0.5277940000000 1.0
C      1  0.5954030000000  0.4207700000000  0.4516390000000 1.0
C      1  0.5959510000000  0.5054690000000  0.4930880000000 1.0
C      1  0.5941850000000  0.4808460000000  0.5069850000000 1.0
C      1  0.5995790000000  0.4352480000000  0.5780570000000 1.0
C      1  0.5369520000000  0.5835920000000  0.4866350000000 1.0
C      1  0.5352380000000  0.4285610000000  0.4671410000000 1.0
C      1  0.5633980000000  0.5150780000000  0.4110890000000 1.0
C      1  0.3564640000000  0.4853260000000  0.4787520000000 1.0
C      1  0.5073370000000  0.4633090000000  0.3930550000000 1.0
C      1  0.4609150000000  0.5278240000000  0.4562540000000 1.0
C      1  0.5498490000000  0.4265730000000  0.5130820000000 1.0
C      1  0.4174870000000  0.4599380000000  0.4380000000000 1.0
END
