TITL C-612605-9286-215 2497.96453976452 125000 -1093.70721394918 0 0 179 (C1) n - 1
REM
REM in /home/nfs/bkarasulu/CARBON/AIRSS/Generating-Clusters/TERSOFF/Only-C1/FIRE-HFTN
REM
REM
REM
REM
REM
REM ./C.cell (11c1c37f851c82e70ff6c80c92926a4b)
REM AIRSS Version 0.9.1 bugfix July 2018 build 013d7b7c2542+ Fri, 06 Jul 2018 19:26:36 +0100
REM compiler GCC version 9.2.1 20190827 (Red Hat 9.2.1-1)
REM options -cpp -mtune=generic -march=x86-64 -g -O0 -fpre-include=/usr/include/finclude/math-vector-fortran.h
REM seed 762222313 -2084865947 1895253253 735144234 -881774002 -1460913479 -369488914 -980661159 -1970393110 -1649681109 -1109126424 -635152248 -2041256958 1799286444 1785291150 1620904123 -1373610489 1911228216 704715585 1209990649 1245079771 -541006667 1139959765 1646478459 403585163 -2044682906 -871665821 145076537 -7656058 -1833267995 -433255130 1606309021 -698411130
REM
CELL 1.54180   50.00000   50.00000   50.00000   90.00000   90.00000   90.00000
LATT -1
SFAC C  
C      1  0.5052610000000  0.4782860000000  0.5472120000000 1.0
C      1  0.4469400000000  0.6102850000000  0.4707550000000 1.0
C      1  0.4538930000000  0.3970310000000  0.5018570000000 1.0
C      1  0.4525930000000  0.5592570000000  0.4968000000000 1.0
C      1  0.4490410000000  0.3993330000000  0.4735920000000 1.0
C      1  0.5872830000000  0.5861240000000  0.5168770000000 1.0
C      1  0.5207690000000  0.5840060000000  0.4374350000000 1.0
C      1  0.4524970000000  0.4750280000000  0.4608930000000 1.0
C      1  0.4980340000000  0.5721300000000  0.3977020000000 1.0
C      1  0.5143220000000  0.5516820000000  0.5494940000000 1.0
C      1  0.5662150000000  0.5530250000000  0.4272860000000 1.0
C      1  0.4186030000000  0.5599290000000  0.5312320000000 1.0
C      1  0.6164820000000  0.4487030000000  0.5252610000000 1.0
C      1  0.4050230000000  0.5423310000000  0.5483020000000 1.0
C      1  0.4270490000000  0.5028960000000  0.5020130000000 1.0
C      1  0.5940820000000  0.5572210000000  0.5821950000000 1.0
C      1  0.5193420000000  0.6053240000000  0.5565110000000 1.0
C      1  0.4829770000000  0.4602450000000  0.6072940000000 1.0
C      1  0.3998960000000  0.4948290000000  0.5575800000000 1.0
C      1  0.5673600000000  0.5244120000000  0.4372950000000 1.0
C      1  0.6118630000000  0.4732960000000  0.4772690000000 1.0
C      1  0.6309600000000  0.4959690000000  0.5191230000000 1.0
C      1  0.5764910000000  0.4963440000000  0.5682490000000 1.0
C      1  0.3986420000000  0.5166380000000  0.4355580000000 1.0
C      1  0.5060610000000  0.4716410000000  0.4375490000000 1.0
C      1  0.5334590000000  0.4223070000000  0.4249370000000 1.0
C      1  0.5472310000000  0.5602190000000  0.4071480000000 1.0
C      1  0.5615220000000  0.4239240000000  0.4314800000000 1.0
C      1  0.4762430000000  0.5711230000000  0.4878110000000 1.0
C      1  0.5227040000000  0.5572700000000  0.5990810000000 1.0
C      1  0.5021600000000  0.5766050000000  0.5982940000000 1.0
C      1  0.4768000000000  0.4375670000000  0.5636030000000 1.0
C      1  0.5735790000000  0.4172860000000  0.4796260000000 1.0
C      1  0.4819740000000  0.4620600000000  0.4188790000000 1.0
C      1  0.4789800000000  0.4028170000000  0.5170310000000 1.0
C      1  0.4883920000000  0.5617270000000  0.4640300000000 1.0
C      1  0.4085210000000  0.5953220000000  0.4951770000000 1.0
C      1  0.4920510000000  0.4700070000000  0.3908470000000 1.0
C      1  0.5208200000000  0.5301440000000  0.5907830000000 1.0
C      1  0.5064920000000  0.4482440000000  0.4578270000000 1.0
C      1  0.5249370000000  0.4497820000000  0.5336870000000 1.0
C      1  0.4455070000000  0.5536000000000  0.5235540000000 1.0
C      1  0.5150570000000  0.5700100000000  0.4607430000000 1.0
C      1  0.4280840000000  0.4298510000000  0.4388680000000 1.0
C      1  0.4800100000000  0.5138230000000  0.4490280000000 1.0
C      1  0.5306610000000  0.6074370000000  0.5290550000000 1.0
C      1  0.4611400000000  0.5502720000000  0.6212820000000 1.0
C      1  0.5485650000000  0.4948000000000  0.6075310000000 1.0
C      1  0.4384690000000  0.5172280000000  0.4803440000000 1.0
C      1  0.4307330000000  0.4235240000000  0.5648300000000 1.0
C      1  0.5594010000000  0.4749350000000  0.4759970000000 1.0
C      1  0.4694180000000  0.6159710000000  0.4852970000000 1.0
C      1  0.6013410000000  0.5010700000000  0.4765390000000 1.0
C      1  0.4830050000000  0.4747070000000  0.5296940000000 1.0
C      1  0.4791710000000  0.4868540000000  0.6175220000000 1.0
C      1  0.4356620000000  0.4528890000000  0.5039890000000 1.0
C      1  0.5390130000000  0.4693990000000  0.3991690000000 1.0
C      1  0.5137260000000  0.5091690000000  0.4939830000000 1.0
C      1  0.4088120000000  0.5217130000000  0.5687950000000 1.0
C      1  0.4505150000000  0.4438580000000  0.5708010000000 1.0
C      1  0.4707740000000  0.3879280000000  0.5575600000000 1.0
C      1  0.5464280000000  0.4579770000000  0.5763210000000 1.0
C      1  0.5991790000000  0.4567440000000  0.4538780000000 1.0
C      1  0.5623120000000  0.6096740000000  0.4825590000000 1.0
C      1  0.3738500000000  0.4896360000000  0.4833610000000 1.0
C      1  0.5222030000000  0.4150480000000  0.5365940000000 1.0
C      1  0.5743270000000  0.5017900000000  0.5198630000000 1.0
C      1  0.4866980000000  0.5967060000000  0.4974840000000 1.0
C      1  0.5493760000000  0.4920300000000  0.5242870000000 1.0
C      1  0.4481670000000  0.5695780000000  0.4145420000000 1.0
C      1  0.5524590000000  0.4709500000000  0.4491180000000 1.0
C      1  0.3823650000000  0.4764090000000  0.4597410000000 1.0
C      1  0.4109970000000  0.4402560000000  0.5479320000000 1.0
C      1  0.4560970000000  0.4673990000000  0.4327950000000 1.0
C      1  0.5049290000000  0.5000790000000  0.4480280000000 1.0
C      1  0.4278380000000  0.5568140000000  0.4294630000000 1.0
C      1  0.4116650000000  0.4744100000000  0.4166090000000 1.0
C      1  0.5253660000000  0.5693330000000  0.5071670000000 1.0
C      1  0.5599180000000  0.4816810000000  0.5854390000000 1.0
C      1  0.4489630000000  0.4109460000000  0.4465660000000 1.0
C      1  0.3651130000000  0.5583740000000  0.4657480000000 1.0
C      1  0.4591730000000  0.5256500000000  0.5619830000000 1.0
C      1  0.5947260000000  0.4774330000000  0.4324370000000 1.0
C      1  0.5782070000000  0.5558550000000  0.5610150000000 1.0
C      1  0.3878690000000  0.4487070000000  0.4623070000000 1.0
C      1  0.4366140000000  0.4805330000000  0.5161590000000 1.0
C      1  0.5133550000000  0.5272380000000  0.5635010000000 1.0
C      1  0.4983970000000  0.5941440000000  0.5748820000000 1.0
C      1  0.5248220000000  0.5095300000000  0.6097380000000 1.0
C      1  0.5158150000000  0.4220760000000  0.4481130000000 1.0
C      1  0.4966490000000  0.4008750000000  0.4486680000000 1.0
C      1  0.4425360000000  0.4701300000000  0.5617460000000 1.0
C      1  0.5138410000000  0.4290200000000  0.4031770000000 1.0
C      1  0.4320840000000  0.4546340000000  0.4228850000000 1.0
C      1  0.5092660000000  0.5070440000000  0.5429890000000 1.0
C      1  0.5045830000000  0.3526080000000  0.4706290000000 1.0
C      1  0.5479100000000  0.4094050000000  0.4940200000000 1.0
C      1  0.4868550000000  0.4607720000000  0.5035620000000 1.0
C      1  0.4244480000000  0.5366410000000  0.5910520000000 1.0
C      1  0.4464300000000  0.5840640000000  0.5746920000000 1.0
C      1  0.4797250000000  0.5196100000000  0.5222290000000 1.0
C      1  0.5922460000000  0.4337660000000  0.5230080000000 1.0
C      1  0.6245480000000  0.4695040000000  0.5036740000000 1.0
C      1  0.4296020000000  0.5649050000000  0.5839690000000 1.0
C      1  0.5631140000000  0.6029370000000  0.5109430000000 1.0
C      1  0.4446450000000  0.5284850000000  0.6118880000000 1.0
C      1  0.4213770000000  0.5199940000000  0.3940580000000 1.0
C      1  0.5247730000000  0.5092040000000  0.4674100000000 1.0
C      1  0.6067700000000  0.5647390000000  0.5091410000000 1.0
C      1  0.4796790000000  0.5689880000000  0.6147220000000 1.0
C      1  0.4722250000000  0.4289220000000  0.5291730000000 1.0
C      1  0.5724190000000  0.5009870000000  0.4828350000000 1.0
C      1  0.4628530000000  0.5026760000000  0.4704120000000 1.0
C      1  0.4065130000000  0.5818530000000  0.5183670000000 1.0
C      1  0.5901770000000  0.5003650000000  0.5438390000000 1.0
C      1  0.6372770000000  0.5237350000000  0.5176630000000 1.0
C      1  0.4714100000000  0.5723560000000  0.4014450000000 1.0
C      1  0.5840170000000  0.5024450000000  0.4280320000000 1.0
C      1  0.4642850000000  0.4434790000000  0.5061580000000 1.0
C      1  0.5171430000000  0.4545670000000  0.3884410000000 1.0
C      1  0.4553750000000  0.4794660000000  0.5378610000000 1.0
C      1  0.5076110000000  0.4497740000000  0.4861340000000 1.0
C      1  0.5321300000000  0.5616670000000  0.4814830000000 1.0
C      1  0.3735770000000  0.4945540000000  0.5098450000000 1.0
C      1  0.6269140000000  0.5487860000000  0.5221120000000 1.0
C      1  0.5226910000000  0.5737260000000  0.4111860000000 1.0
C      1  0.5179530000000  0.4607120000000  0.5750520000000 1.0
C      1  0.3810610000000  0.4965200000000  0.5356580000000 1.0
C      1  0.4133210000000  0.4690610000000  0.5583710000000 1.0
C      1  0.5620560000000  0.4368370000000  0.5639340000000 1.0
C      1  0.4197070000000  0.4318110000000  0.5204770000000 1.0
C      1  0.5271490000000  0.5074300000000  0.5194420000000 1.0
C      1  0.4422120000000  0.3994980000000  0.5511990000000 1.0
C      1  0.5555580000000  0.4549730000000  0.4967860000000 1.0
C      1  0.3908230000000  0.5596740000000  0.4617300000000 1.0
C      1  0.6166900000000  0.4905970000000  0.5441360000000 1.0
C      1  0.4618650000000  0.5345400000000  0.5362460000000 1.0
C      1  0.5551370000000  0.5467870000000  0.4776100000000 1.0
C      1  0.5457900000000  0.4644630000000  0.5225290000000 1.0
C      1  0.5539520000000  0.5196060000000  0.4659620000000 1.0
C      1  0.5711280000000  0.4222820000000  0.5402070000000 1.0
C      1  0.5124290000000  0.5950780000000  0.5100420000000 1.0
C      1  0.4855460000000  0.5106460000000  0.4972180000000 1.0
C      1  0.6127900000000  0.5269480000000  0.4757810000000 1.0
C      1  0.4948220000000  0.4481920000000  0.5839070000000 1.0
C      1  0.5760410000000  0.4887830000000  0.3656410000000 1.0
C      1  0.4245780000000  0.5926500000000  0.4715240000000 1.0
C      1  0.6024490000000  0.5524950000000  0.4832950000000 1.0
C      1  0.4330470000000  0.4578540000000  0.4752580000000 1.0
C      1  0.4145990000000  0.4406380000000  0.4617640000000 1.0
C      1  0.5343440000000  0.5582880000000  0.5313350000000 1.0
C      1  0.4793590000000  0.5415910000000  0.4470020000000 1.0
C      1  0.6097370000000  0.5568780000000  0.6030340000000 1.0
C      1  0.5031170000000  0.5000300000000  0.6248910000000 1.0
C      1  0.5748910000000  0.5744510000000  0.4465390000000 1.0
C      1  0.5807810000000  0.4384770000000  0.4979450000000 1.0
C      1  0.4589880000000  0.5037130000000  0.6062430000000 1.0
C      1  0.5002540000000  0.3756190000000  0.4591900000000 1.0
C      1  0.4703190000000  0.5953300000000  0.5684400000000 1.0
C      1  0.5602030000000  0.5556610000000  0.5414770000000 1.0
C      1  0.5806550000000  0.4299320000000  0.4529590000000 1.0
C      1  0.6203850000000  0.4629290000000  0.5502380000000 1.0
C      1  0.5680720000000  0.6008880000000  0.4569060000000 1.0
C      1  0.3956100000000  0.4884290000000  0.4372380000000 1.0
C      1  0.5486850000000  0.4075090000000  0.5250590000000 1.0
C      1  0.4152930000000  0.5328650000000  0.4190830000000 1.0
C      1  0.5790060000000  0.5596680000000  0.4707310000000 1.0
C      1  0.5591870000000  0.4798370000000  0.3833990000000 1.0
C      1  0.5350620000000  0.4718840000000  0.4272990000000 1.0
C      1  0.4364670000000  0.5454700000000  0.4774510000000 1.0
C      1  0.4207930000000  0.5638040000000  0.4583770000000 1.0
C      1  0.4606780000000  0.5045950000000  0.5781790000000 1.0
C      1  0.4290290000000  0.5332500000000  0.3715130000000 1.0
C      1  0.4743430000000  0.4111050000000  0.4333680000000 1.0
C      1  0.4942480000000  0.3928410000000  0.5390350000000 1.0
C      1  0.5325740000000  0.4353180000000  0.4909710000000 1.0
C      1  0.4331990000000  0.4043600000000  0.5219440000000 1.0
C      1  0.4173640000000  0.4917270000000  0.3944640000000 1.0
C      1  0.4851250000000  0.4303810000000  0.4146870000000 1.0
END
