TITL C-612603-7354-380 0.200058186709404 125000 -1130.13529962619 0 0 184 (C1) n - 1
REM
REM in /home/nfs/bkarasulu/CARBON/AIRSS/Generating-Clusters/TERSOFF/Only-C1/FIRE-HFTN
REM
REM
REM
REM
REM
REM ./C.cell (11c1c37f851c82e70ff6c80c92926a4b)
REM AIRSS Version 0.9.1 bugfix July 2018 build 013d7b7c2542+ Fri, 06 Jul 2018 19:26:36 +0100
REM compiler GCC version 9.2.1 20190827 (Red Hat 9.2.1-1)
REM options -cpp -mtune=generic -march=x86-64 -g -O0 -fpre-include=/usr/include/finclude/math-vector-fortran.h
REM seed -2140287339 1672279802 984402110 2107511521 -708936728 975328560 -1901416938 239006463 1300593314 1034187753 1809122379 875989368 -919370866 1420450822 1279845423 -300315176 -541660252 2097463696 37258863 -297284134 559273388 -2061682865 1781228246 -1674129188 1359491246 -1721482830 90436021 1301273050 1900039183 998813094 945895953 359971526 -1481700591
REM
CELL 1.54180   50.00000   50.00000   50.00000   90.00000   90.00000   90.00000
LATT -1
SFAC C  
C      1  0.6119630000000  0.5018340000000  0.5636710000000 1.0
C      1  0.5132260000000  0.5262480000000  0.6234610000000 1.0
C      1  0.5254820000000  0.4901990000000  0.5849820000000 1.0
C      1  0.5750250000000  0.4210470000000  0.4739540000000 1.0
C      1  0.5418790000000  0.5232760000000  0.4157770000000 1.0
C      1  0.5902390000000  0.5477880000000  0.5050530000000 1.0
C      1  0.5752920000000  0.4425570000000  0.4538460000000 1.0
C      1  0.5620230000000  0.3855570000000  0.5627230000000 1.0
C      1  0.5290560000000  0.4526740000000  0.4903890000000 1.0
C      1  0.4962560000000  0.4934980000000  0.4279440000000 1.0
C      1  0.5571560000000  0.5049510000000  0.5501610000000 1.0
C      1  0.4945190000000  0.5151900000000  0.3634370000000 1.0
C      1  0.4004690000000  0.5170170000000  0.5531640000000 1.0
C      1  0.4321410000000  0.4678020000000  0.4379770000000 1.0
C      1  0.4981620000000  0.4059100000000  0.5182850000000 1.0
C      1  0.4841140000000  0.5760230000000  0.5857780000000 1.0
C      1  0.4698670000000  0.5089540000000  0.3769330000000 1.0
C      1  0.5664940000000  0.3603120000000  0.5549290000000 1.0
C      1  0.5447940000000  0.5708810000000  0.4339380000000 1.0
C      1  0.5367770000000  0.4660390000000  0.5340790000000 1.0
C      1  0.6732720000000  0.4963140000000  0.4937610000000 1.0
C      1  0.5984910000000  0.5052690000000  0.4857760000000 1.0
C      1  0.4305260000000  0.5161850000000  0.5063880000000 1.0
C      1  0.5425840000000  0.6016620000000  0.4751970000000 1.0
C      1  0.6136780000000  0.4540870000000  0.5663450000000 1.0
C      1  0.4569160000000  0.4233840000000  0.4485390000000 1.0
C      1  0.4878860000000  0.4149020000000  0.4015510000000 1.0
C      1  0.4605820000000  0.4408000000000  0.5816130000000 1.0
C      1  0.5736280000000  0.5650630000000  0.4399560000000 1.0
C      1  0.5322780000000  0.5123950000000  0.5148790000000 1.0
C      1  0.4840320000000  0.4038720000000  0.4937610000000 1.0
C      1  0.4040220000000  0.5482700000000  0.4264890000000 1.0
C      1  0.5371660000000  0.5144730000000  0.3890350000000 1.0
C      1  0.4833940000000  0.4401930000000  0.5616180000000 1.0
C      1  0.4469480000000  0.5703770000000  0.5369880000000 1.0
C      1  0.5297620000000  0.6174050000000  0.4959370000000 1.0
C      1  0.6030580000000  0.5253640000000  0.5465730000000 1.0
C      1  0.5086980000000  0.5638240000000  0.5947920000000 1.0
C      1  0.4071120000000  0.4528390000000  0.5781880000000 1.0
C      1  0.3873850000000  0.4848640000000  0.4977040000000 1.0
C      1  0.5429480000000  0.4307790000000  0.5667960000000 1.0
C      1  0.4377610000000  0.5008910000000  0.5792640000000 1.0
C      1  0.4309440000000  0.4165000000000  0.4555860000000 1.0
C      1  0.5660740000000  0.4063880000000  0.4975990000000 1.0
C      1  0.4451370000000  0.5339280000000  0.4129360000000 1.0
C      1  0.4609070000000  0.4581790000000  0.3960250000000 1.0
C      1  0.5291810000000  0.4402910000000  0.4625000000000 1.0
C      1  0.5858460000000  0.4764490000000  0.4837640000000 1.0
C      1  0.5009430000000  0.4782290000000  0.6258020000000 1.0
C      1  0.4448450000000  0.4648390000000  0.4636170000000 1.0
C      1  0.4825850000000  0.5036970000000  0.5932200000000 1.0
C      1  0.4735260000000  0.4426660000000  0.6458230000000 1.0
C      1  0.4943250000000  0.3954100000000  0.4196440000000 1.0
C      1  0.5537320000000  0.5012800000000  0.5795780000000 1.0
C      1  0.4641120000000  0.4612860000000  0.6012710000000 1.0
C      1  0.4737450000000  0.4547070000000  0.5375700000000 1.0
C      1  0.4924190000000  0.6004560000000  0.4506900000000 1.0
C      1  0.6150480000000  0.4361670000000  0.5466910000000 1.0
C      1  0.4311470000000  0.4389950000000  0.5777970000000 1.0
C      1  0.5126470000000  0.4303610000000  0.5591290000000 1.0
C      1  0.5452950000000  0.5038240000000  0.4382190000000 1.0
C      1  0.4081370000000  0.5494300000000  0.4786800000000 1.0
C      1  0.5732680000000  0.4145920000000  0.5251910000000 1.0
C      1  0.5217490000000  0.5624900000000  0.5295930000000 1.0
C      1  0.5339870000000  0.5427620000000  0.4713280000000 1.0
C      1  0.4505340000000  0.5425400000000  0.6078270000000 1.0
C      1  0.5721230000000  0.4751260000000  0.5821320000000 1.0
C      1  0.3887140000000  0.4733160000000  0.5752220000000 1.0
C      1  0.5675970000000  0.3488560000000  0.5306810000000 1.0
C      1  0.4883510000000  0.5117050000000  0.4909840000000 1.0
C      1  0.4050000000000  0.5463940000000  0.5456070000000 1.0
C      1  0.5362410000000  0.5131330000000  0.4665920000000 1.0
C      1  0.5362530000000  0.4936150000000  0.5354270000000 1.0
C      1  0.5230130000000  0.4728840000000  0.6087630000000 1.0
C      1  0.4675810000000  0.5527470000000  0.4834490000000 1.0
C      1  0.5042570000000  0.5450040000000  0.4362460000000 1.0
C      1  0.4792280000000  0.4597240000000  0.6254090000000 1.0
C      1  0.4240850000000  0.5260410000000  0.4807850000000 1.0
C      1  0.5590400000000  0.4112680000000  0.5510890000000 1.0
C      1  0.5279210000000  0.5917260000000  0.4503880000000 1.0
C      1  0.4617660000000  0.4231130000000  0.4926130000000 1.0
C      1  0.4807430000000  0.6148880000000  0.5127880000000 1.0
C      1  0.5083180000000  0.5536050000000  0.4647880000000 1.0
C      1  0.4446930000000  0.5189040000000  0.4618520000000 1.0
C      1  0.5004890000000  0.3888290000000  0.4737320000000 1.0
C      1  0.5507210000000  0.5316920000000  0.5902900000000 1.0
C      1  0.5974660000000  0.5140550000000  0.4550590000000 1.0
C      1  0.4758950000000  0.5650350000000  0.5389820000000 1.0
C      1  0.5562540000000  0.4495180000000  0.5853270000000 1.0
C      1  0.4814070000000  0.4389870000000  0.4528440000000 1.0
C      1  0.5406520000000  0.4753290000000  0.4312050000000 1.0
C      1  0.4942760000000  0.5058830000000  0.6197650000000 1.0
C      1  0.5071470000000  0.4264110000000  0.4512100000000 1.0
C      1  0.5707040000000  0.5668200000000  0.4963550000000 1.0
C      1  0.5869040000000  0.5389070000000  0.4439300000000 1.0
C      1  0.5444190000000  0.6289660000000  0.5159590000000 1.0
C      1  0.5546530000000  0.5741130000000  0.5670600000000 1.0
C      1  0.4871940000000  0.4700980000000  0.5174000000000 1.0
C      1  0.4968090000000  0.5679010000000  0.5167090000000 1.0
C      1  0.5016150000000  0.5011040000000  0.5716290000000 1.0
C      1  0.3930340000000  0.4447330000000  0.4453640000000 1.0
C      1  0.4032020000000  0.4719390000000  0.4414990000000 1.0
C      1  0.4520120000000  0.5068640000000  0.5193210000000 1.0
C      1  0.5186030000000  0.5019110000000  0.3713950000000 1.0
C      1  0.5843540000000  0.5863370000000  0.4558290000000 1.0
C      1  0.5343720000000  0.5409050000000  0.5174610000000 1.0
C      1  0.5626310000000  0.3583160000000  0.5061030000000 1.0
C      1  0.4560090000000  0.6034300000000  0.5017610000000 1.0
C      1  0.5088930000000  0.4595440000000  0.3938210000000 1.0
C      1  0.4358780000000  0.5170180000000  0.4349610000000 1.0
C      1  0.6237400000000  0.5158740000000  0.5008580000000 1.0
C      1  0.4457370000000  0.4581350000000  0.5366730000000 1.0
C      1  0.5176400000000  0.4733120000000  0.3706620000000 1.0
C      1  0.4526780000000  0.5298500000000  0.3858960000000 1.0
C      1  0.3945000000000  0.4315290000000  0.4197560000000 1.0
C      1  0.4481620000000  0.5799670000000  0.4285290000000 1.0
C      1  0.4855350000000  0.6110640000000  0.5414740000000 1.0
C      1  0.4382270000000  0.4540380000000  0.4126640000000 1.0
C      1  0.3951800000000  0.5614860000000  0.5218220000000 1.0
C      1  0.5766350000000  0.5187840000000  0.5027030000000 1.0
C      1  0.5503990000000  0.5046490000000  0.4919460000000 1.0
C      1  0.5357220000000  0.5774540000000  0.5484860000000 1.0
C      1  0.4057320000000  0.5198310000000  0.4348250000000 1.0
C      1  0.4950800000000  0.5330070000000  0.3426410000000 1.0
C      1  0.4577660000000  0.5673990000000  0.5957500000000 1.0
C      1  0.5302380000000  0.5487110000000  0.4233910000000 1.0
C      1  0.3860390000000  0.5483780000000  0.4977430000000 1.0
C      1  0.5491350000000  0.4512900000000  0.4452010000000 1.0
C      1  0.4206640000000  0.5764230000000  0.4808330000000 1.0
C      1  0.4993440000000  0.4610210000000  0.4928470000000 1.0
C      1  0.4155540000000  0.4451860000000  0.4923920000000 1.0
C      1  0.4840850000000  0.5874920000000  0.5587710000000 1.0
C      1  0.6150240000000  0.5375390000000  0.5197880000000 1.0
C      1  0.5254420000000  0.3791110000000  0.4837240000000 1.0
C      1  0.5695580000000  0.5902430000000  0.4797840000000 1.0
C      1  0.5926640000000  0.4646160000000  0.4579510000000 1.0
C      1  0.4854890000000  0.4427040000000  0.3956380000000 1.0
C      1  0.4062290000000  0.4672990000000  0.5100370000000 1.0
C      1  0.3928870000000  0.4975470000000  0.4481610000000 1.0
C      1  0.5678850000000  0.5515640000000  0.5776120000000 1.0
C      1  0.4238750000000  0.4987850000000  0.5534030000000 1.0
C      1  0.4309540000000  0.5593140000000  0.4194490000000 1.0
C      1  0.4123160000000  0.5834220000000  0.5095090000000 1.0
C      1  0.4445640000000  0.4465910000000  0.4870520000000 1.0
C      1  0.4337030000000  0.5740300000000  0.5811160000000 1.0
C      1  0.4376200000000  0.5910290000000  0.5206220000000 1.0
C      1  0.4945120000000  0.4858750000000  0.4546640000000 1.0
C      1  0.4169030000000  0.4363820000000  0.4045650000000 1.0
C      1  0.5014990000000  0.6220130000000  0.4938990000000 1.0
C      1  0.5464430000000  0.5522720000000  0.4942930000000 1.0
C      1  0.5153650000000  0.4745590000000  0.4168580000000 1.0
C      1  0.6001880000000  0.4875670000000  0.4417260000000 1.0
C      1  0.4343200000000  0.5234740000000  0.5969540000000 1.0
C      1  0.3816230000000  0.4974830000000  0.4743650000000 1.0
C      1  0.4916890000000  0.5216070000000  0.4255330000000 1.0
C      1  0.4230240000000  0.4751340000000  0.5338240000000 1.0
C      1  0.4635250000000  0.5904690000000  0.4503460000000 1.0
C      1  0.4933840000000  0.6240120000000  0.4668160000000 1.0
C      1  0.4617630000000  0.4824210000000  0.3814370000000 1.0
C      1  0.4417580000000  0.5463420000000  0.3667450000000 1.0
C      1  0.5412810000000  0.4518770000000  0.6095360000000 1.0
C      1  0.4817110000000  0.4998580000000  0.5189480000000 1.0
C      1  0.4870880000000  0.4626240000000  0.4671460000000 1.0
C      1  0.4072240000000  0.4309850000000  0.4669720000000 1.0
C      1  0.4930090000000  0.5633990000000  0.4883240000000 1.0
C      1  0.5932210000000  0.5455680000000  0.5664800000000 1.0
C      1  0.5077960000000  0.5032490000000  0.4725090000000 1.0
C      1  0.5321110000000  0.4432860000000  0.5180330000000 1.0
C      1  0.5997840000000  0.4238190000000  0.5286990000000 1.0
C      1  0.5781710000000  0.5127510000000  0.5337380000000 1.0
C      1  0.5154170000000  0.4238770000000  0.5303960000000 1.0
C      1  0.5576600000000  0.4755040000000  0.4898790000000 1.0
C      1  0.5258180000000  0.5421370000000  0.6034690000000 1.0
C      1  0.4675290000000  0.5257520000000  0.4768050000000 1.0
C      1  0.5515800000000  0.3814120000000  0.4942380000000 1.0
C      1  0.6494710000000  0.5063090000000  0.4973180000000 1.0
C      1  0.4278220000000  0.5615450000000  0.5564320000000 1.0
C      1  0.5026680000000  0.3987530000000  0.4465760000000 1.0
C      1  0.3814080000000  0.4989870000000  0.5664340000000 1.0
C      1  0.4913810000000  0.5118160000000  0.5464570000000 1.0
C      1  0.5999300000000  0.4775590000000  0.5733110000000 1.0
C      1  0.4469460000000  0.5922360000000  0.4751890000000 1.0
C      1  0.4598530000000  0.4872350000000  0.5904110000000 1.0
C      1  0.4814100000000  0.5380470000000  0.5494700000000 1.0
END
