TITL C-612604-1799-859 5410.19956290617 125000 -733.238927121383 0 0 119 (C1) n - 1
REM
REM in /home/nfs/bkarasulu/CARBON/AIRSS/Generating-Clusters/TERSOFF/Only-C1/FIRE-HFTN
REM
REM
REM
REM
REM
REM ./C.cell (11c1c37f851c82e70ff6c80c92926a4b)
REM AIRSS Version 0.9.1 bugfix July 2018 build 013d7b7c2542+ Fri, 06 Jul 2018 19:26:36 +0100
REM compiler GCC version 9.2.1 20190827 (Red Hat 9.2.1-1)
REM options -cpp -mtune=generic -march=x86-64 -g -O0 -fpre-include=/usr/include/finclude/math-vector-fortran.h
REM seed 1442790384 1957105052 1879634165 -901558039 261196354 -1216467621 -1889260729 112525359 1938642806 1331396674 1545334173 1714469500 2012195844 50272809 840532383 -887939613 -1615621735 791324664 1101818214 2105225340 -564342688 1409635934 -1778271992 -682681989 1904122890 -1907070934 -1933225541 -1892207010 -1744889075 -1021836316 -196914809 1488209077 -1126058973
REM
CELL 1.54180   50.00000   50.00000   50.00000   90.00000   90.00000   90.00000
LATT -1
SFAC C  
C      1  0.4388720000000  0.5324510000000  0.6193980000000 1.0
C      1  0.4578850000000  0.5338880000000  0.3992550000000 1.0
C      1  0.5538980000000  0.4284890000000  0.4107610000000 1.0
C      1  0.6090050000000  0.3852630000000  0.4506890000000 1.0
C      1  0.5555480000000  0.5666510000000  0.4402660000000 1.0
C      1  0.4436410000000  0.5619130000000  0.4673010000000 1.0
C      1  0.5106180000000  0.5576590000000  0.4272700000000 1.0
C      1  0.4917010000000  0.4814550000000  0.6028420000000 1.0
C      1  0.4465120000000  0.5089710000000  0.4951860000000 1.0
C      1  0.5483500000000  0.4790600000000  0.4888500000000 1.0
C      1  0.4887050000000  0.5025030000000  0.3746020000000 1.0
C      1  0.4277310000000  0.4657030000000  0.4639220000000 1.0
C      1  0.5432480000000  0.5303010000000  0.4057620000000 1.0
C      1  0.4336350000000  0.5709390000000  0.5164280000000 1.0
C      1  0.5591590000000  0.5799260000000  0.5511740000000 1.0
C      1  0.4256870000000  0.5424630000000  0.6395250000000 1.0
C      1  0.4390500000000  0.4323000000000  0.5552650000000 1.0
C      1  0.4366580000000  0.4341850000000  0.5025500000000 1.0
C      1  0.4761880000000  0.5863690000000  0.4960810000000 1.0
C      1  0.5737530000000  0.4447720000000  0.5753550000000 1.0
C      1  0.4666490000000  0.4337710000000  0.5615280000000 1.0
C      1  0.4583110000000  0.4908620000000  0.5447710000000 1.0
C      1  0.4286580000000  0.5283770000000  0.4970620000000 1.0
C      1  0.5154670000000  0.5307130000000  0.5063420000000 1.0
C      1  0.5267120000000  0.5158860000000  0.5491200000000 1.0
C      1  0.5334960000000  0.4522540000000  0.4506930000000 1.0
C      1  0.5763450000000  0.5203670000000  0.5911980000000 1.0
C      1  0.5324450000000  0.5823220000000  0.5403690000000 1.0
C      1  0.4799170000000  0.4757230000000  0.5008050000000 1.0
C      1  0.4774530000000  0.4188160000000  0.4383190000000 1.0
C      1  0.4806440000000  0.5900780000000  0.4484070000000 1.0
C      1  0.3954030000000  0.4933860000000  0.4794140000000 1.0
C      1  0.5359190000000  0.4500780000000  0.3706760000000 1.0
C      1  0.4002650000000  0.4924940000000  0.5277810000000 1.0
C      1  0.4834630000000  0.4415580000000  0.4206410000000 1.0
C      1  0.4628020000000  0.5183920000000  0.5514010000000 1.0
C      1  0.5382120000000  0.5525290000000  0.4223230000000 1.0
C      1  0.4154670000000  0.4923070000000  0.4583410000000 1.0
C      1  0.5174370000000  0.4715080000000  0.5902230000000 1.0
C      1  0.4592850000000  0.4226460000000  0.4875670000000 1.0
C      1  0.4038120000000  0.5138120000000  0.5442840000000 1.0
C      1  0.5569980000000  0.5786800000000  0.4647110000000 1.0
C      1  0.4634240000000  0.5828840000000  0.4697040000000 1.0
C      1  0.4639160000000  0.5393630000000  0.4261550000000 1.0
C      1  0.5321420000000  0.5264380000000  0.5747730000000 1.0
C      1  0.4985360000000  0.5209220000000  0.4562720000000 1.0
C      1  0.4684790000000  0.4956970000000  0.4851690000000 1.0
C      1  0.5105060000000  0.4463330000000  0.5761530000000 1.0
C      1  0.5103050000000  0.4945960000000  0.5466510000000 1.0
C      1  0.5632160000000  0.4731410000000  0.5375590000000 1.0
C      1  0.5328870000000  0.5088190000000  0.3933970000000 1.0
C      1  0.5825100000000  0.5401040000000  0.5717310000000 1.0
C      1  0.4260860000000  0.5169360000000  0.4480160000000 1.0
C      1  0.4721750000000  0.4869760000000  0.4365230000000 1.0
C      1  0.5053270000000  0.4356030000000  0.5019970000000 1.0
C      1  0.5305070000000  0.5833470000000  0.5108720000000 1.0
C      1  0.5437440000000  0.4817210000000  0.5845000000000 1.0
C      1  0.4321730000000  0.4245890000000  0.5288610000000 1.0
C      1  0.4367800000000  0.4791520000000  0.5595700000000 1.0
C      1  0.5543080000000  0.5753170000000  0.4932760000000 1.0
C      1  0.5106220000000  0.4457100000000  0.5471340000000 1.0
C      1  0.5450240000000  0.4658140000000  0.5159740000000 1.0
C      1  0.4307300000000  0.5557220000000  0.4923340000000 1.0
C      1  0.4729530000000  0.4723720000000  0.5283320000000 1.0
C      1  0.4891490000000  0.3895790000000  0.5092920000000 1.0
C      1  0.4760220000000  0.5053070000000  0.6017760000000 1.0
C      1  0.4972180000000  0.4581880000000  0.4869670000000 1.0
C      1  0.4818640000000  0.4487490000000  0.5417280000000 1.0
C      1  0.4581020000000  0.5860560000000  0.5184540000000 1.0
C      1  0.5233900000000  0.5528030000000  0.5787980000000 1.0
C      1  0.5085720000000  0.4592990000000  0.4617920000000 1.0
C      1  0.5129940000000  0.5699420000000  0.5584170000000 1.0
C      1  0.6271130000000  0.3727330000000  0.4646440000000 1.0
C      1  0.5938520000000  0.5126800000000  0.6105910000000 1.0
C      1  0.5726320000000  0.4120980000000  0.4230480000000 1.0
C      1  0.5866700000000  0.4858830000000  0.5305180000000 1.0
C      1  0.5541570000000  0.4340530000000  0.3828910000000 1.0
C      1  0.6159190000000  0.5369700000000  0.4774660000000 1.0
C      1  0.5599600000000  0.4665660000000  0.5656350000000 1.0
C      1  0.4638660000000  0.4614590000000  0.4294810000000 1.0
C      1  0.5087500000000  0.4482040000000  0.4095730000000 1.0
C      1  0.4580450000000  0.4253910000000  0.4590940000000 1.0
C      1  0.4435120000000  0.5274320000000  0.5706870000000 1.0
C      1  0.5053810000000  0.5764090000000  0.4477730000000 1.0
C      1  0.4220280000000  0.4572780000000  0.4922080000000 1.0
C      1  0.4525570000000  0.5219070000000  0.5974980000000 1.0
C      1  0.4798740000000  0.5004530000000  0.4599270000000 1.0
C      1  0.5619930000000  0.5408300000000  0.5261510000000 1.0
C      1  0.5053160000000  0.5804060000000  0.4960490000000 1.0
C      1  0.4255650000000  0.4552300000000  0.5648360000000 1.0
C      1  0.4682110000000  0.5187730000000  0.3797600000000 1.0
C      1  0.5126790000000  0.4913080000000  0.3839010000000 1.0
C      1  0.4789330000000  0.5388870000000  0.5408590000000 1.0
C      1  0.4697790000000  0.5863100000000  0.5439820000000 1.0
C      1  0.4454970000000  0.4500090000000  0.4487450000000 1.0
C      1  0.4860270000000  0.5647720000000  0.5516680000000 1.0
C      1  0.5363330000000  0.5281150000000  0.5257010000000 1.0
C      1  0.5710470000000  0.5538480000000  0.5028300000000 1.0
C      1  0.4196920000000  0.5352250000000  0.5553620000000 1.0
C      1  0.5906940000000  0.3982580000000  0.4366050000000 1.0
C      1  0.4214840000000  0.5595300000000  0.5399640000000 1.0
C      1  0.6363910000000  0.5271890000000  0.4646290000000 1.0
C      1  0.5947330000000  0.5464420000000  0.4902410000000 1.0
C      1  0.5126780000000  0.5652940000000  0.4727090000000 1.0
C      1  0.5545110000000  0.4606150000000  0.4674850000000 1.0
C      1  0.5155800000000  0.4630890000000  0.3857860000000 1.0
C      1  0.4032110000000  0.4782300000000  0.5033690000000 1.0
C      1  0.4896900000000  0.5339460000000  0.5157710000000 1.0
C      1  0.5401400000000  0.5054720000000  0.4778360000000 1.0
C      1  0.4918150000000  0.5370480000000  0.4333090000000 1.0
C      1  0.4763660000000  0.4565350000000  0.6056430000000 1.0
C      1  0.5711480000000  0.5539890000000  0.5501850000000 1.0
C      1  0.4830020000000  0.4371110000000  0.5853960000000 1.0
C      1  0.4848770000000  0.4150400000000  0.5001890000000 1.0
C      1  0.5501100000000  0.5094500000000  0.5886520000000 1.0
C      1  0.4432110000000  0.5406720000000  0.4464190000000 1.0
C      1  0.5191690000000  0.5293230000000  0.4770980000000 1.0
C      1  0.5245610000000  0.4450380000000  0.5222490000000 1.0
C      1  0.5325740000000  0.4411990000000  0.4249490000000 1.0
END
