TITL C-612607-4507-1448 0.00301196206170598 125000 -1131.25279487489 0 0 188 (C1) n - 1
REM
REM in /home/nfs/bkarasulu/CARBON/AIRSS/Generating-Clusters/TERSOFF/Only-C1/FIRE-HFTN
REM
REM
REM
REM
REM
REM ./C.cell (11c1c37f851c82e70ff6c80c92926a4b)
REM AIRSS Version 0.9.1 bugfix July 2018 build 013d7b7c2542+ Fri, 06 Jul 2018 19:26:36 +0100
REM compiler GCC version 9.2.1 20190827 (Red Hat 9.2.1-1)
REM options -cpp -mtune=generic -march=x86-64 -g -O0 -fpre-include=/usr/include/finclude/math-vector-fortran.h
REM seed -1701171603 -1380369113 -929650765 1093165713 -1429387169 325727314 -1309029774 869911442 480377359 -1085173159 254963612 1890644430 -204556124 -2071748716 -422540183 1106068204 -1562382357 -539675649 -1769197322 -978123016 -1510015421 -1133311250 1940942139 1535791582 1688177599 1498331979 888728465 -1465851184 1682844084 -256880322 -370888970 -656805630 803718003
REM
CELL 1.54180   50.00000   50.00000   50.00000   90.00000   90.00000   90.00000
LATT -1
SFAC C  
C      1  0.3813230000000  0.5366140000000  0.4922560000000 1.0
C      1  0.5069570000000  0.3818810000000  0.4946870000000 1.0
C      1  0.5289980000000  0.5108210000000  0.5626820000000 1.0
C      1  0.5605420000000  0.4728600000000  0.3832740000000 1.0
C      1  0.5352550000000  0.5564260000000  0.5139360000000 1.0
C      1  0.6206220000000  0.4724110000000  0.4888790000000 1.0
C      1  0.6192860000000  0.4995490000000  0.5507410000000 1.0
C      1  0.4691000000000  0.6411160000000  0.4697560000000 1.0
C      1  0.4222980000000  0.5766280000000  0.5769560000000 1.0
C      1  0.5731170000000  0.5297040000000  0.4282940000000 1.0
C      1  0.4593240000000  0.4504580000000  0.4790670000000 1.0
C      1  0.3917910000000  0.4527430000000  0.4489890000000 1.0
C      1  0.5142000000000  0.5771220000000  0.5112020000000 1.0
C      1  0.5061180000000  0.4099840000000  0.4365300000000 1.0
C      1  0.4196150000000  0.4654440000000  0.5036610000000 1.0
C      1  0.5132950000000  0.4863060000000  0.4922180000000 1.0
C      1  0.5585780000000  0.5057370000000  0.4177460000000 1.0
C      1  0.6140420000000  0.5272760000000  0.5379240000000 1.0
C      1  0.4420650000000  0.5410920000000  0.6042770000000 1.0
C      1  0.5667240000000  0.5523790000000  0.4440850000000 1.0
C      1  0.5275690000000  0.6030220000000  0.4751250000000 1.0
C      1  0.4504720000000  0.5152350000000  0.5455510000000 1.0
C      1  0.5102530000000  0.5023380000000  0.4695410000000 1.0
C      1  0.3744650000000  0.5373990000000  0.4427240000000 1.0
C      1  0.4946520000000  0.5353910000000  0.5055190000000 1.0
C      1  0.4557580000000  0.4679610000000  0.5445270000000 1.0
C      1  0.4794710000000  0.4320360000000  0.4711160000000 1.0
C      1  0.5227600000000  0.5371690000000  0.3899380000000 1.0
C      1  0.4345740000000  0.5696810000000  0.6021900000000 1.0
C      1  0.5722920000000  0.4122190000000  0.4228060000000 1.0
C      1  0.5210990000000  0.5059030000000  0.5338450000000 1.0
C      1  0.4479020000000  0.5392030000000  0.4360730000000 1.0
C      1  0.3838330000000  0.5614430000000  0.5068820000000 1.0
C      1  0.5974010000000  0.5815650000000  0.4988270000000 1.0
C      1  0.4488380000000  0.4531780000000  0.4000320000000 1.0
C      1  0.4235780000000  0.5939330000000  0.5035210000000 1.0
C      1  0.5252760000000  0.4288250000000  0.4908140000000 1.0
C      1  0.4448660000000  0.5925680000000  0.4810400000000 1.0
C      1  0.5972810000000  0.4854830000000  0.5684720000000 1.0
C      1  0.5598230000000  0.4098010000000  0.5722820000000 1.0
C      1  0.4218850000000  0.6245090000000  0.5718920000000 1.0
C      1  0.4264180000000  0.5989700000000  0.5313890000000 1.0
C      1  0.5469310000000  0.6164680000000  0.5218100000000 1.0
C      1  0.5091530000000  0.4550890000000  0.6075050000000 1.0
C      1  0.5070150000000  0.4422570000000  0.4734940000000 1.0
C      1  0.5781750000000  0.4956640000000  0.4774490000000 1.0
C      1  0.4803600000000  0.3966820000000  0.5734120000000 1.0
C      1  0.5680520000000  0.4006360000000  0.4676610000000 1.0
C      1  0.4797410000000  0.3807230000000  0.5030670000000 1.0
C      1  0.4005500000000  0.4929750000000  0.4057890000000 1.0
C      1  0.4828770000000  0.4677450000000  0.6022770000000 1.0
C      1  0.4322510000000  0.4881720000000  0.4458850000000 1.0
C      1  0.4217590000000  0.5490150000000  0.5380390000000 1.0
C      1  0.5163950000000  0.5805680000000  0.4647790000000 1.0
C      1  0.4321050000000  0.5797700000000  0.4550720000000 1.0
C      1  0.4575220000000  0.4089090000000  0.5813310000000 1.0
C      1  0.5654620000000  0.5781200000000  0.4320110000000 1.0
C      1  0.5622080000000  0.4541270000000  0.5546330000000 1.0
C      1  0.5311260000000  0.6090300000000  0.5681650000000 1.0
C      1  0.4635560000000  0.5698480000000  0.4893190000000 1.0
C      1  0.5256970000000  0.3926780000000  0.5453620000000 1.0
C      1  0.4533540000000  0.4692070000000  0.6065030000000 1.0
C      1  0.5401890000000  0.5138410000000  0.3933290000000 1.0
C      1  0.4940890000000  0.5920500000000  0.4174170000000 1.0
C      1  0.4678610000000  0.4782350000000  0.4814130000000 1.0
C      1  0.5585720000000  0.5528270000000  0.4959110000000 1.0
C      1  0.5140950000000  0.4564570000000  0.4487620000000 1.0
C      1  0.5879350000000  0.4795840000000  0.5254010000000 1.0
C      1  0.4088280000000  0.4428980000000  0.4302310000000 1.0
C      1  0.5055530000000  0.5534480000000  0.5701450000000 1.0
C      1  0.5032060000000  0.3899240000000  0.5604560000000 1.0
C      1  0.5749370000000  0.5047130000000  0.5236780000000 1.0
C      1  0.4235240000000  0.5277750000000  0.5850840000000 1.0
C      1  0.5193520000000  0.5335240000000  0.5216640000000 1.0
C      1  0.5101230000000  0.4372780000000  0.4271820000000 1.0
C      1  0.3849220000000  0.5055770000000  0.5322530000000 1.0
C      1  0.4474480000000  0.3386180000000  0.4942430000000 1.0
C      1  0.4711320000000  0.4041730000000  0.5162610000000 1.0
C      1  0.5919060000000  0.5407820000000  0.5515370000000 1.0
C      1  0.5509280000000  0.6066310000000  0.5481100000000 1.0
C      1  0.6194410000000  0.5209040000000  0.4871130000000 1.0
C      1  0.4507270000000  0.5677990000000  0.4349310000000 1.0
C      1  0.5807840000000  0.4630700000000  0.4321060000000 1.0
C      1  0.4706290000000  0.5755340000000  0.4138980000000 1.0
C      1  0.4427710000000  0.4912530000000  0.5339750000000 1.0
C      1  0.5349840000000  0.4925810000000  0.5089220000000 1.0
C      1  0.4576320000000  0.6184840000000  0.4756490000000 1.0
C      1  0.4846170000000  0.5477970000000  0.5514600000000 1.0
C      1  0.4235740000000  0.5997610000000  0.5600120000000 1.0
C      1  0.5366960000000  0.4487910000000  0.5976600000000 1.0
C      1  0.3960260000000  0.4996790000000  0.5567140000000 1.0
C      1  0.4865820000000  0.5111580000000  0.4010250000000 1.0
C      1  0.4705290000000  0.5360310000000  0.6077840000000 1.0
C      1  0.6263700000000  0.4594120000000  0.5137820000000 1.0
C      1  0.4874950000000  0.4860700000000  0.3878430000000 1.0
C      1  0.4371890000000  0.5176890000000  0.4925260000000 1.0
C      1  0.4042890000000  0.4553240000000  0.5260520000000 1.0
C      1  0.5567240000000  0.5112740000000  0.5675950000000 1.0
C      1  0.5713670000000  0.3981680000000  0.5185850000000 1.0
C      1  0.5113620000000  0.5406790000000  0.4345340000000 1.0
C      1  0.4930720000000  0.5349210000000  0.3852200000000 1.0
C      1  0.5392970000000  0.6154710000000  0.4960020000000 1.0
C      1  0.5711560000000  0.5220920000000  0.5463010000000 1.0
C      1  0.5131670000000  0.5263760000000  0.5827590000000 1.0
C      1  0.5279330000000  0.5286300000000  0.6084350000000 1.0
C      1  0.4313370000000  0.4923510000000  0.5074990000000 1.0
C      1  0.5975090000000  0.4118340000000  0.5183560000000 1.0
C      1  0.5285630000000  0.3998780000000  0.4930130000000 1.0
C      1  0.3798300000000  0.5103670000000  0.5038810000000 1.0
C      1  0.5110250000000  0.4825020000000  0.3715060000000 1.0
C      1  0.6085510000000  0.5354980000000  0.5091130000000 1.0
C      1  0.4155720000000  0.5001700000000  0.5791450000000 1.0
C      1  0.5212770000000  0.5829850000000  0.4140890000000 1.0
C      1  0.5042250000000  0.5297560000000  0.4782730000000 1.0
C      1  0.5141430000000  0.5976550000000  0.5855940000000 1.0
C      1  0.4755620000000  0.4616990000000  0.3965710000000 1.0
C      1  0.4049540000000  0.4699900000000  0.3923740000000 1.0
C      1  0.5471830000000  0.4218680000000  0.5935680000000 1.0
C      1  0.5482140000000  0.4429590000000  0.5026490000000 1.0
C      1  0.5538590000000  0.4656360000000  0.5810280000000 1.0
C      1  0.5198710000000  0.4850660000000  0.4486580000000 1.0
C      1  0.5287310000000  0.3930590000000  0.4366670000000 1.0
C      1  0.4485090000000  0.4162720000000  0.5279270000000 1.0
C      1  0.4323490000000  0.4458030000000  0.4867380000000 1.0
C      1  0.4211790000000  0.4508850000000  0.4057170000000 1.0
C      1  0.4807690000000  0.4784600000000  0.5540410000000 1.0
C      1  0.4824030000000  0.4095010000000  0.4531590000000 1.0
C      1  0.4007420000000  0.5799840000000  0.4932200000000 1.0
C      1  0.5604250000000  0.5016920000000  0.4997030000000 1.0
C      1  0.4287540000000  0.4740610000000  0.5896330000000 1.0
C      1  0.4058050000000  0.5695440000000  0.4654520000000 1.0
C      1  0.4875630000000  0.4826940000000  0.5039840000000 1.0
C      1  0.5520560000000  0.6211340000000  0.4128890000000 1.0
C      1  0.4855390000000  0.4865520000000  0.5810990000000 1.0
C      1  0.4577670000000  0.4950890000000  0.4582740000000 1.0
C      1  0.5869160000000  0.5675100000000  0.5574110000000 1.0
C      1  0.4160600000000  0.5503570000000  0.5657110000000 1.0
C      1  0.5196830000000  0.5501950000000  0.4619400000000 1.0
C      1  0.4242280000000  0.5293520000000  0.4250290000000 1.0
C      1  0.5567060000000  0.3950290000000  0.4406420000000 1.0
C      1  0.5655750000000  0.4489620000000  0.4795880000000 1.0
C      1  0.5228730000000  0.5546290000000  0.4125430000000 1.0
C      1  0.4672490000000  0.5193220000000  0.4445710000000 1.0
C      1  0.5514030000000  0.4381490000000  0.5329440000000 1.0
C      1  0.3763060000000  0.4885240000000  0.4856590000000 1.0
C      1  0.4751390000000  0.5571220000000  0.3911000000000 1.0
C      1  0.6154310000000  0.4326180000000  0.5175260000000 1.0
C      1  0.5459510000000  0.4921200000000  0.4421370000000 1.0
C      1  0.4046550000000  0.4494590000000  0.5525940000000 1.0
C      1  0.4501330000000  0.5421450000000  0.4863570000000 1.0
C      1  0.4954320000000  0.4436270000000  0.4045770000000 1.0
C      1  0.4886760000000  0.5796580000000  0.5009010000000 1.0
C      1  0.5569160000000  0.3933770000000  0.4930000000000 1.0
C      1  0.5016450000000  0.5731550000000  0.5905950000000 1.0
C      1  0.4634530000000  0.3587160000000  0.4986040000000 1.0
C      1  0.5464620000000  0.5952800000000  0.4194200000000 1.0
C      1  0.3805650000000  0.4698080000000  0.4666790000000 1.0
C      1  0.5377150000000  0.4893870000000  0.3773030000000 1.0
C      1  0.5037330000000  0.4384630000000  0.5375040000000 1.0
C      1  0.4359370000000  0.4252740000000  0.5827990000000 1.0
C      1  0.4201320000000  0.4219330000000  0.4810570000000 1.0
C      1  0.5831980000000  0.4350810000000  0.4366000000000 1.0
C      1  0.4163200000000  0.5027420000000  0.4269060000000 1.0
C      1  0.5705090000000  0.4905290000000  0.5817100000000 1.0
C      1  0.5407110000000  0.5283970000000  0.6311360000000 1.0
C      1  0.4906500000000  0.5202560000000  0.4287140000000 1.0
C      1  0.4494730000000  0.4413360000000  0.5384320000000 1.0
C      1  0.6405390000000  0.5302880000000  0.4725750000000 1.0
C      1  0.5744010000000  0.4795960000000  0.4080660000000 1.0
C      1  0.4202720000000  0.4487770000000  0.5766150000000 1.0
C      1  0.5781280000000  0.4280730000000  0.4650740000000 1.0
C      1  0.3887310000000  0.5453510000000  0.4646380000000 1.0
C      1  0.5505130000000  0.5485680000000  0.4678200000000 1.0
C      1  0.4861640000000  0.5608380000000  0.6115080000000 1.0
C      1  0.4745830000000  0.5460530000000  0.5242500000000 1.0
C      1  0.4463150000000  0.5389130000000  0.5293230000000 1.0
C      1  0.6334490000000  0.4786200000000  0.5348870000000 1.0
C      1  0.4944810000000  0.4897340000000  0.5321320000000 1.0
C      1  0.4839200000000  0.5156980000000  0.5878260000000 1.0
C      1  0.4701400000000  0.5249940000000  0.5631070000000 1.0
C      1  0.5875030000000  0.5557280000000  0.5021400000000 1.0
C      1  0.5674680000000  0.4765240000000  0.4575810000000 1.0
C      1  0.5730960000000  0.5901410000000  0.5540360000000 1.0
C      1  0.5100380000000  0.4442430000000  0.5617820000000 1.0
C      1  0.4919550000000  0.4226040000000  0.5203350000000 1.0
C      1  0.6067730000000  0.4961150000000  0.4812120000000 1.0
C      1  0.5879930000000  0.4648310000000  0.5490740000000 1.0
C      1  0.5524210000000  0.4075120000000  0.5417230000000 1.0
END
