TITL C-612604-1799-962 0.111006883467283 125000 -663.493685999537 0 0 110 (C1) n - 1
REM
REM in /home/nfs/bkarasulu/CARBON/AIRSS/Generating-Clusters/TERSOFF/Only-C1/FIRE-HFTN
REM
REM
REM
REM
REM
REM ./C.cell (11c1c37f851c82e70ff6c80c92926a4b)
REM AIRSS Version 0.9.1 bugfix July 2018 build 013d7b7c2542+ Fri, 06 Jul 2018 19:26:36 +0100
REM compiler GCC version 9.2.1 20190827 (Red Hat 9.2.1-1)
REM options -cpp -mtune=generic -march=x86-64 -g -O0 -fpre-include=/usr/include/finclude/math-vector-fortran.h
REM seed 1198365602 993623852 1210029837 1638826274 309736513 918226696 458061307 -1299871605 1399473013 489485672 -1975877792 -799969158 365234323 1947134929 1902223924 89063382 204059436 855559909 1058687725 -75445790 274918516 197483924 -119171491 -86673890 -716981254 -707659123 833636984 -2074620228 -1549302554 1251339417 1586110467 1461108658 1166822618
REM
CELL 1.54180   50.00000   50.00000   50.00000   90.00000   90.00000   90.00000
LATT -1
SFAC C  
C      1  0.4705350000000  0.4518600000000  0.4060330000000 1.0
C      1  0.4730170000000  0.5843960000000  0.5377680000000 1.0
C      1  0.5337690000000  0.4279450000000  0.4858680000000 1.0
C      1  0.4594400000000  0.5412510000000  0.5466440000000 1.0
C      1  0.4061450000000  0.4726210000000  0.4688370000000 1.0
C      1  0.5354090000000  0.4866940000000  0.4095080000000 1.0
C      1  0.5674430000000  0.5178520000000  0.5506160000000 1.0
C      1  0.4219510000000  0.5154900000000  0.5753880000000 1.0
C      1  0.3973440000000  0.5206830000000  0.4846830000000 1.0
C      1  0.5114590000000  0.3996440000000  0.5520570000000 1.0
C      1  0.4541080000000  0.5996890000000  0.5227720000000 1.0
C      1  0.4779160000000  0.4713740000000  0.4618410000000 1.0
C      1  0.5891570000000  0.5034340000000  0.4570900000000 1.0
C      1  0.4492440000000  0.4474280000000  0.5509530000000 1.0
C      1  0.4666140000000  0.4245250000000  0.4553910000000 1.0
C      1  0.5379120000000  0.5312350000000  0.4305060000000 1.0
C      1  0.4483070000000  0.5052990000000  0.4752990000000 1.0
C      1  0.5247110000000  0.5720490000000  0.4513060000000 1.0
C      1  0.4469890000000  0.4473010000000  0.5221760000000 1.0
C      1  0.5463670000000  0.5313060000000  0.5066600000000 1.0
C      1  0.5771880000000  0.4923610000000  0.5585390000000 1.0
C      1  0.5567900000000  0.5408080000000  0.5655280000000 1.0
C      1  0.4245010000000  0.4041770000000  0.5628770000000 1.0
C      1  0.5374940000000  0.4186730000000  0.5126770000000 1.0
C      1  0.5317860000000  0.4785400000000  0.5224870000000 1.0
C      1  0.4578200000000  0.4788170000000  0.4806120000000 1.0
C      1  0.4937000000000  0.4245890000000  0.4571470000000 1.0
C      1  0.5388690000000  0.5190450000000  0.4577760000000 1.0
C      1  0.5630940000000  0.4204670000000  0.5261550000000 1.0
C      1  0.4682880000000  0.5353010000000  0.4396750000000 1.0
C      1  0.6052900000000  0.5186950000000  0.4401120000000 1.0
C      1  0.4136960000000  0.5682280000000  0.5037660000000 1.0
C      1  0.5186910000000  0.5757920000000  0.5355140000000 1.0
C      1  0.5031070000000  0.5072130000000  0.4888690000000 1.0
C      1  0.4666850000000  0.5119690000000  0.4006980000000 1.0
C      1  0.4815040000000  0.4866510000000  0.5667680000000 1.0
C      1  0.5897750000000  0.5606460000000  0.5116750000000 1.0
C      1  0.5286570000000  0.5426370000000  0.5745060000000 1.0
C      1  0.5427560000000  0.5142720000000  0.4087920000000 1.0
C      1  0.4965240000000  0.4554400000000  0.3990840000000 1.0
C      1  0.4038430000000  0.3883720000000  0.5612740000000 1.0
C      1  0.4412390000000  0.5271750000000  0.5623260000000 1.0
C      1  0.3893520000000  0.4945420000000  0.4762650000000 1.0
C      1  0.5151940000000  0.4047970000000  0.5245820000000 1.0
C      1  0.4469260000000  0.5224880000000  0.4982300000000 1.0
C      1  0.4411710000000  0.4338360000000  0.4571000000000 1.0
C      1  0.4510920000000  0.5125340000000  0.4472670000000 1.0
C      1  0.4652270000000  0.5390150000000  0.4110020000000 1.0
C      1  0.4772740000000  0.5623450000000  0.5578920000000 1.0
C      1  0.5908930000000  0.5073810000000  0.4860220000000 1.0
C      1  0.5460930000000  0.4729960000000  0.4335680000000 1.0
C      1  0.4675050000000  0.4623530000000  0.5691720000000 1.0
C      1  0.5264690000000  0.4502820000000  0.5948700000000 1.0
C      1  0.5796080000000  0.4840710000000  0.4989490000000 1.0
C      1  0.5802180000000  0.4659910000000  0.5528810000000 1.0
C      1  0.4677410000000  0.6195890000000  0.5072690000000 1.0
C      1  0.5098160000000  0.4804740000000  0.3972490000000 1.0
C      1  0.6186810000000  0.5343290000000  0.4241330000000 1.0
C      1  0.5430970000000  0.5860790000000  0.5241110000000 1.0
C      1  0.5696580000000  0.5741770000000  0.5304490000000 1.0
C      1  0.4026510000000  0.5456140000000  0.4937990000000 1.0
C      1  0.5906530000000  0.5312280000000  0.5053350000000 1.0
C      1  0.5154350000000  0.6085810000000  0.4861490000000 1.0
C      1  0.4299140000000  0.5872540000000  0.5141280000000 1.0
C      1  0.5682870000000  0.5230950000000  0.5225310000000 1.0
C      1  0.5248970000000  0.4615720000000  0.4496650000000 1.0
C      1  0.4953690000000  0.5328400000000  0.4467880000000 1.0
C      1  0.5353330000000  0.4593360000000  0.5712810000000 1.0
C      1  0.4939780000000  0.5757270000000  0.5189180000000 1.0
C      1  0.4469950000000  0.4213820000000  0.5105930000000 1.0
C      1  0.5098510000000  0.5186610000000  0.5402290000000 1.0
C      1  0.5013680000000  0.4464530000000  0.6035910000000 1.0
C      1  0.5478630000000  0.5650440000000  0.4678440000000 1.0
C      1  0.5706460000000  0.4837220000000  0.4454630000000 1.0
C      1  0.4597160000000  0.5396300000000  0.5171300000000 1.0
C      1  0.4515810000000  0.4684420000000  0.4160370000000 1.0
C      1  0.5161950000000  0.5504090000000  0.4352350000000 1.0
C      1  0.4466270000000  0.4207770000000  0.5637100000000 1.0
C      1  0.4707970000000  0.4164400000000  0.5790550000000 1.0
C      1  0.5096570000000  0.5082800000000  0.4602680000000 1.0
C      1  0.4518070000000  0.4961760000000  0.4215110000000 1.0
C      1  0.5194880000000  0.4363110000000  0.4627430000000 1.0
C      1  0.5477970000000  0.5378140000000  0.4781560000000 1.0
C      1  0.4662240000000  0.4032100000000  0.5060400000000 1.0
C      1  0.5796660000000  0.3985360000000  0.5239000000000 1.0
C      1  0.5730520000000  0.4424910000000  0.5414120000000 1.0
C      1  0.4205380000000  0.4507850000000  0.4618410000000 1.0
C      1  0.3616570000000  0.4898330000000  0.4751620000000 1.0
C      1  0.5218850000000  0.5319410000000  0.5191360000000 1.0
C      1  0.5092210000000  0.5613000000000  0.5610530000000 1.0
C      1  0.5274000000000  0.4776790000000  0.5514970000000 1.0
C      1  0.4928030000000  0.6217890000000  0.4970150000000 1.0
C      1  0.4830810000000  0.5524360000000  0.5057560000000 1.0
C      1  0.3359810000000  0.4854830000000  0.4741510000000 1.0
C      1  0.5016090000000  0.5331550000000  0.4995110000000 1.0
C      1  0.4912460000000  0.5015490000000  0.3908400000000 1.0
C      1  0.5405210000000  0.6001080000000  0.4991010000000 1.0
C      1  0.4919030000000  0.3999980000000  0.5705230000000 1.0
C      1  0.5085070000000  0.4850690000000  0.5069230000000 1.0
C      1  0.5082050000000  0.4990730000000  0.5622140000000 1.0
C      1  0.5562620000000  0.4756030000000  0.5090600000000 1.0
C      1  0.4924360000000  0.3987380000000  0.5089080000000 1.0
C      1  0.5701520000000  0.5647810000000  0.5576760000000 1.0
C      1  0.5179820000000  0.5173740000000  0.5842550000000 1.0
C      1  0.5031650000000  0.4801150000000  0.4526960000000 1.0
C      1  0.5116170000000  0.5953530000000  0.4606840000000 1.0
C      1  0.4860020000000  0.4715730000000  0.5158770000000 1.0
C      1  0.4782280000000  0.4428900000000  0.5883810000000 1.0
C      1  0.4601350000000  0.4671650000000  0.5066580000000 1.0
C      1  0.5584630000000  0.5879650000000  0.4803030000000 1.0
END
