TITL C-612607-4507-445 62.0656355483963 125000 -1119.42717323861 0 0 183 (C1) n - 1
REM
REM in /home/nfs/bkarasulu/CARBON/AIRSS/Generating-Clusters/TERSOFF/Only-C1/FIRE-HFTN
REM
REM
REM
REM
REM
REM ./C.cell (11c1c37f851c82e70ff6c80c92926a4b)
REM AIRSS Version 0.9.1 bugfix July 2018 build 013d7b7c2542+ Fri, 06 Jul 2018 19:26:36 +0100
REM compiler GCC version 9.2.1 20190827 (Red Hat 9.2.1-1)
REM options -cpp -mtune=generic -march=x86-64 -g -O0 -fpre-include=/usr/include/finclude/math-vector-fortran.h
REM seed 1922292582 1777907854 630160952 1474743764 -1646809357 -710229392 -830599523 -349919772 -2020983566 -151840570 -874230002 -480790686 2012841449 752378761 1435364950 -1869048877 1413044870 -1678714441 985220911 284718561 1728764171 764226919 1310930357 658021165 334091672 1774008798 714580353 -1880554862 -1599094162 271066940 -352928188 -900352502 -28840431
REM
CELL 1.54180   50.00000   50.00000   50.00000   90.00000   90.00000   90.00000
LATT -1
SFAC C  
C      1  0.5785680000000  0.4539870000000  0.3967370000000 1.0
C      1  0.4572410000000  0.4089520000000  0.5749870000000 1.0
C      1  0.4181270000000  0.2993350000000  0.5326630000000 1.0
C      1  0.4749540000000  0.6398450000000  0.4117690000000 1.0
C      1  0.5700380000000  0.4911450000000  0.4284470000000 1.0
C      1  0.4718640000000  0.3648920000000  0.5196050000000 1.0
C      1  0.3939860000000  0.5779140000000  0.5245550000000 1.0
C      1  0.5166210000000  0.4495490000000  0.6298200000000 1.0
C      1  0.5375130000000  0.6160720000000  0.4607060000000 1.0
C      1  0.4860120000000  0.4303270000000  0.3741270000000 1.0
C      1  0.4579570000000  0.5701670000000  0.4893570000000 1.0
C      1  0.5802200000000  0.5442590000000  0.4587600000000 1.0
C      1  0.5914080000000  0.5325430000000  0.4376950000000 1.0
C      1  0.6076810000000  0.4654730000000  0.5161960000000 1.0
C      1  0.4113970000000  0.5197920000000  0.6102350000000 1.0
C      1  0.4677390000000  0.4035420000000  0.4818420000000 1.0
C      1  0.4867280000000  0.4088000000000  0.3261840000000 1.0
C      1  0.4620590000000  0.5174320000000  0.4164860000000 1.0
C      1  0.5264450000000  0.4567130000000  0.6052210000000 1.0
C      1  0.5905110000000  0.4446870000000  0.3755270000000 1.0
C      1  0.5450630000000  0.5651290000000  0.4840100000000 1.0
C      1  0.4888200000000  0.4662730000000  0.4645480000000 1.0
C      1  0.4210840000000  0.5292210000000  0.5503900000000 1.0
C      1  0.4266420000000  0.5147790000000  0.4775870000000 1.0
C      1  0.5021830000000  0.4054900000000  0.4350560000000 1.0
C      1  0.4883910000000  0.5060430000000  0.5616260000000 1.0
C      1  0.4978870000000  0.5968610000000  0.4326060000000 1.0
C      1  0.4340790000000  0.4296570000000  0.4146670000000 1.0
C      1  0.6457270000000  0.5231840000000  0.4746780000000 1.0
C      1  0.5332770000000  0.5079400000000  0.4623800000000 1.0
C      1  0.4572270000000  0.5611360000000  0.4371600000000 1.0
C      1  0.4948140000000  0.6066820000000  0.6314490000000 1.0
C      1  0.5204060000000  0.5713630000000  0.4684360000000 1.0
C      1  0.4633890000000  0.6615450000000  0.4018740000000 1.0
C      1  0.3995270000000  0.4663410000000  0.4323690000000 1.0
C      1  0.4608280000000  0.6256890000000  0.5253990000000 1.0
C      1  0.4391030000000  0.5229770000000  0.6059790000000 1.0
C      1  0.5184180000000  0.4422460000000  0.5819550000000 1.0
C      1  0.6021960000000  0.4905980000000  0.5239820000000 1.0
C      1  0.4520140000000  0.6828890000000  0.3921430000000 1.0
C      1  0.5445900000000  0.4785620000000  0.6034930000000 1.0
C      1  0.4740460000000  0.5428300000000  0.4231740000000 1.0
C      1  0.4504470000000  0.6236550000000  0.5503380000000 1.0
C      1  0.5386630000000  0.3793000000000  0.5298110000000 1.0
C      1  0.4662700000000  0.4648380000000  0.4034670000000 1.0
C      1  0.3476740000000  0.4791890000000  0.4383570000000 1.0
C      1  0.4182180000000  0.5014720000000  0.4060510000000 1.0
C      1  0.5502830000000  0.4770350000000  0.5372200000000 1.0
C      1  0.6267110000000  0.5303580000000  0.5168320000000 1.0
C      1  0.6203580000000  0.4957320000000  0.4380440000000 1.0
C      1  0.5199760000000  0.4492140000000  0.4313330000000 1.0
C      1  0.4160140000000  0.5225490000000  0.5248290000000 1.0
C      1  0.3741010000000  0.5701030000000  0.5408590000000 1.0
C      1  0.4455300000000  0.4831240000000  0.5547450000000 1.0
C      1  0.5034250000000  0.5899320000000  0.4837550000000 1.0
C      1  0.4839870000000  0.4035500000000  0.5826010000000 1.0
C      1  0.5099370000000  0.5110680000000  0.6109930000000 1.0
C      1  0.5973380000000  0.5310400000000  0.3513910000000 1.0
C      1  0.5014300000000  0.5502020000000  0.4246320000000 1.0
C      1  0.4865050000000  0.6182000000000  0.4217710000000 1.0
C      1  0.5800780000000  0.5417160000000  0.3677530000000 1.0
C      1  0.5366740000000  0.5909490000000  0.5242650000000 1.0
C      1  0.4355860000000  0.4725410000000  0.5305830000000 1.0
C      1  0.4591320000000  0.5036460000000  0.6139380000000 1.0
C      1  0.4975730000000  0.5301410000000  0.5677320000000 1.0
C      1  0.4221460000000  0.5747670000000  0.5245070000000 1.0
C      1  0.4343650000000  0.5162080000000  0.4235650000000 1.0
C      1  0.4335480000000  0.5755290000000  0.5510250000000 1.0
C      1  0.4859750000000  0.4589850000000  0.5510500000000 1.0
C      1  0.5024830000000  0.4298920000000  0.4202370000000 1.0
C      1  0.5482610000000  0.6023240000000  0.4394630000000 1.0
C      1  0.4845690000000  0.5226120000000  0.4747100000000 1.0
C      1  0.4380430000000  0.6003770000000  0.5633200000000 1.0
C      1  0.5477090000000  0.4499640000000  0.4353100000000 1.0
C      1  0.6235330000000  0.5557940000000  0.5025800000000 1.0
C      1  0.4735640000000  0.4395690000000  0.5354170000000 1.0
C      1  0.4158120000000  0.4738860000000  0.4097480000000 1.0
C      1  0.4277210000000  0.4452030000000  0.5301420000000 1.0
C      1  0.4847070000000  0.5164080000000  0.5022250000000 1.0
C      1  0.5375360000000  0.3868730000000  0.4648110000000 1.0
C      1  0.6033640000000  0.5186430000000  0.5284300000000 1.0
C      1  0.4385040000000  0.4565060000000  0.4050040000000 1.0
C      1  0.4331580000000  0.5503150000000  0.5648470000000 1.0
C      1  0.4281210000000  0.6082240000000  0.5898840000000 1.0
C      1  0.5254150000000  0.5099390000000  0.4171670000000 1.0
C      1  0.4260010000000  0.5213980000000  0.4501620000000 1.0
C      1  0.5805920000000  0.5357630000000  0.5371060000000 1.0
C      1  0.4992180000000  0.5600980000000  0.5207170000000 1.0
C      1  0.4111710000000  0.3365000000000  0.4961430000000 1.0
C      1  0.5594710000000  0.5421840000000  0.4768920000000 1.0
C      1  0.5198500000000  0.4591720000000  0.5032890000000 1.0
C      1  0.5005760000000  0.6082760000000  0.6060790000000 1.0
C      1  0.5456860000000  0.5187990000000  0.4851650000000 1.0
C      1  0.5143700000000  0.5785610000000  0.5375180000000 1.0
C      1  0.4952660000000  0.4701760000000  0.4928770000000 1.0
C      1  0.4442010000000  0.4287270000000  0.5903390000000 1.0
C      1  0.5053000000000  0.4712920000000  0.4412890000000 1.0
C      1  0.6461270000000  0.5140630000000  0.5025050000000 1.0
C      1  0.5823920000000  0.4093440000000  0.4812720000000 1.0
C      1  0.5455760000000  0.5569250000000  0.4068380000000 1.0
C      1  0.5321420000000  0.5182970000000  0.5113010000000 1.0
C      1  0.5457800000000  0.5035670000000  0.4368350000000 1.0
C      1  0.5194290000000  0.3677850000000  0.5155060000000 1.0
C      1  0.4098100000000  0.3566860000000  0.4790300000000 1.0
C      1  0.3720160000000  0.5414800000000  0.5843150000000 1.0
C      1  0.5237390000000  0.5382660000000  0.4122710000000 1.0
C      1  0.5726200000000  0.4689990000000  0.5525070000000 1.0
C      1  0.5067820000000  0.6127470000000  0.5791970000000 1.0
C      1  0.5061120000000  0.5157230000000  0.4605750000000 1.0
C      1  0.5430210000000  0.4274280000000  0.5332420000000 1.0
C      1  0.5449550000000  0.5048180000000  0.5329760000000 1.0
C      1  0.5073540000000  0.4163930000000  0.5853430000000 1.0
C      1  0.4459460000000  0.5455670000000  0.5898080000000 1.0
C      1  0.3726790000000  0.4725330000000  0.4352780000000 1.0
C      1  0.6633070000000  0.4952100000000  0.5131960000000 1.0
C      1  0.4331980000000  0.4873700000000  0.4838230000000 1.0
C      1  0.5141950000000  0.6378050000000  0.5709940000000 1.0
C      1  0.6071010000000  0.4390520000000  0.5115730000000 1.0
C      1  0.5129340000000  0.4543700000000  0.5565770000000 1.0
C      1  0.4845760000000  0.5750060000000  0.4997160000000 1.0
C      1  0.4253210000000  0.5329780000000  0.4999940000000 1.0
C      1  0.4733780000000  0.4829140000000  0.5589260000000 1.0
C      1  0.6788180000000  0.4768740000000  0.5233110000000 1.0
C      1  0.3670590000000  0.5566640000000  0.5628920000000 1.0
C      1  0.4143360000000  0.3175110000000  0.5143630000000 1.0
C      1  0.5822040000000  0.4008670000000  0.5284350000000 1.0
C      1  0.5944520000000  0.4140910000000  0.5068370000000 1.0
C      1  0.4852770000000  0.5195340000000  0.6511310000000 1.0
C      1  0.5059020000000  0.5916820000000  0.5606790000000 1.0
C      1  0.5775990000000  0.5613680000000  0.5224260000000 1.0
C      1  0.5025380000000  0.4920760000000  0.4209810000000 1.0
C      1  0.5661680000000  0.4645330000000  0.4191910000000 1.0
C      1  0.5491770000000  0.5205700000000  0.5783110000000 1.0
C      1  0.5100530000000  0.3920000000000  0.4592510000000 1.0
C      1  0.5624610000000  0.3900810000000  0.4747090000000 1.0
C      1  0.5545630000000  0.4019020000000  0.5336090000000 1.0
C      1  0.5945580000000  0.5051620000000  0.4317550000000 1.0
C      1  0.4541290000000  0.5720700000000  0.4613790000000 1.0
C      1  0.4907530000000  0.3873400000000  0.4801470000000 1.0
C      1  0.4220050000000  0.4256930000000  0.4402030000000 1.0
C      1  0.4848740000000  0.4415710000000  0.3999010000000 1.0
C      1  0.4451130000000  0.4518320000000  0.6038380000000 1.0
C      1  0.4620160000000  0.4588950000000  0.4597780000000 1.0
C      1  0.5078610000000  0.5718990000000  0.4419050000000 1.0
C      1  0.4355090000000  0.6360010000000  0.5925370000000 1.0
C      1  0.4482590000000  0.6449030000000  0.5697550000000 1.0
C      1  0.4487420000000  0.4239570000000  0.5278290000000 1.0
C      1  0.4701780000000  0.5587820000000  0.5947290000000 1.0
C      1  0.5587450000000  0.5226090000000  0.5511980000000 1.0
C      1  0.5836720000000  0.4673110000000  0.5767840000000 1.0
C      1  0.5056690000000  0.5314470000000  0.5153270000000 1.0
C      1  0.5323320000000  0.6157430000000  0.5105620000000 1.0
C      1  0.5394850000000  0.4527680000000  0.4835220000000 1.0
C      1  0.3874350000000  0.5278140000000  0.6013430000000 1.0
C      1  0.4351390000000  0.4656580000000  0.4654900000000 1.0
C      1  0.5500930000000  0.5813720000000  0.4219290000000 1.0
C      1  0.4770150000000  0.4890200000000  0.5059790000000 1.0
C      1  0.4933310000000  0.5513140000000  0.5834500000000 1.0
C      1  0.6400580000000  0.5058210000000  0.4534530000000 1.0
C      1  0.5560980000000  0.4461190000000  0.4619900000000 1.0
C      1  0.4760840000000  0.4924710000000  0.4102010000000 1.0
C      1  0.4524660000000  0.4762010000000  0.6120070000000 1.0
C      1  0.5208960000000  0.6135560000000  0.4845530000000 1.0
C      1  0.4148750000000  0.4513570000000  0.4513760000000 1.0
C      1  0.4864150000000  0.4194910000000  0.3499580000000 1.0
C      1  0.4551920000000  0.3759430000000  0.5375630000000 1.0
C      1  0.4944080000000  0.3704890000000  0.5032990000000 1.0
C      1  0.4354020000000  0.5600850000000  0.5035310000000 1.0
C      1  0.5348530000000  0.5050570000000  0.5983030000000 1.0
C      1  0.4139320000000  0.5936140000000  0.6077620000000 1.0
C      1  0.5538040000000  0.5730770000000  0.5108520000000 1.0
C      1  0.4513330000000  0.4142640000000  0.5000130000000 1.0
C      1  0.4485170000000  0.4832770000000  0.5075560000000 1.0
C      1  0.4109110000000  0.3782540000000  0.4636750000000 1.0
C      1  0.4493040000000  0.4014970000000  0.5483270000000 1.0
C      1  0.4849050000000  0.5113270000000  0.6248210000000 1.0
C      1  0.6365070000000  0.5508290000000  0.4772170000000 1.0
C      1  0.5718850000000  0.4726810000000  0.6003010000000 1.0
C      1  0.4154260000000  0.4011380000000  0.4511140000000 1.0
C      1  0.6021530000000  0.5712420000000  0.5116320000000 1.0
C      1  0.5628870000000  0.5510500000000  0.3856210000000 1.0
C      1  0.5306020000000  0.4549810000000  0.5318990000000 1.0
C      1  0.5801550000000  0.4325610000000  0.4657100000000 1.0
END
