TITL C-612600-6631-460 -93.5574025216454 125000 -349.780814519349 0 0 58 (C1) n - 1
REM
REM in /home/nfs/bkarasulu/CARBON/AIRSS/Generating-Clusters/TERSOFF/Only-C1/FIRE-HFTN
REM
REM
REM
REM
REM
REM ./C.cell (11c1c37f851c82e70ff6c80c92926a4b)
REM AIRSS Version 0.9.1 bugfix July 2018 build 013d7b7c2542+ Fri, 06 Jul 2018 19:26:36 +0100
REM compiler GCC version 9.2.1 20190827 (Red Hat 9.2.1-1)
REM options -cpp -mtune=generic -march=x86-64 -g -O0 -fpre-include=/usr/include/finclude/math-vector-fortran.h
REM seed 1939059768 -637760412 -56703801 1470608731 -510572537 -1266142203 -475654205 -1243278453 1400599427 1537840114 -2081215455 -2053213322 -1006155846 -417267087 363526676 1156344910 2091076108 -2043291084 1226604048 -1882575955 1890427542 -1030753826 998691431 1114899305 1567846203 1593634348 -81436814 -1970929817 1410185439 1307796134 -335175998 1489403419 -1712311957
REM
CELL 1.54180   50.00000   50.00000   50.00000   90.00000   90.00000   90.00000
LATT -1
SFAC C  
C      1  0.5136130000000  0.4246400000000  0.4527700000000 1.0
C      1  0.5214320000000  0.4574550000000  0.5766860000000 1.0
C      1  0.5539100000000  0.4840890000000  0.4651960000000 1.0
C      1  0.4681750000000  0.4613040000000  0.5339520000000 1.0
C      1  0.4471960000000  0.5612810000000  0.4764560000000 1.0
C      1  0.5510310000000  0.4896860000000  0.5611610000000 1.0
C      1  0.4670570000000  0.6272500000000  0.5545170000000 1.0
C      1  0.4993650000000  0.4212410000000  0.4766800000000 1.0
C      1  0.5803560000000  0.4630890000000  0.5178080000000 1.0
C      1  0.4964990000000  0.6000110000000  0.5280560000000 1.0
C      1  0.5476880000000  0.5091640000000  0.4722500000000 1.0
C      1  0.4799900000000  0.4227290000000  0.3824820000000 1.0
C      1  0.5353570000000  0.5223620000000  0.4937170000000 1.0
C      1  0.5372330000000  0.4396860000000  0.4544870000000 1.0
C      1  0.4671290000000  0.4385850000000  0.3655420000000 1.0
C      1  0.4963280000000  0.4283750000000  0.5034880000000 1.0
C      1  0.4751510000000  0.5085200000000  0.5520520000000 1.0
C      1  0.4412770000000  0.5576320000000  0.4241520000000 1.0
C      1  0.5129150000000  0.5003500000000  0.5280120000000 1.0
C      1  0.5096410000000  0.4201120000000  0.5493620000000 1.0
C      1  0.5585440000000  0.4475780000000  0.4968450000000 1.0
C      1  0.4554520000000  0.4604250000000  0.3560300000000 1.0
C      1  0.4379010000000  0.5312550000000  0.3788400000000 1.0
C      1  0.4784310000000  0.5828270000000  0.5701210000000 1.0
C      1  0.4742010000000  0.4435690000000  0.5126270000000 1.0
C      1  0.5012700000000  0.4411890000000  0.5665350000000 1.0
C      1  0.5594360000000  0.4447810000000  0.5404080000000 1.0
C      1  0.4698830000000  0.5573780000000  0.5621700000000 1.0
C      1  0.6051260000000  0.5047360000000  0.5192610000000 1.0
C      1  0.4926500000000  0.4147880000000  0.4043980000000 1.0
C      1  0.4916450000000  0.5923340000000  0.6215980000000 1.0
C      1  0.5175640000000  0.4239680000000  0.5223040000000 1.0
C      1  0.5233390000000  0.4917130000000  0.5728760000000 1.0
C      1  0.5039710000000  0.4153580000000  0.4283650000000 1.0
C      1  0.5827530000000  0.4899640000000  0.5240110000000 1.0
C      1  0.5513580000000  0.4589530000000  0.5626870000000 1.0
C      1  0.4682510000000  0.5356820000000  0.5447180000000 1.0
C      1  0.4895380000000  0.4993630000000  0.5103640000000 1.0
C      1  0.4806760000000  0.6037810000000  0.5508920000000 1.0
C      1  0.5518060000000  0.4567050000000  0.4713220000000 1.0
C      1  0.5042060000000  0.5028950000000  0.5559330000000 1.0
C      1  0.4447420000000  0.5619120000000  0.4500840000000 1.0
C      1  0.5436880000000  0.4335840000000  0.5185540000000 1.0
C      1  0.4852220000000  0.5876170000000  0.5967850000000 1.0
C      1  0.4403240000000  0.5098730000000  0.3633340000000 1.0
C      1  0.4864900000000  0.5261690000000  0.5003250000000 1.0
C      1  0.5074200000000  0.5880730000000  0.5069650000000 1.0
C      1  0.4470400000000  0.5570850000000  0.5041250000000 1.0
C      1  0.4758040000000  0.4518170000000  0.5597730000000 1.0
C      1  0.5593390000000  0.5010260000000  0.5360010000000 1.0
C      1  0.4273420000000  0.5684390000000  0.5193800000000 1.0
C      1  0.4385370000000  0.5474610000000  0.3998200000000 1.0
C      1  0.4670000000000  0.5408510000000  0.5159300000000 1.0
C      1  0.4462400000000  0.4852930000000  0.3553060000000 1.0
C      1  0.5129000000000  0.5665530000000  0.4922400000000 1.0
C      1  0.4692750000000  0.4893320000000  0.5295210000000 1.0
C      1  0.5379190000000  0.5095250000000  0.5192220000000 1.0
C      1  0.5113750000000  0.5385880000000  0.4915010000000 1.0
END
