TITL C-612605-9286-667 538.549673725915 125000 -560.625534180727 0 0 93 (C1) n - 1
REM
REM in /home/nfs/bkarasulu/CARBON/AIRSS/Generating-Clusters/TERSOFF/Only-C1/FIRE-HFTN
REM
REM
REM
REM
REM
REM ./C.cell (11c1c37f851c82e70ff6c80c92926a4b)
REM AIRSS Version 0.9.1 bugfix July 2018 build 013d7b7c2542+ Fri, 06 Jul 2018 19:26:36 +0100
REM compiler GCC version 9.2.1 20190827 (Red Hat 9.2.1-1)
REM options -cpp -mtune=generic -march=x86-64 -g -O0 -fpre-include=/usr/include/finclude/math-vector-fortran.h
REM seed -208903332 1215911638 -748774851 -1078250848 -1913117995 -420711132 1417674490 2013121585 1471593821 790588350 1365781881 -475122145 881485243 -444796207 -1843478128 -1039325640 1585801013 -1773282827 -2072172422 445150559 1850737617 1153511974 411108164 -370656391 -1235663650 1730598061 682694093 1814121589 921248490 -1011829060 -1980382543 1157555618 -1994504667
REM
CELL 1.54180   50.00000   50.00000   50.00000   90.00000   90.00000   90.00000
LATT -1
SFAC C  
C      1  0.4376900000000  0.4383410000000  0.4618170000000 1.0
C      1  0.4604920000000  0.4978180000000  0.4926260000000 1.0
C      1  0.5219760000000  0.5921210000000  0.5212160000000 1.0
C      1  0.5232790000000  0.5096060000000  0.4630570000000 1.0
C      1  0.4770360000000  0.5717730000000  0.4869570000000 1.0
C      1  0.4742770000000  0.4083030000000  0.5742130000000 1.0
C      1  0.4496070000000  0.5826870000000  0.5290700000000 1.0
C      1  0.4232360000000  0.5905150000000  0.5258470000000 1.0
C      1  0.5253600000000  0.5566360000000  0.4888380000000 1.0
C      1  0.4708890000000  0.4068730000000  0.5253090000000 1.0
C      1  0.4606800000000  0.5674200000000  0.5516580000000 1.0
C      1  0.4608020000000  0.5489740000000  0.4847170000000 1.0
C      1  0.6273580000000  0.4854640000000  0.5059240000000 1.0
C      1  0.4952850000000  0.5878010000000  0.5277230000000 1.0
C      1  0.5464120000000  0.5634920000000  0.4284420000000 1.0
C      1  0.5258770000000  0.5342630000000  0.5783400000000 1.0
C      1  0.5669040000000  0.5468530000000  0.4314230000000 1.0
C      1  0.5364130000000  0.5689800000000  0.5134190000000 1.0
C      1  0.4963870000000  0.4632780000000  0.5254670000000 1.0
C      1  0.5043530000000  0.4899790000000  0.5275760000000 1.0
C      1  0.4886070000000  0.5642060000000  0.5432280000000 1.0
C      1  0.4554220000000  0.4869590000000  0.5688510000000 1.0
C      1  0.5408450000000  0.4186080000000  0.4629090000000 1.0
C      1  0.5652840000000  0.4205340000000  0.4769170000000 1.0
C      1  0.5002900000000  0.5371380000000  0.5903690000000 1.0
C      1  0.4998370000000  0.4848640000000  0.4249050000000 1.0
C      1  0.4954520000000  0.5380960000000  0.5348210000000 1.0
C      1  0.4326860000000  0.4177380000000  0.4445950000000 1.0
C      1  0.5816830000000  0.4952980000000  0.5572880000000 1.0
C      1  0.4724310000000  0.5088220000000  0.5637790000000 1.0
C      1  0.4871340000000  0.5646800000000  0.3867110000000 1.0
C      1  0.4780140000000  0.5226510000000  0.4431410000000 1.0
C      1  0.4496860000000  0.4119020000000  0.5064840000000 1.0
C      1  0.6046130000000  0.4761330000000  0.4972780000000 1.0
C      1  0.5802510000000  0.4664530000000  0.4872540000000 1.0
C      1  0.4446840000000  0.4657930000000  0.5249830000000 1.0
C      1  0.4738700000000  0.5319180000000  0.5809350000000 1.0
C      1  0.5038220000000  0.5703820000000  0.4064820000000 1.0
C      1  0.5314880000000  0.5291570000000  0.4837210000000 1.0
C      1  0.5369870000000  0.4841570000000  0.4666480000000 1.0
C      1  0.5378550000000  0.5555980000000  0.5628580000000 1.0
C      1  0.5202200000000  0.5733530000000  0.4289030000000 1.0
C      1  0.5092140000000  0.3956680000000  0.4955260000000 1.0
C      1  0.5063460000000  0.6136940000000  0.4524730000000 1.0
C      1  0.5025090000000  0.5082540000000  0.4426190000000 1.0
C      1  0.5718960000000  0.4404810000000  0.4959960000000 1.0
C      1  0.5792820000000  0.5248540000000  0.4398000000000 1.0
C      1  0.5557220000000  0.5272060000000  0.5296960000000 1.0
C      1  0.4719910000000  0.5884020000000  0.5099730000000 1.0
C      1  0.5357990000000  0.4506130000000  0.4190730000000 1.0
C      1  0.5324770000000  0.4383800000000  0.5633370000000 1.0
C      1  0.5429400000000  0.5160910000000  0.5069540000000 1.0
C      1  0.5518380000000  0.4330150000000  0.5456430000000 1.0
C      1  0.4582890000000  0.4655350000000  0.5507030000000 1.0
C      1  0.5037950000000  0.5708140000000  0.4754770000000 1.0
C      1  0.5025290000000  0.6394250000000  0.4540250000000 1.0
C      1  0.5099300000000  0.5859800000000  0.4522180000000 1.0
C      1  0.4377380000000  0.4861320000000  0.5895670000000 1.0
C      1  0.5171220000000  0.4173080000000  0.4801000000000 1.0
C      1  0.4562300000000  0.5235280000000  0.4910550000000 1.0
C      1  0.5112190000000  0.4567750000000  0.5686140000000 1.0
C      1  0.4548960000000  0.5529770000000  0.5753400000000 1.0
C      1  0.4722460000000  0.3968300000000  0.5975210000000 1.0
C      1  0.5472590000000  0.5537220000000  0.5356280000000 1.0
C      1  0.4129830000000  0.4788180000000  0.4695360000000 1.0
C      1  0.5795980000000  0.5017660000000  0.4530480000000 1.0
C      1  0.4332720000000  0.4660110000000  0.4542210000000 1.0
C      1  0.5358380000000  0.5077770000000  0.5710610000000 1.0
C      1  0.5586030000000  0.5092720000000  0.5527180000000 1.0
C      1  0.5354600000000  0.4409760000000  0.4452880000000 1.0
C      1  0.5656760000000  0.4832350000000  0.4690490000000 1.0
C      1  0.3982410000000  0.5972660000000  0.5228920000000 1.0
C      1  0.4873090000000  0.4546970000000  0.5006190000000 1.0
C      1  0.5059110000000  0.4445710000000  0.4821500000000 1.0
C      1  0.5282860000000  0.4939300000000  0.5144760000000 1.0
C      1  0.4069180000000  0.4814850000000  0.4956950000000 1.0
C      1  0.4742660000000  0.4706500000000  0.4241340000000 1.0
C      1  0.5228700000000  0.4598850000000  0.4642850000000 1.0
C      1  0.5657840000000  0.4356850000000  0.5230590000000 1.0
C      1  0.4916690000000  0.3908220000000  0.5150600000000 1.0
C      1  0.4518740000000  0.4815390000000  0.4386080000000 1.0
C      1  0.4588910000000  0.4565470000000  0.5010230000000 1.0
C      1  0.4770680000000  0.4215690000000  0.5495640000000 1.0
C      1  0.4335790000000  0.5582720000000  0.5914520000000 1.0
C      1  0.4189370000000  0.4761250000000  0.5193110000000 1.0
C      1  0.4898790000000  0.5109560000000  0.5407150000000 1.0
C      1  0.4703260000000  0.5578930000000  0.3679760000000 1.0
C      1  0.4464200000000  0.4339010000000  0.4885760000000 1.0
C      1  0.4858420000000  0.4510620000000  0.5506720000000 1.0
C      1  0.5215650000000  0.4724430000000  0.4116420000000 1.0
C      1  0.5209620000000  0.4833760000000  0.5757210000000 1.0
C      1  0.4712900000000  0.4482350000000  0.4086250000000 1.0
C      1  0.4539430000000  0.5099350000000  0.4407870000000 1.0
END
