TITL C-612607-4507-723 0.161914926253729 125000 -778.566308743803 0 0 127 (C1) n - 1
REM
REM in /home/nfs/bkarasulu/CARBON/AIRSS/Generating-Clusters/TERSOFF/Only-C1/FIRE-HFTN
REM
REM
REM
REM
REM
REM ./C.cell (11c1c37f851c82e70ff6c80c92926a4b)
REM AIRSS Version 0.9.1 bugfix July 2018 build 013d7b7c2542+ Fri, 06 Jul 2018 19:26:36 +0100
REM compiler GCC version 9.2.1 20190827 (Red Hat 9.2.1-1)
REM options -cpp -mtune=generic -march=x86-64 -g -O0 -fpre-include=/usr/include/finclude/math-vector-fortran.h
REM seed 1057411634 1253741437 888388477 -41785503 -2083969275 -2056764518 689370507 86698081 60646952 -1130966522 -1152860407 1118281253 -859950589 -715851887 -148560692 -1957005977 2098025714 965011451 668233977 -1600785674 1884631235 1862277031 -1551048035 -864947427 -1396244548 -1468103428 1710271224 -1966192226 1702362314 -2043859873 -1234585747 -1215346917 -954881239
REM
CELL 1.54180   50.00000   50.00000   50.00000   90.00000   90.00000   90.00000
LATT -1
SFAC C  
C      1  0.4681870000000  0.4737640000000  0.4617260000000 1.0
C      1  0.4796410000000  0.4943840000000  0.4162070000000 1.0
C      1  0.5711990000000  0.4898950000000  0.4915860000000 1.0
C      1  0.4548800000000  0.4139940000000  0.4555840000000 1.0
C      1  0.5186490000000  0.5219640000000  0.5433540000000 1.0
C      1  0.5601940000000  0.4589020000000  0.3614950000000 1.0
C      1  0.4489000000000  0.5005140000000  0.5513550000000 1.0
C      1  0.5033440000000  0.4587230000000  0.5168870000000 1.0
C      1  0.4593770000000  0.4008500000000  0.4783220000000 1.0
C      1  0.4824920000000  0.5005950000000  0.3910210000000 1.0
C      1  0.5324390000000  0.4795780000000  0.4026700000000 1.0
C      1  0.4632090000000  0.4747730000000  0.4894170000000 1.0
C      1  0.4704740000000  0.4879670000000  0.6060390000000 1.0
C      1  0.4651250000000  0.6103760000000  0.5513910000000 1.0
C      1  0.5021630000000  0.4405600000000  0.4053800000000 1.0
C      1  0.4529310000000  0.4389960000000  0.5937750000000 1.0
C      1  0.5689660000000  0.5539360000000  0.5049590000000 1.0
C      1  0.5205500000000  0.5727490000000  0.5882080000000 1.0
C      1  0.5133330000000  0.5107990000000  0.4763200000000 1.0
C      1  0.5637040000000  0.5312850000000  0.6180330000000 1.0
C      1  0.4600950000000  0.4634320000000  0.6055670000000 1.0
C      1  0.4905830000000  0.5272200000000  0.4815550000000 1.0
C      1  0.4613090000000  0.4316390000000  0.4345220000000 1.0
C      1  0.3528780000000  0.5246620000000  0.4452960000000 1.0
C      1  0.3601190000000  0.5100320000000  0.4656220000000 1.0
C      1  0.4435220000000  0.5005330000000  0.5250880000000 1.0
C      1  0.5111100000000  0.4667160000000  0.5431310000000 1.0
C      1  0.3764220000000  0.4772200000000  0.5038540000000 1.0
C      1  0.5393690000000  0.5419440000000  0.6202350000000 1.0
C      1  0.5961530000000  0.4762700000000  0.4893520000000 1.0
C      1  0.4653080000000  0.5164400000000  0.5675020000000 1.0
C      1  0.5168220000000  0.5498500000000  0.6053700000000 1.0
C      1  0.5800810000000  0.5173360000000  0.6023150000000 1.0
C      1  0.4723790000000  0.5408170000000  0.5553030000000 1.0
C      1  0.4919620000000  0.5996190000000  0.4321960000000 1.0
C      1  0.5525090000000  0.5786130000000  0.5477320000000 1.0
C      1  0.4286440000000  0.5631040000000  0.5631650000000 1.0
C      1  0.5400000000000  0.4440580000000  0.3722910000000 1.0
C      1  0.4412270000000  0.5066990000000  0.4425540000000 1.0
C      1  0.5705050000000  0.4338960000000  0.5004050000000 1.0
C      1  0.5348410000000  0.3833370000000  0.5179360000000 1.0
C      1  0.5139210000000  0.4182790000000  0.5452550000000 1.0
C      1  0.4382010000000  0.5558920000000  0.4556310000000 1.0
C      1  0.5066450000000  0.4390200000000  0.4525260000000 1.0
C      1  0.6165420000000  0.4960760000000  0.4912030000000 1.0
C      1  0.5229010000000  0.4486520000000  0.4982520000000 1.0
C      1  0.5248920000000  0.5785650000000  0.3959150000000 1.0
C      1  0.4197740000000  0.4893210000000  0.4360960000000 1.0
C      1  0.5073070000000  0.5713920000000  0.5442010000000 1.0
C      1  0.4991270000000  0.5816100000000  0.5710100000000 1.0
C      1  0.5664720000000  0.5387910000000  0.4348460000000 1.0
C      1  0.5167100000000  0.3670320000000  0.5067050000000 1.0
C      1  0.4879010000000  0.4063050000000  0.5476580000000 1.0
C      1  0.4263500000000  0.4331470000000  0.5471380000000 1.0
C      1  0.3972730000000  0.4470460000000  0.4427810000000 1.0
C      1  0.5176820000000  0.4564900000000  0.4714680000000 1.0
C      1  0.4404250000000  0.4458680000000  0.4204350000000 1.0
C      1  0.4720960000000  0.3915650000000  0.5015780000000 1.0
C      1  0.5611970000000  0.5061510000000  0.4711840000000 1.0
C      1  0.5081940000000  0.5942190000000  0.4118270000000 1.0
C      1  0.5816540000000  0.5005080000000  0.5817170000000 1.0
C      1  0.4624930000000  0.5216000000000  0.4827620000000 1.0
C      1  0.4900200000000  0.6056570000000  0.4807180000000 1.0
C      1  0.5715930000000  0.5916460000000  0.4034750000000 1.0
C      1  0.5163420000000  0.5966230000000  0.4885600000000 1.0
C      1  0.5462680000000  0.5254520000000  0.3902040000000 1.0
C      1  0.5659570000000  0.4843010000000  0.3696610000000 1.0
C      1  0.5150000000000  0.5608460000000  0.3761690000000 1.0
C      1  0.5391650000000  0.5231280000000  0.4787700000000 1.0
C      1  0.4121470000000  0.5619250000000  0.4495990000000 1.0
C      1  0.4401620000000  0.4444330000000  0.3929220000000 1.0
C      1  0.5520330000000  0.5725790000000  0.4031360000000 1.0
C      1  0.5286490000000  0.5877690000000  0.5344250000000 1.0
C      1  0.4699330000000  0.4163100000000  0.5969420000000 1.0
C      1  0.5717160000000  0.5130730000000  0.4457790000000 1.0
C      1  0.4742750000000  0.6178380000000  0.5007320000000 1.0
C      1  0.5502980000000  0.4975990000000  0.3894630000000 1.0
C      1  0.4714910000000  0.5877140000000  0.5670190000000 1.0
C      1  0.4786150000000  0.5952440000000  0.4565160000000 1.0
C      1  0.5272110000000  0.6053330000000  0.5129190000000 1.0
C      1  0.5233670000000  0.4927420000000  0.5458890000000 1.0
C      1  0.4042560000000  0.4453730000000  0.5353580000000 1.0
C      1  0.4683300000000  0.4047910000000  0.5265810000000 1.0
C      1  0.4895830000000  0.4359210000000  0.4300820000000 1.0
C      1  0.4983730000000  0.5535670000000  0.4851290000000 1.0
C      1  0.5950570000000  0.5429450000000  0.4997410000000 1.0
C      1  0.5120490000000  0.4208330000000  0.6223370000000 1.0
C      1  0.5922780000000  0.4485150000000  0.4933000000000 1.0
C      1  0.3881310000000  0.4603430000000  0.5205980000000 1.0
C      1  0.4564070000000  0.5638570000000  0.5619720000000 1.0
C      1  0.3676870000000  0.4942380000000  0.4855170000000 1.0
C      1  0.5601920000000  0.5553390000000  0.5324490000000 1.0
C      1  0.5471060000000  0.5775250000000  0.5762950000000 1.0
C      1  0.5299370000000  0.4320070000000  0.6060270000000 1.0
C      1  0.6126230000000  0.5227550000000  0.4956460000000 1.0
C      1  0.5523420000000  0.4886450000000  0.5437450000000 1.0
C      1  0.5144270000000  0.4842170000000  0.4677010000000 1.0
C      1  0.4454230000000  0.5287820000000  0.4604350000000 1.0
C      1  0.5238930000000  0.4537250000000  0.3936870000000 1.0
C      1  0.4331670000000  0.4380090000000  0.5739090000000 1.0
C      1  0.5613690000000  0.5583170000000  0.4552460000000 1.0
C      1  0.4190330000000  0.4607680000000  0.4331720000000 1.0
C      1  0.4539230000000  0.4998910000000  0.4991870000000 1.0
C      1  0.4984990000000  0.5432340000000  0.5435830000000 1.0
C      1  0.5449040000000  0.5333110000000  0.5405170000000 1.0
C      1  0.5431900000000  0.4306760000000  0.5074480000000 1.0
C      1  0.5218020000000  0.5690930000000  0.4838070000000 1.0
C      1  0.4435670000000  0.4170730000000  0.5319300000000 1.0
C      1  0.5476600000000  0.5533040000000  0.4819290000000 1.0
C      1  0.5186280000000  0.4434480000000  0.5589880000000 1.0
C      1  0.5575000000000  0.5446010000000  0.4086680000000 1.0
C      1  0.5261510000000  0.5363330000000  0.3731430000000 1.0
C      1  0.4779530000000  0.4024390000000  0.5737860000000 1.0
C      1  0.5673050000000  0.4818330000000  0.5667280000000 1.0
C      1  0.4571340000000  0.5768520000000  0.4571930000000 1.0
C      1  0.4910410000000  0.3708600000000  0.5000310000000 1.0
C      1  0.4026510000000  0.5612710000000  0.5633800000000 1.0
C      1  0.4950880000000  0.5315290000000  0.6032710000000 1.0
C      1  0.4770250000000  0.4592010000000  0.5077950000000 1.0
C      1  0.5333180000000  0.4103960000000  0.5253400000000 1.0
C      1  0.4662330000000  0.6195520000000  0.5262080000000 1.0
C      1  0.5619550000000  0.4906820000000  0.5178090000000 1.0
C      1  0.5361400000000  0.4437590000000  0.5814940000000 1.0
C      1  0.4769730000000  0.5119630000000  0.5931720000000 1.0
C      1  0.4862900000000  0.4138940000000  0.6196430000000 1.0
C      1  0.5604060000000  0.4573710000000  0.5784490000000 1.0
C      1  0.4654090000000  0.4911830000000  0.4397690000000 1.0
END
