TITL C-612607-4507-861 -0.00013070562358836 125000 -670.90313048956 0 0 109 (C1) n - 1
REM
REM in /home/nfs/bkarasulu/CARBON/AIRSS/Generating-Clusters/TERSOFF/Only-C1/FIRE-HFTN
REM
REM
REM
REM
REM
REM ./C.cell (11c1c37f851c82e70ff6c80c92926a4b)
REM AIRSS Version 0.9.1 bugfix July 2018 build 013d7b7c2542+ Fri, 06 Jul 2018 19:26:36 +0100
REM compiler GCC version 9.2.1 20190827 (Red Hat 9.2.1-1)
REM options -cpp -mtune=generic -march=x86-64 -g -O0 -fpre-include=/usr/include/finclude/math-vector-fortran.h
REM seed -465365551 21067131 -307215425 -803319523 383453940 1244100013 1541813171 -1159836608 1295071561 -807231217 1266998520 129701837 2071306792 551664977 -2074219814 -2039137668 -1522240921 502144147 1963230736 -1059296459 2126925634 1905217157 775456497 -2035332121 -1640338974 684699378 -866071253 2122678936 912740123 1213125207 318730937 -1267253825 -1822396341
REM
CELL 1.54180   50.00000   50.00000   50.00000   90.00000   90.00000   90.00000
LATT -1
SFAC C  
C      1  0.5779890000000  0.5473840000000  0.5355210000000 1.0
C      1  0.5145870000000  0.4979850000000  0.6038660000000 1.0
C      1  0.5004210000000  0.5070400000000  0.5326220000000 1.0
C      1  0.4892950000000  0.5586600000000  0.4707440000000 1.0
C      1  0.4838880000000  0.5909920000000  0.4323210000000 1.0
C      1  0.4166100000000  0.5816900000000  0.4320070000000 1.0
C      1  0.5637660000000  0.3986800000000  0.4800390000000 1.0
C      1  0.4350390000000  0.5730720000000  0.5307350000000 1.0
C      1  0.4752580000000  0.4993460000000  0.4473130000000 1.0
C      1  0.5685710000000  0.5635240000000  0.4908060000000 1.0
C      1  0.4252510000000  0.5449260000000  0.4628830000000 1.0
C      1  0.4103440000000  0.4258220000000  0.4692750000000 1.0
C      1  0.5160150000000  0.5171630000000  0.4353440000000 1.0
C      1  0.4571130000000  0.4616200000000  0.4146550000000 1.0
C      1  0.4604400000000  0.4820090000000  0.4313910000000 1.0
C      1  0.4603770000000  0.4560930000000  0.4889180000000 1.0
C      1  0.4215950000000  0.5262570000000  0.4877090000000 1.0
C      1  0.4656020000000  0.5297850000000  0.5555160000000 1.0
C      1  0.5571860000000  0.5671000000000  0.5388700000000 1.0
C      1  0.5848200000000  0.5254550000000  0.5526790000000 1.0
C      1  0.4656080000000  0.5468310000000  0.5061500000000 1.0
C      1  0.4154650000000  0.4856030000000  0.5170210000000 1.0
C      1  0.4003870000000  0.5084850000000  0.5288710000000 1.0
C      1  0.4697800000000  0.4654240000000  0.5945210000000 1.0
C      1  0.5319620000000  0.4325570000000  0.4052640000000 1.0
C      1  0.4564300000000  0.4501440000000  0.5375530000000 1.0
C      1  0.4715680000000  0.5085590000000  0.5348130000000 1.0
C      1  0.4908120000000  0.5440930000000  0.4941640000000 1.0
C      1  0.5342420000000  0.5677990000000  0.5575420000000 1.0
C      1  0.5112960000000  0.5022590000000  0.4820070000000 1.0
C      1  0.4489880000000  0.5256400000000  0.4999190000000 1.0
C      1  0.5899740000000  0.5029220000000  0.5359360000000 1.0
C      1  0.5987900000000  0.4889060000000  0.4905910000000 1.0
C      1  0.4856390000000  0.4922910000000  0.4730100000000 1.0
C      1  0.4653020000000  0.4425640000000  0.3979860000000 1.0
C      1  0.5437830000000  0.4522280000000  0.5883130000000 1.0
C      1  0.5522970000000  0.5758680000000  0.5122240000000 1.0
C      1  0.5492540000000  0.4793430000000  0.5431810000000 1.0
C      1  0.5931720000000  0.5115690000000  0.5076250000000 1.0
C      1  0.5340590000000  0.4798180000000  0.4023060000000 1.0
C      1  0.4881740000000  0.5226350000000  0.4371880000000 1.0
C      1  0.5719120000000  0.4220910000000  0.4925580000000 1.0
C      1  0.4371910000000  0.4095050000000  0.5094140000000 1.0
C      1  0.5461960000000  0.4562160000000  0.4149600000000 1.0
C      1  0.4857520000000  0.4298230000000  0.3835050000000 1.0
C      1  0.4634430000000  0.5688180000000  0.4356810000000 1.0
C      1  0.4588710000000  0.5015070000000  0.5107680000000 1.0
C      1  0.4316050000000  0.4678720000000  0.5370750000000 1.0
C      1  0.4876600000000  0.4706110000000  0.5729950000000 1.0
C      1  0.5161010000000  0.5466340000000  0.5057000000000 1.0
C      1  0.5784700000000  0.5277690000000  0.5798210000000 1.0
C      1  0.4428890000000  0.5341400000000  0.5719400000000 1.0
C      1  0.4800750000000  0.5478570000000  0.4462910000000 1.0
C      1  0.4218900000000  0.4101380000000  0.4875410000000 1.0
C      1  0.5571980000000  0.5735080000000  0.4651370000000 1.0
C      1  0.4555680000000  0.4799560000000  0.6120010000000 1.0
C      1  0.5433530000000  0.3901030000000  0.4341410000000 1.0
C      1  0.4808940000000  0.4081890000000  0.3676280000000 1.0
C      1  0.4187040000000  0.4688300000000  0.5630450000000 1.0
C      1  0.5301990000000  0.4567020000000  0.5052700000000 1.0
C      1  0.4846310000000  0.4531000000000  0.5492700000000 1.0
C      1  0.5082530000000  0.5152460000000  0.5593300000000 1.0
C      1  0.5349280000000  0.4811910000000  0.5180800000000 1.0
C      1  0.5360260000000  0.4068720000000  0.4148820000000 1.0
C      1  0.4439540000000  0.5269480000000  0.5990790000000 1.0
C      1  0.5771600000000  0.4778350000000  0.5393520000000 1.0
C      1  0.5046000000000  0.5659470000000  0.5513250000000 1.0
C      1  0.5832610000000  0.5407460000000  0.5058460000000 1.0
C      1  0.5046940000000  0.4941590000000  0.5784160000000 1.0
C      1  0.4058840000000  0.4509830000000  0.4615480000000 1.0
C      1  0.5867680000000  0.4430330000000  0.4790630000000 1.0
C      1  0.5912230000000  0.4872090000000  0.4627380000000 1.0
C      1  0.5605570000000  0.5431760000000  0.5928040000000 1.0
C      1  0.4926890000000  0.5407400000000  0.5614740000000 1.0
C      1  0.5415280000000  0.4678590000000  0.5674750000000 1.0
C      1  0.5115000000000  0.4408150000000  0.3863330000000 1.0
C      1  0.5256080000000  0.5734680000000  0.5068570000000 1.0
C      1  0.5164760000000  0.5004330000000  0.5106450000000 1.0
C      1  0.5972170000000  0.4610160000000  0.5002610000000 1.0
C      1  0.4679130000000  0.4819570000000  0.4922620000000 1.0
C      1  0.4175280000000  0.5373450000000  0.5594620000000 1.0
C      1  0.5076160000000  0.5944110000000  0.4511670000000 1.0
C      1  0.5550680000000  0.5191970000000  0.4614400000000 1.0
C      1  0.5419740000000  0.5607350000000  0.5841330000000 1.0
C      1  0.5338890000000  0.4345340000000  0.5233850000000 1.0
C      1  0.4953150000000  0.5868260000000  0.4766310000000 1.0
C      1  0.5085970000000  0.4365220000000  0.5400160000000 1.0
C      1  0.4017690000000  0.5131070000000  0.5573550000000 1.0
C      1  0.5837010000000  0.4542260000000  0.5249250000000 1.0
C      1  0.5285560000000  0.5045790000000  0.4137310000000 1.0
C      1  0.4470550000000  0.5052290000000  0.6143990000000 1.0
C      1  0.4619130000000  0.5694920000000  0.5231390000000 1.0
C      1  0.5534680000000  0.3869350000000  0.4585310000000 1.0
C      1  0.4044860000000  0.4897990000000  0.5726940000000 1.0
C      1  0.4157880000000  0.5526450000000  0.5344860000000 1.0
C      1  0.5361510000000  0.5863040000000  0.4517420000000 1.0
C      1  0.5670280000000  0.4552870000000  0.4335180000000 1.0
C      1  0.4507500000000  0.4239590000000  0.5273150000000 1.0
C      1  0.5167770000000  0.4688490000000  0.3818990000000 1.0
C      1  0.4876880000000  0.5814870000000  0.5300210000000 1.0
C      1  0.4353420000000  0.5650270000000  0.4435820000000 1.0
C      1  0.5830670000000  0.4600300000000  0.4558990000000 1.0
C      1  0.5279600000000  0.5137020000000  0.4613140000000 1.0
C      1  0.4055140000000  0.5341220000000  0.5135740000000 1.0
C      1  0.4086910000000  0.4767970000000  0.4677500000000 1.0
C      1  0.5637880000000  0.4309990000000  0.5199910000000 1.0
C      1  0.5784380000000  0.5097530000000  0.4527550000000 1.0
C      1  0.4155730000000  0.4945340000000  0.4880390000000 1.0
C      1  0.5025220000000  0.5904280000000  0.5052030000000 1.0
END
