TITL C-612601-4209-619 0.153137219009214 125000 -869.837745627368 0 0 143 (C1) n - 1
REM
REM in /home/nfs/bkarasulu/CARBON/AIRSS/Generating-Clusters/TERSOFF/Only-C1/FIRE-HFTN
REM
REM
REM
REM
REM
REM ./C.cell (11c1c37f851c82e70ff6c80c92926a4b)
REM AIRSS Version 0.9.1 bugfix July 2018 build 013d7b7c2542+ Fri, 06 Jul 2018 19:26:36 +0100
REM compiler GCC version 9.2.1 20190827 (Red Hat 9.2.1-1)
REM options -cpp -mtune=generic -march=x86-64 -g -O0 -fpre-include=/usr/include/finclude/math-vector-fortran.h
REM seed 2030219251 1677838126 1783822097 -1375820411 -1568823588 1129389610 -1942439627 -1104344157 -463821259 -1260965784 -1857349737 397071471 398119412 -214906300 -856306387 -104629054 -71754645 -302222095 -964699214 1201672761 1467907758 1898878248 -559472565 1075782027 -1569214247 2142111099 2078685695 766542709 -1883239276 -1852642974 2024976763 1562691789 1155504840
REM
CELL 1.54180   50.00000   50.00000   50.00000   90.00000   90.00000   90.00000
LATT -1
SFAC C  
C      1  0.5588220000000  0.5644640000000  0.5766890000000 1.0
C      1  0.5477940000000  0.5711240000000  0.3260180000000 1.0
C      1  0.4100400000000  0.5444090000000  0.5280890000000 1.0
C      1  0.5141000000000  0.4534490000000  0.4476580000000 1.0
C      1  0.4125650000000  0.5213180000000  0.4649140000000 1.0
C      1  0.4482720000000  0.5354730000000  0.4335340000000 1.0
C      1  0.4674900000000  0.4465320000000  0.3875930000000 1.0
C      1  0.5065800000000  0.4035080000000  0.4483500000000 1.0
C      1  0.5800250000000  0.5291520000000  0.4808730000000 1.0
C      1  0.3992650000000  0.4753590000000  0.4493250000000 1.0
C      1  0.5245350000000  0.5984610000000  0.4460500000000 1.0
C      1  0.5474560000000  0.5777250000000  0.5127080000000 1.0
C      1  0.5562070000000  0.5558050000000  0.5284890000000 1.0
C      1  0.4862850000000  0.5778430000000  0.4150340000000 1.0
C      1  0.4261090000000  0.3843900000000  0.5114420000000 1.0
C      1  0.5675730000000  0.5484070000000  0.5979390000000 1.0
C      1  0.4441610000000  0.5368560000000  0.5641010000000 1.0
C      1  0.4755400000000  0.5649460000000  0.5369530000000 1.0
C      1  0.4893050000000  0.5516710000000  0.4048450000000 1.0
C      1  0.5200930000000  0.4268660000000  0.4568080000000 1.0
C      1  0.5599470000000  0.4712350000000  0.3927650000000 1.0
C      1  0.5469120000000  0.5058460000000  0.6022100000000 1.0
C      1  0.5339080000000  0.5029840000000  0.5749360000000 1.0
C      1  0.4746470000000  0.5316650000000  0.4210710000000 1.0
C      1  0.6306410000000  0.5327830000000  0.5795450000000 1.0
C      1  0.5010660000000  0.5059600000000  0.6082830000000 1.0
C      1  0.5554800000000  0.5311070000000  0.4701850000000 1.0
C      1  0.4411090000000  0.5922420000000  0.4856580000000 1.0
C      1  0.4129050000000  0.4158240000000  0.4781170000000 1.0
C      1  0.5996310000000  0.5220430000000  0.4977860000000 1.0
C      1  0.4019690000000  0.4660620000000  0.4761260000000 1.0
C      1  0.4638510000000  0.5884680000000  0.5267230000000 1.0
C      1  0.5960930000000  0.5111850000000  0.6083340000000 1.0
C      1  0.4260670000000  0.5268070000000  0.5438290000000 1.0
C      1  0.4338790000000  0.4701250000000  0.4143250000000 1.0
C      1  0.4505860000000  0.4055730000000  0.4442870000000 1.0
C      1  0.4700770000000  0.4531190000000  0.4883990000000 1.0
C      1  0.4804910000000  0.6065300000000  0.5101630000000 1.0
C      1  0.5647410000000  0.4685150000000  0.5022350000000 1.0
C      1  0.5376010000000  0.4151110000000  0.5731660000000 1.0
C      1  0.5366160000000  0.4738940000000  0.3802100000000 1.0
C      1  0.4053340000000  0.4029190000000  0.5028160000000 1.0
C      1  0.4445580000000  0.4439080000000  0.4063220000000 1.0
C      1  0.5719630000000  0.5617880000000  0.5515050000000 1.0
C      1  0.4331540000000  0.3978900000000  0.4653280000000 1.0
C      1  0.4545580000000  0.4868220000000  0.4047130000000 1.0
C      1  0.5812470000000  0.4495400000000  0.5612910000000 1.0
C      1  0.4856610000000  0.4417890000000  0.5996940000000 1.0
C      1  0.5097610000000  0.4824330000000  0.3806360000000 1.0
C      1  0.5776480000000  0.4724050000000  0.4125790000000 1.0
C      1  0.4922860000000  0.4627870000000  0.4327460000000 1.0
C      1  0.4406180000000  0.4576530000000  0.5744760000000 1.0
C      1  0.5078250000000  0.5919000000000  0.4262520000000 1.0
C      1  0.4907730000000  0.5082980000000  0.4170490000000 1.0
C      1  0.4339330000000  0.5057650000000  0.6013340000000 1.0
C      1  0.5056530000000  0.5089890000000  0.3919810000000 1.0
C      1  0.4505030000000  0.5021230000000  0.3824040000000 1.0
C      1  0.5999920000000  0.5611480000000  0.5508880000000 1.0
C      1  0.5325600000000  0.6057600000000  0.5787060000000 1.0
C      1  0.5023270000000  0.5602820000000  0.4936670000000 1.0
C      1  0.4259110000000  0.4989660000000  0.5365120000000 1.0
C      1  0.5202550000000  0.5491150000000  0.3650040000000 1.0
C      1  0.4171790000000  0.5712170000000  0.5252630000000 1.0
C      1  0.5936880000000  0.4731620000000  0.4626750000000 1.0
C      1  0.4781560000000  0.4839470000000  0.4209530000000 1.0
C      1  0.5307720000000  0.4323170000000  0.5298030000000 1.0
C      1  0.4809640000000  0.5238530000000  0.4743930000000 1.0
C      1  0.6203090000000  0.5164430000000  0.5980990000000 1.0
C      1  0.4604030000000  0.4412810000000  0.5906620000000 1.0
C      1  0.5475960000000  0.5287240000000  0.5247220000000 1.0
C      1  0.6108390000000  0.4889110000000  0.5363050000000 1.0
C      1  0.5642810000000  0.4784750000000  0.5314210000000 1.0
C      1  0.4641180000000  0.4365780000000  0.5356790000000 1.0
C      1  0.6116360000000  0.5084580000000  0.5176310000000 1.0
C      1  0.6288070000000  0.4303340000000  0.5062280000000 1.0
C      1  0.5053410000000  0.5143530000000  0.5803970000000 1.0
C      1  0.4942540000000  0.5403770000000  0.5740750000000 1.0
C      1  0.4417460000000  0.4209900000000  0.4223430000000 1.0
C      1  0.5253300000000  0.5024140000000  0.6210190000000 1.0
C      1  0.4760490000000  0.4369460000000  0.5102950000000 1.0
C      1  0.4353830000000  0.4807020000000  0.5927440000000 1.0
C      1  0.5479740000000  0.4170430000000  0.5467010000000 1.0
C      1  0.5905200000000  0.4711470000000  0.5441370000000 1.0
C      1  0.6102230000000  0.4474930000000  0.4999290000000 1.0
C      1  0.5908700000000  0.4647260000000  0.4894100000000 1.0
C      1  0.4913710000000  0.4966060000000  0.4720220000000 1.0
C      1  0.4887980000000  0.4619070000000  0.3788240000000 1.0
C      1  0.4277860000000  0.5146280000000  0.4413450000000 1.0
C      1  0.4784500000000  0.4023130000000  0.4475370000000 1.0
C      1  0.4700440000000  0.5481580000000  0.5596360000000 1.0
C      1  0.5278900000000  0.6573150000000  0.5697070000000 1.0
C      1  0.5343280000000  0.6000920000000  0.4708780000000 1.0
C      1  0.5365950000000  0.4404930000000  0.5865000000000 1.0
C      1  0.5042050000000  0.5410710000000  0.4734700000000 1.0
C      1  0.4389370000000  0.3780430000000  0.4859690000000 1.0
C      1  0.4441710000000  0.5640120000000  0.4402850000000 1.0
C      1  0.5301190000000  0.4721190000000  0.4635850000000 1.0
C      1  0.4462440000000  0.4486390000000  0.4750350000000 1.0
C      1  0.4379930000000  0.5853830000000  0.5137710000000 1.0
C      1  0.5016580000000  0.5270150000000  0.5267770000000 1.0
C      1  0.4373840000000  0.5299260000000  0.5905040000000 1.0
C      1  0.4636620000000  0.4956570000000  0.5093500000000 1.0
C      1  0.4192010000000  0.4869960000000  0.4326360000000 1.0
C      1  0.5701560000000  0.5213150000000  0.6052010000000 1.0
C      1  0.4543180000000  0.4114380000000  0.5439710000000 1.0
C      1  0.5452310000000  0.4576500000000  0.4836160000000 1.0
C      1  0.5890510000000  0.4743350000000  0.4365190000000 1.0
C      1  0.5282580000000  0.5249930000000  0.4674900000000 1.0
C      1  0.4513680000000  0.4863690000000  0.5327880000000 1.0
C      1  0.5473770000000  0.4829680000000  0.5584750000000 1.0
C      1  0.6221240000000  0.5505100000000  0.5613990000000 1.0
C      1  0.5304150000000  0.6318770000000  0.5748170000000 1.0
C      1  0.3990760000000  0.4599940000000  0.5427360000000 1.0
C      1  0.5121480000000  0.4457890000000  0.5992240000000 1.0
C      1  0.4188150000000  0.4433350000000  0.4775800000000 1.0
C      1  0.5339730000000  0.5779520000000  0.5790610000000 1.0
C      1  0.4598350000000  0.5820910000000  0.4244190000000 1.0
C      1  0.4404270000000  0.3904230000000  0.5346920000000 1.0
C      1  0.5319390000000  0.5970540000000  0.4989030000000 1.0
C      1  0.5341180000000  0.5602170000000  0.3453480000000 1.0
C      1  0.4131980000000  0.4493750000000  0.5635830000000 1.0
C      1  0.5192550000000  0.4974690000000  0.4662630000000 1.0
C      1  0.3995700000000  0.5133590000000  0.4886620000000 1.0
C      1  0.4644400000000  0.6097510000000  0.4860120000000 1.0
C      1  0.3939940000000  0.5328010000000  0.5081530000000 1.0
C      1  0.5563380000000  0.4084140000000  0.4856530000000 1.0
C      1  0.5060800000000  0.5375080000000  0.3857430000000 1.0
C      1  0.5758210000000  0.4244580000000  0.5480160000000 1.0
C      1  0.4346090000000  0.5753420000000  0.4642680000000 1.0
C      1  0.4557760000000  0.4617580000000  0.5475840000000 1.0
C      1  0.5198980000000  0.4836730000000  0.5227550000000 1.0
C      1  0.3994970000000  0.4856160000000  0.4973400000000 1.0
C      1  0.5085020000000  0.6082050000000  0.5105870000000 1.0
C      1  0.4616780000000  0.5214080000000  0.4957860000000 1.0
C      1  0.4780290000000  0.4796160000000  0.4900960000000 1.0
C      1  0.5109240000000  0.5621940000000  0.5809910000000 1.0
C      1  0.5560360000000  0.4589590000000  0.5751160000000 1.0
C      1  0.4047130000000  0.4820820000000  0.5257200000000 1.0
C      1  0.5246600000000  0.5117160000000  0.5243270000000 1.0
C      1  0.5409130000000  0.4291750000000  0.4770880000000 1.0
C      1  0.4942210000000  0.5529070000000  0.5195940000000 1.0
C      1  0.5199550000000  0.4568130000000  0.5258910000000 1.0
C      1  0.5210380000000  0.3817110000000  0.4401540000000 1.0
END
