TITL C-612603-7354-1329 -0.00830743984165019 125000 -796.415364437384 0 0 131 (C1) n - 1
REM
REM in /home/nfs/bkarasulu/CARBON/AIRSS/Generating-Clusters/TERSOFF/Only-C1/FIRE-HFTN
REM
REM
REM
REM
REM
REM ./C.cell (11c1c37f851c82e70ff6c80c92926a4b)
REM AIRSS Version 0.9.1 bugfix July 2018 build 013d7b7c2542+ Fri, 06 Jul 2018 19:26:36 +0100
REM compiler GCC version 9.2.1 20190827 (Red Hat 9.2.1-1)
REM options -cpp -mtune=generic -march=x86-64 -g -O0 -fpre-include=/usr/include/finclude/math-vector-fortran.h
REM seed 875593604 686631976 -1740469501 -340558900 -392283858 -2144346507 -552463839 -712410893 -1399490125 567780792 -984917255 2143017942 1612425946 355549424 1637612045 1185337105 -674215192 1173732935 -726871745 -1530413655 -1276032928 81195957 1733515777 816658770 -1613616698 242086268 122266912 -2051076176 -470288830 1872726373 -370809008 1598205531 -2023134510
REM
CELL 1.54180   50.00000   50.00000   50.00000   90.00000   90.00000   90.00000
LATT -1
SFAC C  
C      1  0.5310860000000  0.5005520000000  0.4002770000000 1.0
C      1  0.3868850000000  0.5465640000000  0.5286150000000 1.0
C      1  0.5335780000000  0.4940440000000  0.5952710000000 1.0
C      1  0.4339900000000  0.5867780000000  0.5186020000000 1.0
C      1  0.5111260000000  0.4476750000000  0.5425800000000 1.0
C      1  0.4809630000000  0.5212900000000  0.4062560000000 1.0
C      1  0.4637360000000  0.5807000000000  0.4725090000000 1.0
C      1  0.5174690000000  0.5496870000000  0.4712920000000 1.0
C      1  0.4276490000000  0.4100930000000  0.4537880000000 1.0
C      1  0.5084250000000  0.5155000000000  0.4008200000000 1.0
C      1  0.5163910000000  0.5419700000000  0.5372290000000 1.0
C      1  0.4271250000000  0.4010890000000  0.5285150000000 1.0
C      1  0.4997340000000  0.5076620000000  0.4528310000000 1.0
C      1  0.4666190000000  0.6029690000000  0.5671720000000 1.0
C      1  0.5021480000000  0.4534340000000  0.4068240000000 1.0
C      1  0.4917240000000  0.3823860000000  0.4740510000000 1.0
C      1  0.4215210000000  0.4143050000000  0.5039880000000 1.0
C      1  0.5226480000000  0.4887130000000  0.5178240000000 1.0
C      1  0.6367280000000  0.5322880000000  0.4883990000000 1.0
C      1  0.5030080000000  0.5946210000000  0.5417070000000 1.0
C      1  0.5716250000000  0.5090360000000  0.5694820000000 1.0
C      1  0.5188360000000  0.5961100000000  0.4447970000000 1.0
C      1  0.5623360000000  0.5352960000000  0.4764070000000 1.0
C      1  0.5201670000000  0.4109390000000  0.3866690000000 1.0
C      1  0.4947380000000  0.4285500000000  0.5948200000000 1.0
C      1  0.4345970000000  0.4936320000000  0.4358290000000 1.0
C      1  0.4419640000000  0.5441630000000  0.5771180000000 1.0
C      1  0.4311140000000  0.5065900000000  0.4839650000000 1.0
C      1  0.4874540000000  0.4230530000000  0.4996060000000 1.0
C      1  0.4134340000000  0.5777150000000  0.5001400000000 1.0
C      1  0.4181030000000  0.4034100000000  0.4781730000000 1.0
C      1  0.5480890000000  0.4803650000000  0.4069080000000 1.0
C      1  0.4647510000000  0.4570140000000  0.5601320000000 1.0
C      1  0.4611060000000  0.5037930000000  0.3958880000000 1.0
C      1  0.5482950000000  0.4881790000000  0.5062390000000 1.0
C      1  0.4013870000000  0.5515150000000  0.5023600000000 1.0
C      1  0.4853490000000  0.5889510000000  0.5843350000000 1.0
C      1  0.4580620000000  0.6021810000000  0.5160070000000 1.0
C      1  0.4801430000000  0.4091990000000  0.5828900000000 1.0
C      1  0.5095300000000  0.5839020000000  0.5682190000000 1.0
C      1  0.5052060000000  0.4526630000000  0.6009110000000 1.0
C      1  0.5946010000000  0.5968610000000  0.4926450000000 1.0
C      1  0.4310630000000  0.5166460000000  0.5345590000000 1.0
C      1  0.4252960000000  0.5600300000000  0.5603210000000 1.0
C      1  0.5097310000000  0.4806400000000  0.6025090000000 1.0
C      1  0.5877620000000  0.6211390000000  0.4842340000000 1.0
C      1  0.5792270000000  0.4625670000000  0.4777650000000 1.0
C      1  0.4725990000000  0.5120160000000  0.5522940000000 1.0
C      1  0.6045580000000  0.5029430000000  0.4649110000000 1.0
C      1  0.4987940000000  0.4397380000000  0.4500950000000 1.0
C      1  0.4731200000000  0.4430160000000  0.5140040000000 1.0
C      1  0.3971260000000  0.5242360000000  0.5690540000000 1.0
C      1  0.5369590000000  0.3625790000000  0.4679740000000 1.0
C      1  0.4405960000000  0.5107690000000  0.4572970000000 1.0
C      1  0.4885060000000  0.4980980000000  0.6087300000000 1.0
C      1  0.6021860000000  0.5155840000000  0.3934460000000 1.0
C      1  0.4266990000000  0.4421690000000  0.5036290000000 1.0
C      1  0.5203640000000  0.4310090000000  0.4049680000000 1.0
C      1  0.6000360000000  0.3860720000000  0.4706010000000 1.0
C      1  0.5009710000000  0.5067940000000  0.5149600000000 1.0
C      1  0.4811200000000  0.5472200000000  0.6143440000000 1.0
C      1  0.4751600000000  0.6038880000000  0.5390160000000 1.0
C      1  0.5932170000000  0.5703560000000  0.4927010000000 1.0
C      1  0.5546520000000  0.4572050000000  0.4200840000000 1.0
C      1  0.4968570000000  0.5211180000000  0.5400540000000 1.0
C      1  0.5394530000000  0.4335560000000  0.4273170000000 1.0
C      1  0.4399960000000  0.4527790000000  0.5697490000000 1.0
C      1  0.5253520000000  0.4281870000000  0.5273930000000 1.0
C      1  0.4377600000000  0.5646610000000  0.5356140000000 1.0
C      1  0.5394780000000  0.5466570000000  0.4891100000000 1.0
C      1  0.5688250000000  0.4978010000000  0.5227810000000 1.0
C      1  0.5497220000000  0.6357240000000  0.4540700000000 1.0
C      1  0.5160760000000  0.4857240000000  0.4475060000000 1.0
C      1  0.4499920000000  0.4577800000000  0.5053500000000 1.0
C      1  0.5600070000000  0.5142890000000  0.4554860000000 1.0
C      1  0.4770960000000  0.5224640000000  0.6013410000000 1.0
C      1  0.5897920000000  0.4099240000000  0.4729890000000 1.0
C      1  0.5203100000000  0.3835070000000  0.4725310000000 1.0
C      1  0.5335180000000  0.5488150000000  0.5170010000000 1.0
C      1  0.4626890000000  0.5390630000000  0.4993610000000 1.0
C      1  0.5427050000000  0.4904000000000  0.4587210000000 1.0
C      1  0.4250740000000  0.4304400000000  0.5666730000000 1.0
C      1  0.5021030000000  0.4636470000000  0.4343800000000 1.0
C      1  0.4480510000000  0.4861610000000  0.5067360000000 1.0
C      1  0.4863250000000  0.5222260000000  0.4958690000000 1.0
C      1  0.4783300000000  0.4074560000000  0.4777700000000 1.0
C      1  0.4358400000000  0.4067700000000  0.5549510000000 1.0
C      1  0.4496810000000  0.4216860000000  0.4431590000000 1.0
C      1  0.5929940000000  0.5111440000000  0.4174270000000 1.0
C      1  0.5397330000000  0.5423850000000  0.5848300000000 1.0
C      1  0.5857370000000  0.5081590000000  0.4439930000000 1.0
C      1  0.6220320000000  0.4727620000000  0.4992250000000 1.0
C      1  0.3849080000000  0.5069960000000  0.5003710000000 1.0
C      1  0.4812740000000  0.5731410000000  0.6070830000000 1.0
C      1  0.5542280000000  0.4763740000000  0.4811220000000 1.0
C      1  0.5259920000000  0.4275810000000  0.4530550000000 1.0
C      1  0.5485770000000  0.5154260000000  0.5843010000000 1.0
C      1  0.5219510000000  0.4732070000000  0.5415450000000 1.0
C      1  0.5811690000000  0.4348840000000  0.4752430000000 1.0
C      1  0.5283170000000  0.4111070000000  0.4767330000000 1.0
C      1  0.4704740000000  0.5374990000000  0.4275420000000 1.0
C      1  0.4050840000000  0.5087040000000  0.5456070000000 1.0
C      1  0.6035820000000  0.4779570000000  0.4786010000000 1.0
C      1  0.4677350000000  0.6013540000000  0.4894650000000 1.0
C      1  0.4546420000000  0.5356520000000  0.4514110000000 1.0
C      1  0.3586410000000  0.4684670000000  0.4740850000000 1.0
C      1  0.3975460000000  0.5517370000000  0.5572220000000 1.0
C      1  0.6247720000000  0.4779260000000  0.5253860000000 1.0
C      1  0.4440190000000  0.5404980000000  0.5219460000000 1.0
C      1  0.4577820000000  0.5532210000000  0.4739800000000 1.0
C      1  0.5165770000000  0.4213820000000  0.5015890000000 1.0
C      1  0.3703270000000  0.4878640000000  0.4869810000000 1.0
C      1  0.5714370000000  0.6361670000000  0.4695100000000 1.0
C      1  0.5887940000000  0.5442630000000  0.4837570000000 1.0
C      1  0.4416540000000  0.4914310000000  0.4099770000000 1.0
C      1  0.4073470000000  0.5232040000000  0.4903030000000 1.0
C      1  0.5291920000000  0.5660250000000  0.5774980000000 1.0
C      1  0.3833430000000  0.5161930000000  0.5271970000000 1.0
C      1  0.6101790000000  0.4894060000000  0.5447610000000 1.0
C      1  0.4860840000000  0.4603140000000  0.3860050000000 1.0
C      1  0.4826960000000  0.4480100000000  0.5405350000000 1.0
C      1  0.6109760000000  0.5265740000000  0.4796360000000 1.0
C      1  0.5840270000000  0.4995220000000  0.5463330000000 1.0
C      1  0.4531080000000  0.4983820000000  0.5334920000000 1.0
C      1  0.5154200000000  0.5715210000000  0.4542050000000 1.0
C      1  0.5303230000000  0.6200920000000  0.4446550000000 1.0
C      1  0.6606450000000  0.5372390000000  0.4974850000000 1.0
C      1  0.4752970000000  0.4239410000000  0.4545080000000 1.0
C      1  0.4628470000000  0.5245960000000  0.5767220000000 1.0
C      1  0.4999970000000  0.5276420000000  0.4717720000000 1.0
C      1  0.4603320000000  0.3990640000000  0.5674100000000 1.0
END
