TITL C-612601-4209-1209 0.860352808000989 125000 -1124.98009813659 0 0 184 (C1) n - 1
REM
REM in /home/nfs/bkarasulu/CARBON/AIRSS/Generating-Clusters/TERSOFF/Only-C1/FIRE-HFTN
REM
REM
REM
REM
REM
REM ./C.cell (11c1c37f851c82e70ff6c80c92926a4b)
REM AIRSS Version 0.9.1 bugfix July 2018 build 013d7b7c2542+ Fri, 06 Jul 2018 19:26:36 +0100
REM compiler GCC version 9.2.1 20190827 (Red Hat 9.2.1-1)
REM options -cpp -mtune=generic -march=x86-64 -g -O0 -fpre-include=/usr/include/finclude/math-vector-fortran.h
REM seed 164647733 -1931495732 -2107777677 2119432768 2074076719 -458811978 336413631 34091900 1033397197 -1644941725 320579998 1760081904 1872180168 657978341 1160479627 166514642 1965767431 -1137768791 -1492310162 -1341519101 -681456816 2052282947 -1062067991 947249802 1990578803 1170040057 1496542724 1414968952 -1565736758 -1826962749 1598469151 -63284613 -876791960
REM
CELL 1.54180   50.00000   50.00000   50.00000   90.00000   90.00000   90.00000
LATT -1
SFAC C  
C      1  0.5952360000000  0.5955120000000  0.5198480000000 1.0
C      1  0.4468600000000  0.3774610000000  0.4885100000000 1.0
C      1  0.3900460000000  0.5093920000000  0.5440670000000 1.0
C      1  0.4821870000000  0.5546570000000  0.5999230000000 1.0
C      1  0.5433620000000  0.5100350000000  0.4123040000000 1.0
C      1  0.5532800000000  0.6414960000000  0.5483920000000 1.0
C      1  0.4391890000000  0.5309990000000  0.5893490000000 1.0
C      1  0.5384140000000  0.4590650000000  0.4126510000000 1.0
C      1  0.5424750000000  0.4821920000000  0.4791390000000 1.0
C      1  0.6131410000000  0.4279940000000  0.5423920000000 1.0
C      1  0.4516380000000  0.5390280000000  0.4650770000000 1.0
C      1  0.4442780000000  0.5742960000000  0.5729320000000 1.0
C      1  0.5947510000000  0.4343890000000  0.5611400000000 1.0
C      1  0.4159290000000  0.5497220000000  0.4983540000000 1.0
C      1  0.4116700000000  0.5334930000000  0.5829840000000 1.0
C      1  0.4521670000000  0.5074420000000  0.5808390000000 1.0
C      1  0.4531000000000  0.5927110000000  0.5306810000000 1.0
C      1  0.5298480000000  0.4217300000000  0.5012070000000 1.0
C      1  0.5153350000000  0.5520950000000  0.3718720000000 1.0
C      1  0.5094410000000  0.5514690000000  0.5983620000000 1.0
C      1  0.5472220000000  0.4627020000000  0.6074110000000 1.0
C      1  0.4901880000000  0.6124150000000  0.5523010000000 1.0
C      1  0.5637190000000  0.5333210000000  0.6297640000000 1.0
C      1  0.5054240000000  0.3405890000000  0.5450540000000 1.0
C      1  0.5768790000000  0.5719710000000  0.4463930000000 1.0
C      1  0.5219640000000  0.4634590000000  0.4723380000000 1.0
C      1  0.4149800000000  0.4442380000000  0.5189000000000 1.0
C      1  0.5463070000000  0.5101320000000  0.6250130000000 1.0
C      1  0.4402390000000  0.5023170000000  0.4092840000000 1.0
C      1  0.4541530000000  0.5552960000000  0.5920770000000 1.0
C      1  0.5065710000000  0.4862210000000  0.3911730000000 1.0
C      1  0.5015450000000  0.5476140000000  0.4533140000000 1.0
C      1  0.6004690000000  0.4466100000000  0.4689110000000 1.0
C      1  0.5805460000000  0.5740330000000  0.5936620000000 1.0
C      1  0.5775190000000  0.4780660000000  0.4367200000000 1.0
C      1  0.5202200000000  0.6091940000000  0.5033620000000 1.0
C      1  0.5077410000000  0.5830050000000  0.4180660000000 1.0
C      1  0.6301610000000  0.5419050000000  0.4757530000000 1.0
C      1  0.4634080000000  0.4728530000000  0.5513950000000 1.0
C      1  0.4130660000000  0.5052280000000  0.4028830000000 1.0
C      1  0.4393230000000  0.5454040000000  0.4401840000000 1.0
C      1  0.5562590000000  0.5345440000000  0.4194120000000 1.0
C      1  0.5050660000000  0.4073360000000  0.5128530000000 1.0
C      1  0.5729310000000  0.5354850000000  0.6563760000000 1.0
C      1  0.5706010000000  0.4047410000000  0.4497680000000 1.0
C      1  0.5734190000000  0.5546890000000  0.6119990000000 1.0
C      1  0.5850460000000  0.5291280000000  0.4903490000000 1.0
C      1  0.5564410000000  0.5358910000000  0.5708500000000 1.0
C      1  0.5598820000000  0.5405180000000  0.4992770000000 1.0
C      1  0.5699360000000  0.4477770000000  0.5584660000000 1.0
C      1  0.5050890000000  0.4147910000000  0.4561730000000 1.0
C      1  0.4862270000000  0.5440030000000  0.4962380000000 1.0
C      1  0.5901720000000  0.5391830000000  0.7058930000000 1.0
C      1  0.5028530000000  0.5346930000000  0.3893420000000 1.0
C      1  0.4752050000000  0.4651280000000  0.4573890000000 1.0
C      1  0.3670270000000  0.6196860000000  0.4566830000000 1.0
C      1  0.4971730000000  0.4778880000000  0.4707710000000 1.0
C      1  0.3915450000000  0.5341460000000  0.4927490000000 1.0
C      1  0.4820810000000  0.4584120000000  0.5644120000000 1.0
C      1  0.5052910000000  0.4689200000000  0.5724580000000 1.0
C      1  0.4633130000000  0.5544410000000  0.4159060000000 1.0
C      1  0.5844000000000  0.5892380000000  0.5710250000000 1.0
C      1  0.4938310000000  0.5985570000000  0.5075290000000 1.0
C      1  0.4155300000000  0.4380890000000  0.5472130000000 1.0
C      1  0.5100490000000  0.5165840000000  0.5603740000000 1.0
C      1  0.3940640000000  0.5300100000000  0.5629220000000 1.0
C      1  0.5816440000000  0.6013050000000  0.5446070000000 1.0
C      1  0.4685350000000  0.5192500000000  0.5336080000000 1.0
C      1  0.4143060000000  0.4354060000000  0.4536850000000 1.0
C      1  0.5658930000000  0.5097820000000  0.5772990000000 1.0
C      1  0.4848800000000  0.5187420000000  0.5093610000000 1.0
C      1  0.5558030000000  0.3906340000000  0.4697510000000 1.0
C      1  0.3875290000000  0.4749450000000  0.4467500000000 1.0
C      1  0.4812970000000  0.5765730000000  0.4205380000000 1.0
C      1  0.5195010000000  0.4343400000000  0.4740090000000 1.0
C      1  0.4761900000000  0.6087160000000  0.5274660000000 1.0
C      1  0.4582370000000  0.5288390000000  0.3719580000000 1.0
C      1  0.5700350000000  0.5453810000000  0.5471130000000 1.0
C      1  0.5260460000000  0.5557370000000  0.4649670000000 1.0
C      1  0.5311710000000  0.3781830000000  0.4608670000000 1.0
C      1  0.4001840000000  0.4657540000000  0.5088810000000 1.0
C      1  0.4519780000000  0.4839300000000  0.5979750000000 1.0
C      1  0.4313010000000  0.5014540000000  0.4943080000000 1.0
C      1  0.5679620000000  0.4817490000000  0.4920080000000 1.0
C      1  0.4596880000000  0.5709490000000  0.5487080000000 1.0
C      1  0.3835950000000  0.4997600000000  0.4564140000000 1.0
C      1  0.3894070000000  0.5134960000000  0.5146990000000 1.0
C      1  0.4873380000000  0.3946170000000  0.4684950000000 1.0
C      1  0.4127540000000  0.4568380000000  0.4088360000000 1.0
C      1  0.5345270000000  0.5779550000000  0.4185940000000 1.0
C      1  0.4430590000000  0.4590490000000  0.3710440000000 1.0
C      1  0.3816000000000  0.6069310000000  0.4741340000000 1.0
C      1  0.5344270000000  0.5468210000000  0.5874010000000 1.0
C      1  0.5178970000000  0.5114410000000  0.3975150000000 1.0
C      1  0.5574850000000  0.6161850000000  0.5392670000000 1.0
C      1  0.4335730000000  0.4403120000000  0.4732480000000 1.0
C      1  0.4790400000000  0.5425900000000  0.4689340000000 1.0
C      1  0.5816220000000  0.5373540000000  0.6813330000000 1.0
C      1  0.4877800000000  0.4530300000000  0.5177200000000 1.0
C      1  0.4518270000000  0.5075150000000  0.3571290000000 1.0
C      1  0.5569070000000  0.4625520000000  0.5796460000000 1.0
C      1  0.4819220000000  0.4249610000000  0.5156340000000 1.0
C      1  0.5084970000000  0.5419260000000  0.5520070000000 1.0
C      1  0.5368550000000  0.5740060000000  0.5302890000000 1.0
C      1  0.4455490000000  0.3900260000000  0.5141820000000 1.0
C      1  0.5774940000000  0.4608900000000  0.5086670000000 1.0
C      1  0.5107100000000  0.4611700000000  0.4036980000000 1.0
C      1  0.6035990000000  0.5472710000000  0.4787670000000 1.0
C      1  0.4874250000000  0.4444790000000  0.4075630000000 1.0
C      1  0.4898240000000  0.4942370000000  0.4947510000000 1.0
C      1  0.4014210000000  0.4803680000000  0.3964310000000 1.0
C      1  0.4337220000000  0.4326850000000  0.5007380000000 1.0
C      1  0.5147800000000  0.4609310000000  0.5243270000000 1.0
C      1  0.5053230000000  0.5918530000000  0.5619790000000 1.0
C      1  0.4625440000000  0.4986060000000  0.4227100000000 1.0
C      1  0.4361820000000  0.5304110000000  0.4879440000000 1.0
C      1  0.5851160000000  0.4511860000000  0.4452060000000 1.0
C      1  0.3970720000000  0.4832310000000  0.5553620000000 1.0
C      1  0.5208220000000  0.3962730000000  0.4395280000000 1.0
C      1  0.4498690000000  0.4628950000000  0.4693310000000 1.0
C      1  0.5349290000000  0.5091480000000  0.4735540000000 1.0
C      1  0.6216990000000  0.5325430000000  0.5558340000000 1.0
C      1  0.4475930000000  0.4811260000000  0.3566630000000 1.0
C      1  0.5026300000000  0.4831580000000  0.6211160000000 1.0
C      1  0.6466260000000  0.5392470000000  0.5472760000000 1.0
C      1  0.5064460000000  0.3790410000000  0.5075930000000 1.0
C      1  0.4556970000000  0.4057360000000  0.4143510000000 1.0
C      1  0.4309410000000  0.4657000000000  0.5885030000000 1.0
C      1  0.4599360000000  0.5007320000000  0.5536420000000 1.0
C      1  0.5926590000000  0.5052910000000  0.5846310000000 1.0
C      1  0.5554520000000  0.5535430000000  0.5242760000000 1.0
C      1  0.4101410000000  0.5379740000000  0.4401000000000 1.0
C      1  0.5319500000000  0.4848870000000  0.6202160000000 1.0
C      1  0.5981620000000  0.5439150000000  0.5454880000000 1.0
C      1  0.6153320000000  0.4321720000000  0.5158090000000 1.0
C      1  0.4604320000000  0.4335060000000  0.4082950000000 1.0
C      1  0.3964470000000  0.5934310000000  0.4914290000000 1.0
C      1  0.4913090000000  0.5704110000000  0.5039080000000 1.0
C      1  0.5207750000000  0.4921330000000  0.5687300000000 1.0
C      1  0.5258590000000  0.3949460000000  0.4122720000000 1.0
C      1  0.5574480000000  0.5622570000000  0.4268650000000 1.0
C      1  0.4601700000000  0.3879480000000  0.4651990000000 1.0
C      1  0.4194550000000  0.5852200000000  0.5605060000000 1.0
C      1  0.4057090000000  0.4925640000000  0.5037600000000 1.0
C      1  0.5227670000000  0.4871110000000  0.5249300000000 1.0
C      1  0.5389730000000  0.6016660000000  0.5234340000000 1.0
C      1  0.4380500000000  0.4481610000000  0.3968800000000 1.0
C      1  0.5933170000000  0.5911210000000  0.4929730000000 1.0
C      1  0.4570980000000  0.3877810000000  0.3935600000000 1.0
C      1  0.5892880000000  0.4982530000000  0.4528230000000 1.0
C      1  0.5486540000000  0.4887940000000  0.5713500000000 1.0
C      1  0.4487750000000  0.4795700000000  0.4924310000000 1.0
C      1  0.5710470000000  0.4289230000000  0.4346000000000 1.0
C      1  0.6167200000000  0.5134870000000  0.5759810000000 1.0
C      1  0.4739340000000  0.5385420000000  0.3933420000000 1.0
C      1  0.5324580000000  0.5829540000000  0.4654790000000 1.0
C      1  0.4551610000000  0.4169480000000  0.5108930000000 1.0
C      1  0.4852560000000  0.5044460000000  0.4337980000000 1.0
C      1  0.5162770000000  0.5687550000000  0.5492450000000 1.0
C      1  0.4029170000000  0.4535350000000  0.4355730000000 1.0
C      1  0.5615800000000  0.4502500000000  0.5304080000000 1.0
C      1  0.5393310000000  0.5360470000000  0.4801390000000 1.0
C      1  0.4498700000000  0.3956710000000  0.4401600000000 1.0
C      1  0.5064980000000  0.3591190000000  0.5267640000000 1.0
C      1  0.4760020000000  0.4809600000000  0.6142790000000 1.0
C      1  0.4238950000000  0.5897300000000  0.5308590000000 1.0
C      1  0.5418810000000  0.4122980000000  0.3994000000000 1.0
C      1  0.4134460000000  0.4611980000000  0.5653000000000 1.0
C      1  0.5993480000000  0.4460090000000  0.4972430000000 1.0
C      1  0.5527990000000  0.4035620000000  0.4948850000000 1.0
C      1  0.4125210000000  0.5769790000000  0.5076560000000 1.0
C      1  0.5850050000000  0.5022760000000  0.4807840000000 1.0
C      1  0.5295920000000  0.6068770000000  0.4770590000000 1.0
C      1  0.3930320000000  0.5264050000000  0.4629180000000 1.0
C      1  0.4198560000000  0.4102410000000  0.5522640000000 1.0
C      1  0.5525750000000  0.4342880000000  0.4132860000000 1.0
C      1  0.4721690000000  0.4747470000000  0.5076940000000 1.0
C      1  0.5536920000000  0.4832030000000  0.4201500000000 1.0
C      1  0.4296490000000  0.3890170000000  0.5378370000000 1.0
C      1  0.4607750000000  0.5453050000000  0.5391650000000 1.0
C      1  0.5357640000000  0.4423110000000  0.5219040000000 1.0
C      1  0.5076120000000  0.3750390000000  0.4791960000000 1.0
C      1  0.5920060000000  0.5724580000000  0.4712000000000 1.0
C      1  0.4014440000000  0.5281790000000  0.4143520000000 1.0
END
