TITL C-612607-4507-914 14.9374534706763 125000 -559.326472836231 0 0 94 (C1) n - 1
REM
REM in /home/nfs/bkarasulu/CARBON/AIRSS/Generating-Clusters/TERSOFF/Only-C1/FIRE-HFTN
REM
REM
REM
REM
REM
REM ./C.cell (11c1c37f851c82e70ff6c80c92926a4b)
REM AIRSS Version 0.9.1 bugfix July 2018 build 013d7b7c2542+ Fri, 06 Jul 2018 19:26:36 +0100
REM compiler GCC version 9.2.1 20190827 (Red Hat 9.2.1-1)
REM options -cpp -mtune=generic -march=x86-64 -g -O0 -fpre-include=/usr/include/finclude/math-vector-fortran.h
REM seed 1833030196 427652070 -1111064782 88726304 350921995 765253179 2058489584 1271387277 -1795529126 -450202696 -1280784310 219477818 -804147800 -1603093470 1372203670 -908711281 -312709314 -806635769 -109886820 -1267165318 1708233327 405520644 -847416931 648900984 -1530764008 -1506420652 -272716613 425997031 -164559209 1912687246 1491249967 -1471305061 417020421
REM
CELL 1.54180   50.00000   50.00000   50.00000   90.00000   90.00000   90.00000
LATT -1
SFAC C  
C      1  0.5046270000000  0.5259210000000  0.5914500000000 1.0
C      1  0.3455750000000  0.5060130000000  0.6151990000000 1.0
C      1  0.4210990000000  0.5509440000000  0.5182160000000 1.0
C      1  0.5322220000000  0.5377720000000  0.5196960000000 1.0
C      1  0.4978140000000  0.5719780000000  0.4603030000000 1.0
C      1  0.4502060000000  0.4063200000000  0.4332840000000 1.0
C      1  0.4451580000000  0.4247450000000  0.5047130000000 1.0
C      1  0.5508980000000  0.4448880000000  0.5657450000000 1.0
C      1  0.4400090000000  0.5551930000000  0.5372250000000 1.0
C      1  0.5934900000000  0.4656740000000  0.5223730000000 1.0
C      1  0.4966010000000  0.4173310000000  0.5212300000000 1.0
C      1  0.4852180000000  0.4892460000000  0.5752660000000 1.0
C      1  0.6261660000000  0.5546430000000  0.3273840000000 1.0
C      1  0.4273190000000  0.5795900000000  0.4804390000000 1.0
C      1  0.4355140000000  0.4323310000000  0.4786500000000 1.0
C      1  0.4748620000000  0.4962210000000  0.5120950000000 1.0
C      1  0.5406450000000  0.4301130000000  0.5436220000000 1.0
C      1  0.5581760000000  0.4954380000000  0.4559270000000 1.0
C      1  0.5141670000000  0.4073580000000  0.4528900000000 1.0
C      1  0.4380510000000  0.5405060000000  0.4438840000000 1.0
C      1  0.4150360000000  0.4583080000000  0.5665400000000 1.0
C      1  0.5609300000000  0.5434850000000  0.3711780000000 1.0
C      1  0.6943100000000  0.5661430000000  0.2889510000000 1.0
C      1  0.4846700000000  0.5142620000000  0.5307850000000 1.0
C      1  0.4682060000000  0.5564390000000  0.4897450000000 1.0
C      1  0.3941000000000  0.4480870000000  0.4583360000000 1.0
C      1  0.4145770000000  0.4825780000000  0.5808960000000 1.0
C      1  0.5007150000000  0.4209420000000  0.5687490000000 1.0
C      1  0.4667710000000  0.5553860000000  0.5469480000000 1.0
C      1  0.5071910000000  0.5326410000000  0.4303570000000 1.0
C      1  0.4887430000000  0.4986550000000  0.4642700000000 1.0
C      1  0.5416320000000  0.5139070000000  0.5320900000000 1.0
C      1  0.4161230000000  0.4532150000000  0.4738310000000 1.0
C      1  0.5299720000000  0.4565130000000  0.4632910000000 1.0
C      1  0.5025790000000  0.5081980000000  0.4434750000000 1.0
C      1  0.5707130000000  0.4527390000000  0.5097630000000 1.0
C      1  0.3679180000000  0.4983760000000  0.6041490000000 1.0
C      1  0.6718370000000  0.5623500000000  0.3016090000000 1.0
C      1  0.3906220000000  0.4906140000000  0.5929140000000 1.0
C      1  0.5104180000000  0.5036540000000  0.5738990000000 1.0
C      1  0.4901330000000  0.5537770000000  0.4387260000000 1.0
C      1  0.5599250000000  0.4679010000000  0.5763650000000 1.0
C      1  0.5815220000000  0.5471140000000  0.3549010000000 1.0
C      1  0.4451950000000  0.4183550000000  0.4563510000000 1.0
C      1  0.4788530000000  0.4631730000000  0.5675300000000 1.0
C      1  0.5466160000000  0.4766720000000  0.4731060000000 1.0
C      1  0.5607950000000  0.4986590000000  0.5177740000000 1.0
C      1  0.5196860000000  0.4330050000000  0.4566890000000 1.0
C      1  0.5550840000000  0.4758870000000  0.4998980000000 1.0
C      1  0.4578320000000  0.5303690000000  0.4844690000000 1.0
C      1  0.4312420000000  0.4782080000000  0.5112880000000 1.0
C      1  0.4169550000000  0.5044030000000  0.4736830000000 1.0
C      1  0.4974020000000  0.5592980000000  0.4877290000000 1.0
C      1  0.6035030000000  0.5508240000000  0.3405730000000 1.0
C      1  0.4869920000000  0.5422930000000  0.5312880000000 1.0
C      1  0.6111870000000  0.5432080000000  0.4210320000000 1.0
C      1  0.4179040000000  0.5538050000000  0.4896650000000 1.0
C      1  0.4178110000000  0.4386520000000  0.5486160000000 1.0
C      1  0.5080480000000  0.5508520000000  0.5130730000000 1.0
C      1  0.5877140000000  0.4924200000000  0.5271310000000 1.0
C      1  0.4769050000000  0.5928650000000  0.4639550000000 1.0
C      1  0.4725780000000  0.4184060000000  0.5091320000000 1.0
C      1  0.5567180000000  0.4958360000000  0.5750490000000 1.0
C      1  0.5257630000000  0.5357920000000  0.4099580000000 1.0
C      1  0.5747950000000  0.5119190000000  0.4435120000000 1.0
C      1  0.4554320000000  0.5816250000000  0.4798210000000 1.0
C      1  0.5567420000000  0.4310270000000  0.5205030000000 1.0
C      1  0.4675740000000  0.4344060000000  0.6328910000000 1.0
C      1  0.4618240000000  0.5496600000000  0.4339310000000 1.0
C      1  0.6489880000000  0.5584930000000  0.3144780000000 1.0
C      1  0.5211630000000  0.5768950000000  0.5870140000000 1.0
C      1  0.4853780000000  0.4400210000000  0.5824050000000 1.0
C      1  0.5107750000000  0.3815590000000  0.4512710000000 1.0
C      1  0.4768000000000  0.4363640000000  0.6085980000000 1.0
C      1  0.5343400000000  0.5040600000000  0.5586560000000 1.0
C      1  0.4948510000000  0.5770450000000  0.5810890000000 1.0
C      1  0.4654700000000  0.4613120000000  0.5431080000000 1.0
C      1  0.5443680000000  0.5642220000000  0.5917610000000 1.0
C      1  0.4637490000000  0.5077910000000  0.5835120000000 1.0
C      1  0.4743920000000  0.5583600000000  0.5744450000000 1.0
C      1  0.5136680000000  0.4206730000000  0.5436520000000 1.0
C      1  0.6285270000000  0.5584970000000  0.4089820000000 1.0
C      1  0.5932110000000  0.5276160000000  0.4327100000000 1.0
C      1  0.5676240000000  0.5174690000000  0.5895110000000 1.0
C      1  0.4570370000000  0.4768470000000  0.5216830000000 1.0
C      1  0.5423070000000  0.5397470000000  0.3896550000000 1.0
C      1  0.4300130000000  0.5311270000000  0.4721270000000 1.0
C      1  0.4194830000000  0.4788660000000  0.4858290000000 1.0
C      1  0.4544460000000  0.3950000000000  0.4101870000000 1.0
C      1  0.5610580000000  0.5432790000000  0.5938160000000 1.0
C      1  0.4730850000000  0.5065030000000  0.4859740000000 1.0
C      1  0.4765400000000  0.5337290000000  0.5888760000000 1.0
C      1  0.4372480000000  0.4990950000000  0.5835690000000 1.0
C      1  0.4278720000000  0.4263010000000  0.5270860000000 1.0
END
