TITL C-612606-7351-1306 3.13110983871695e-05 125000 -735.500462570242 0 0 120 (C1) n - 1
REM
REM in /home/nfs/bkarasulu/CARBON/AIRSS/Generating-Clusters/TERSOFF/Only-C1/FIRE-HFTN
REM
REM
REM
REM
REM
REM ./C.cell (11c1c37f851c82e70ff6c80c92926a4b)
REM AIRSS Version 0.9.1 bugfix July 2018 build 013d7b7c2542+ Fri, 06 Jul 2018 19:26:36 +0100
REM compiler GCC version 9.2.1 20190827 (Red Hat 9.2.1-1)
REM options -cpp -mtune=generic -march=x86-64 -g -O0 -fpre-include=/usr/include/finclude/math-vector-fortran.h
REM seed -77608028 1028240010 -1453837977 831881228 746947389 -685032302 -1384490769 -519219109 1676393143 -662660828 -212575561 -1109147681 546813115 303560591 -253970766 -631061016 428005329 -1289481989 -2034037610 -1188508861 297696090 708098276 -314719602 -778281893 266539164 -655593066 -251577737 -870665495 541157539 -1000479602 -1701031918 -2136457406 -1192569849
REM
CELL 1.54180   50.00000   50.00000   50.00000   90.00000   90.00000   90.00000
LATT -1
SFAC C  
C      1  0.5319050000000  0.5818680000000  0.5647680000000 1.0
C      1  0.4221350000000  0.4847650000000  0.5584090000000 1.0
C      1  0.4768800000000  0.4343260000000  0.4138670000000 1.0
C      1  0.6081790000000  0.5245890000000  0.5241030000000 1.0
C      1  0.5252960000000  0.4745360000000  0.6066110000000 1.0
C      1  0.5345360000000  0.4978790000000  0.4903630000000 1.0
C      1  0.4922810000000  0.4903420000000  0.4572110000000 1.0
C      1  0.4163040000000  0.4957260000000  0.5046990000000 1.0
C      1  0.4320650000000  0.5358070000000  0.4295480000000 1.0
C      1  0.4794510000000  0.5998540000000  0.5221850000000 1.0
C      1  0.5609950000000  0.4574810000000  0.4817070000000 1.0
C      1  0.5094580000000  0.4249450000000  0.5381210000000 1.0
C      1  0.4219900000000  0.5807700000000  0.4847990000000 1.0
C      1  0.4692900000000  0.5066290000000  0.4184500000000 1.0
C      1  0.5253360000000  0.4884670000000  0.5404290000000 1.0
C      1  0.4266070000000  0.4862160000000  0.4326510000000 1.0
C      1  0.5220580000000  0.5952220000000  0.4750840000000 1.0
C      1  0.5784250000000  0.4674010000000  0.5272360000000 1.0
C      1  0.5657530000000  0.4488440000000  0.5457150000000 1.0
C      1  0.4685630000000  0.4423970000000  0.4650160000000 1.0
C      1  0.4919350000000  0.4180180000000  0.4286980000000 1.0
C      1  0.5537460000000  0.4840080000000  0.4741380000000 1.0
C      1  0.5301800000000  0.5275470000000  0.4054800000000 1.0
C      1  0.4841930000000  0.4522880000000  0.5059710000000 1.0
C      1  0.5334760000000  0.4992050000000  0.5658340000000 1.0
C      1  0.5430790000000  0.5782760000000  0.4637610000000 1.0
C      1  0.5703080000000  0.5046080000000  0.4624300000000 1.0
C      1  0.5169710000000  0.4322830000000  0.4723850000000 1.0
C      1  0.4132430000000  0.5567210000000  0.4704410000000 1.0
C      1  0.4609610000000  0.4205080000000  0.5573640000000 1.0
C      1  0.4954790000000  0.6071330000000  0.4771460000000 1.0
C      1  0.4905650000000  0.6283460000000  0.4600570000000 1.0
C      1  0.4371110000000  0.4816330000000  0.5150530000000 1.0
C      1  0.5512970000000  0.4343550000000  0.4262460000000 1.0
C      1  0.4668340000000  0.5114850000000  0.4900080000000 1.0
C      1  0.5004550000000  0.4492860000000  0.5275110000000 1.0
C      1  0.5070570000000  0.4842060000000  0.3973360000000 1.0
C      1  0.4990770000000  0.5295930000000  0.5485060000000 1.0
C      1  0.5305520000000  0.5626540000000  0.5135960000000 1.0
C      1  0.4565100000000  0.4006440000000  0.5119660000000 1.0
C      1  0.4539140000000  0.4669640000000  0.4745800000000 1.0
C      1  0.4796930000000  0.4826600000000  0.4057230000000 1.0
C      1  0.4724850000000  0.5218460000000  0.5560490000000 1.0
C      1  0.4461170000000  0.5345900000000  0.5483720000000 1.0
C      1  0.4382550000000  0.4346770000000  0.5427940000000 1.0
C      1  0.4002910000000  0.5316230000000  0.4760220000000 1.0
C      1  0.4456470000000  0.5566340000000  0.5692090000000 1.0
C      1  0.4927030000000  0.5546450000000  0.3880890000000 1.0
C      1  0.4456050000000  0.5946840000000  0.4885430000000 1.0
C      1  0.4904360000000  0.5243630000000  0.4277010000000 1.0
C      1  0.4640000000000  0.4589300000000  0.4098340000000 1.0
C      1  0.4917980000000  0.3920560000000  0.4698350000000 1.0
C      1  0.4828260000000  0.4298190000000  0.5758500000000 1.0
C      1  0.5821950000000  0.5915060000000  0.5778820000000 1.0
C      1  0.4261000000000  0.4581990000000  0.5538510000000 1.0
C      1  0.4924570000000  0.5560310000000  0.5935150000000 1.0
C      1  0.6190830000000  0.5619800000000  0.5580710000000 1.0
C      1  0.5462500000000  0.5367370000000  0.4288020000000 1.0
C      1  0.5038040000000  0.5375430000000  0.4059950000000 1.0
C      1  0.5114260000000  0.4105250000000  0.4515400000000 1.0
C      1  0.4734770000000  0.6000050000000  0.4951920000000 1.0
C      1  0.6055410000000  0.5803940000000  0.5716600000000 1.0
C      1  0.5697610000000  0.4944830000000  0.5228170000000 1.0
C      1  0.4585560000000  0.4655810000000  0.5051670000000 1.0
C      1  0.5826140000000  0.5219790000000  0.4821870000000 1.0
C      1  0.5829900000000  0.4564230000000  0.5005790000000 1.0
C      1  0.4837450000000  0.4569430000000  0.5856310000000 1.0
C      1  0.5684410000000  0.5721170000000  0.4740550000000 1.0
C      1  0.4666460000000  0.3983210000000  0.4841680000000 1.0
C      1  0.5525990000000  0.4885390000000  0.4191680000000 1.0
C      1  0.5182990000000  0.5231270000000  0.5704190000000 1.0
C      1  0.5021740000000  0.5268320000000  0.5210360000000 1.0
C      1  0.4466440000000  0.5435590000000  0.5187590000000 1.0
C      1  0.4348150000000  0.4228570000000  0.5143850000000 1.0
C      1  0.5596630000000  0.4242050000000  0.5318960000000 1.0
C      1  0.4563320000000  0.5375890000000  0.4918700000000 1.0
C      1  0.5380420000000  0.4125520000000  0.4359280000000 1.0
C      1  0.4369640000000  0.4634470000000  0.4183490000000 1.0
C      1  0.4069510000000  0.5035800000000  0.4786430000000 1.0
C      1  0.4590070000000  0.5520280000000  0.4669860000000 1.0
C      1  0.4727940000000  0.5000020000000  0.5735690000000 1.0
C      1  0.4648100000000  0.5611890000000  0.5881900000000 1.0
C      1  0.4866540000000  0.5039980000000  0.5995840000000 1.0
C      1  0.5024830000000  0.5285380000000  0.5950710000000 1.0
C      1  0.5049570000000  0.5158120000000  0.4531830000000 1.0
C      1  0.5313830000000  0.4984630000000  0.4021530000000 1.0
C      1  0.4665750000000  0.3979680000000  0.5390130000000 1.0
C      1  0.5315840000000  0.5759340000000  0.5370140000000 1.0
C      1  0.5423930000000  0.4355420000000  0.4850060000000 1.0
C      1  0.5111180000000  0.5747170000000  0.5826250000000 1.0
C      1  0.4929390000000  0.4436970000000  0.4805350000000 1.0
C      1  0.4515850000000  0.4194750000000  0.4704630000000 1.0
C      1  0.4133990000000  0.4822700000000  0.4589190000000 1.0
C      1  0.4815650000000  0.4752520000000  0.5627620000000 1.0
C      1  0.5021160000000  0.4723810000000  0.5429720000000 1.0
C      1  0.5614280000000  0.5115780000000  0.4362490000000 1.0
C      1  0.5871700000000  0.5131440000000  0.5095300000000 1.0
C      1  0.4262440000000  0.5114550000000  0.5545140000000 1.0
C      1  0.5564420000000  0.4605840000000  0.4221060000000 1.0
C      1  0.5209950000000  0.5218730000000  0.4784570000000 1.0
C      1  0.4856720000000  0.5071690000000  0.5099840000000 1.0
C      1  0.5492230000000  0.4190520000000  0.5073650000000 1.0
C      1  0.5095180000000  0.4218170000000  0.5664710000000 1.0
C      1  0.4819420000000  0.5627390000000  0.4553040000000 1.0
C      1  0.5829430000000  0.5498820000000  0.4778310000000 1.0
C      1  0.5557470000000  0.5922160000000  0.5753220000000 1.0
C      1  0.5181540000000  0.5402870000000  0.5017490000000 1.0
C      1  0.5054270000000  0.5642520000000  0.4425950000000 1.0
C      1  0.4244410000000  0.4582590000000  0.4728100000000 1.0
C      1  0.5411960000000  0.4956330000000  0.5182670000000 1.0
C      1  0.4966250000000  0.4760320000000  0.6054400000000 1.0
C      1  0.5419840000000  0.4777640000000  0.5833800000000 1.0
C      1  0.4414880000000  0.5098940000000  0.4252350000000 1.0
C      1  0.4348240000000  0.5520390000000  0.4519120000000 1.0
C      1  0.5341010000000  0.4301230000000  0.5781640000000 1.0
C      1  0.4275320000000  0.4311240000000  0.4859580000000 1.0
C      1  0.5338880000000  0.5598870000000  0.4431350000000 1.0
C      1  0.5509510000000  0.4527120000000  0.5707860000000 1.0
C      1  0.4672580000000  0.4921100000000  0.4694360000000 1.0
C      1  0.6195720000000  0.5417050000000  0.5408960000000 1.0
END
