TITL C-612607-4507-1342 5.17120839734227e-05 125000 -357.868839125034 0 0 60 (C1) n - 1
REM
REM in /home/nfs/bkarasulu/CARBON/AIRSS/Generating-Clusters/TERSOFF/Only-C1/FIRE-HFTN
REM
REM
REM
REM
REM
REM ./C.cell (11c1c37f851c82e70ff6c80c92926a4b)
REM AIRSS Version 0.9.1 bugfix July 2018 build 013d7b7c2542+ Fri, 06 Jul 2018 19:26:36 +0100
REM compiler GCC version 9.2.1 20190827 (Red Hat 9.2.1-1)
REM options -cpp -mtune=generic -march=x86-64 -g -O0 -fpre-include=/usr/include/finclude/math-vector-fortran.h
REM seed 920700274 47145448 -1393475981 -2073543853 -688161313 321866473 -1478044548 -1791182911 -1408710813 1762428412 -2021686724 291384591 1676023837 -1596824383 -447640443 1835632441 367654355 -717347326 -68947081 1150762088 -265123211 -1299940748 -240412328 1088549419 1462222646 -1237199367 748779178 1047706794 700534903 109987801 -492251071 16807493 419455963
REM
CELL 1.54180   50.00000   50.00000   50.00000   90.00000   90.00000   90.00000
LATT -1
SFAC C  
C      1  0.4298820000000  0.5338950000000  0.4941490000000 1.0
C      1  0.4809790000000  0.4443840000000  0.4274610000000 1.0
C      1  0.4318900000000  0.4638720000000  0.5024830000000 1.0
C      1  0.5683640000000  0.5560160000000  0.5697690000000 1.0
C      1  0.4903790000000  0.4925880000000  0.5775280000000 1.0
C      1  0.5524070000000  0.5585120000000  0.5928860000000 1.0
C      1  0.4506340000000  0.5271490000000  0.4459210000000 1.0
C      1  0.4783040000000  0.4982750000000  0.4952270000000 1.0
C      1  0.5181280000000  0.5300060000000  0.4726570000000 1.0
C      1  0.5755910000000  0.5380840000000  0.5510810000000 1.0
C      1  0.5677990000000  0.5110830000000  0.5494760000000 1.0
C      1  0.5377560000000  0.5111290000000  0.5920440000000 1.0
C      1  0.4406890000000  0.5376830000000  0.4699860000000 1.0
C      1  0.5229230000000  0.5338840000000  0.4258020000000 1.0
C      1  0.5039360000000  0.5370690000000  0.4962060000000 1.0
C      1  0.4847450000000  0.5216520000000  0.5099550000000 1.0
C      1  0.4242700000000  0.4987090000000  0.5345280000000 1.0
C      1  0.4645860000000  0.4699540000000  0.5399330000000 1.0
C      1  0.3991340000000  0.5010180000000  0.5821580000000 1.0
C      1  0.5398460000000  0.4564980000000  0.4682490000000 1.0
C      1  0.4236790000000  0.5201690000000  0.5162070000000 1.0
C      1  0.4946060000000  0.4762440000000  0.4994460000000 1.0
C      1  0.4737520000000  0.5361900000000  0.4321000000000 1.0
C      1  0.4983540000000  0.4465340000000  0.4492740000000 1.0
C      1  0.5663510000000  0.5151550000000  0.4456860000000 1.0
C      1  0.4448660000000  0.4949370000000  0.4102390000000 1.0
C      1  0.5264280000000  0.5750490000000  0.4533680000000 1.0
C      1  0.4771320000000  0.4932200000000  0.5528050000000 1.0
C      1  0.4391520000000  0.4751980000000  0.5272560000000 1.0
C      1  0.5445900000000  0.5832330000000  0.6016580000000 1.0
C      1  0.5569440000000  0.5013950000000  0.5738040000000 1.0
C      1  0.4990890000000  0.4354910000000  0.4778870000000 1.0
C      1  0.4961390000000  0.5278620000000  0.4160450000000 1.0
C      1  0.4821280000000  0.4476290000000  0.5305860000000 1.0
C      1  0.5614100000000  0.4972130000000  0.5255380000000 1.0
C      1  0.4758210000000  0.4593410000000  0.4057610000000 1.0
C      1  0.5717800000000  0.5057820000000  0.4992530000000 1.0
C      1  0.5284700000000  0.4331690000000  0.4810540000000 1.0
C      1  0.4272590000000  0.4689780000000  0.4766630000000 1.0
C      1  0.5388470000000  0.4786650000000  0.5281830000000 1.0
C      1  0.4107220000000  0.5000300000000  0.5588370000000 1.0
C      1  0.5242960000000  0.5023760000000  0.4664090000000 1.0
C      1  0.5738160000000  0.5121860000000  0.4723690000000 1.0
C      1  0.5299460000000  0.4585450000000  0.5462820000000 1.0
C      1  0.5428780000000  0.5118200000000  0.4274570000000 1.0
C      1  0.4867310000000  0.4487090000000  0.5012090000000 1.0
C      1  0.5233700000000  0.4620460000000  0.4435090000000 1.0
C      1  0.4386330000000  0.5027270000000  0.4365770000000 1.0
C      1  0.5225630000000  0.5482430000000  0.4509240000000 1.0
C      1  0.5427570000000  0.5345630000000  0.6341270000000 1.0
C      1  0.5118900000000  0.5002850000000  0.5913400000000 1.0
C      1  0.5440470000000  0.5348020000000  0.6067510000000 1.0
C      1  0.5359490000000  0.4816610000000  0.4821880000000 1.0
C      1  0.4280600000000  0.4840740000000  0.4546990000000 1.0
C      1  0.4899420000000  0.5063890000000  0.3984380000000 1.0
C      1  0.4802410000000  0.5173900000000  0.5374900000000 1.0
C      1  0.5220540000000  0.4799540000000  0.5058810000000 1.0
C      1  0.5064620000000  0.4444090000000  0.5458020000000 1.0
C      1  0.5266820000000  0.4906010000000  0.4390810000000 1.0
C      1  0.4699210000000  0.4862730000000  0.4003190000000 1.0
END
