TITL C-612607-4507-1452 12.3307278581785 125000 -472.546890788579 0 0 78 (C1) n - 1
REM
REM in /home/nfs/bkarasulu/CARBON/AIRSS/Generating-Clusters/TERSOFF/Only-C1/FIRE-HFTN
REM
REM
REM
REM
REM
REM ./C.cell (11c1c37f851c82e70ff6c80c92926a4b)
REM AIRSS Version 0.9.1 bugfix July 2018 build 013d7b7c2542+ Fri, 06 Jul 2018 19:26:36 +0100
REM compiler GCC version 9.2.1 20190827 (Red Hat 9.2.1-1)
REM options -cpp -mtune=generic -march=x86-64 -g -O0 -fpre-include=/usr/include/finclude/math-vector-fortran.h
REM seed 1912665218 -1997867849 1609676725 1877649988 161809136 1305326730 1276683286 -429883128 -144425809 -313592631 678713603 -848196549 -1503016967 -434243044 -1574820530 -1747154527 -1019051514 1423983575 -1108612051 51730431 -1798575650 -116362997 -995993893 -1719215250 1176108346 303174362 1805015660 915322752 -155541156 1910806914 -605774232 -2137024093 1792863756
REM
CELL 1.54180   50.00000   50.00000   50.00000   90.00000   90.00000   90.00000
LATT -1
SFAC C  
C      1  0.4789680000000  0.5554880000000  0.5789850000000 1.0
C      1  0.4358490000000  0.5382720000000  0.5606660000000 1.0
C      1  0.5207810000000  0.4324000000000  0.5046380000000 1.0
C      1  0.5011770000000  0.4470900000000  0.3800820000000 1.0
C      1  0.5076840000000  0.4778440000000  0.4244790000000 1.0
C      1  0.4139500000000  0.5314540000000  0.5164230000000 1.0
C      1  0.5055460000000  0.4287880000000  0.5280320000000 1.0
C      1  0.5830320000000  0.5047260000000  0.4943190000000 1.0
C      1  0.5478410000000  0.4679150000000  0.4832310000000 1.0
C      1  0.5255060000000  0.5198530000000  0.4992110000000 1.0
C      1  0.4737810000000  0.5499250000000  0.5276890000000 1.0
C      1  0.5809750000000  0.4971440000000  0.5405760000000 1.0
C      1  0.4496960000000  0.5926000000000  0.5216080000000 1.0
C      1  0.6228970000000  0.4864350000000  0.5170230000000 1.0
C      1  0.4021220000000  0.6053260000000  0.5109130000000 1.0
C      1  0.4865940000000  0.5094470000000  0.4795280000000 1.0
C      1  0.5709510000000  0.4836970000000  0.4795230000000 1.0
C      1  0.4269620000000  0.6067140000000  0.5208660000000 1.0
C      1  0.4572560000000  0.5257690000000  0.4313600000000 1.0
C      1  0.4947670000000  0.4166520000000  0.3371710000000 1.0
C      1  0.3925630000000  0.5182360000000  0.5570900000000 1.0
C      1  0.4778060000000  0.4446960000000  0.5701360000000 1.0
C      1  0.4979720000000  0.4318720000000  0.3586260000000 1.0
C      1  0.5648200000000  0.5406160000000  0.5258800000000 1.0
C      1  0.4848560000000  0.5213040000000  0.4331430000000 1.0
C      1  0.5440080000000  0.5314310000000  0.4803730000000 1.0
C      1  0.4143020000000  0.5294300000000  0.5446080000000 1.0
C      1  0.4960300000000  0.5284720000000  0.4593410000000 1.0
C      1  0.5440450000000  0.4494520000000  0.5049680000000 1.0
C      1  0.5383590000000  0.5517560000000  0.5332000000000 1.0
C      1  0.5318880000000  0.5208380000000  0.4300030000000 1.0
C      1  0.5114900000000  0.4653390000000  0.4500810000000 1.0
C      1  0.4540920000000  0.5611940000000  0.4854710000000 1.0
C      1  0.4977000000000  0.5083310000000  0.5490790000000 1.0
C      1  0.5058390000000  0.3650300000000  0.2881230000000 1.0
C      1  0.5180520000000  0.5377200000000  0.5189710000000 1.0
C      1  0.4334370000000  0.5458840000000  0.4736980000000 1.0
C      1  0.5049730000000  0.4384130000000  0.4561440000000 1.0
C      1  0.5807670000000  0.5306790000000  0.5965410000000 1.0
C      1  0.3901240000000  0.5625590000000  0.4883870000000 1.0
C      1  0.4106250000000  0.5433020000000  0.4908810000000 1.0
C      1  0.4578290000000  0.5363210000000  0.5784760000000 1.0
C      1  0.4865550000000  0.4435880000000  0.6385740000000 1.0
C      1  0.5268180000000  0.5329210000000  0.4563390000000 1.0
C      1  0.4672390000000  0.3901430000000  0.2760760000000 1.0
C      1  0.5372910000000  0.4656930000000  0.5881900000000 1.0
C      1  0.5370890000000  0.5296830000000  0.5734110000000 1.0
C      1  0.5113300000000  0.4981550000000  0.4883480000000 1.0
C      1  0.5656090000000  0.5282980000000  0.5741280000000 1.0
C      1  0.5395190000000  0.4821790000000  0.5656670000000 1.0
C      1  0.4605430000000  0.5117500000000  0.5922280000000 1.0
C      1  0.5236140000000  0.4782710000000  0.4725680000000 1.0
C      1  0.5605120000000  0.4776000000000  0.5464970000000 1.0
C      1  0.5043660000000  0.4622200000000  0.4015850000000 1.0
C      1  0.4949920000000  0.4528950000000  0.6143950000000 1.0
C      1  0.4642540000000  0.4854370000000  0.5950300000000 1.0
C      1  0.5099550000000  0.4254610000000  0.4793650000000 1.0
C      1  0.4915630000000  0.4014390000000  0.3157250000000 1.0
C      1  0.5227800000000  0.5056710000000  0.5644590000000 1.0
C      1  0.5220740000000  0.4558440000000  0.6076950000000 1.0
C      1  0.4381330000000  0.5343200000000  0.4484270000000 1.0
C      1  0.5757620000000  0.5242200000000  0.5477660000000 1.0
C      1  0.5972520000000  0.4954330000000  0.5173340000000 1.0
C      1  0.5570750000000  0.4558140000000  0.5289920000000 1.0
C      1  0.5036150000000  0.5640250000000  0.5715210000000 1.0
C      1  0.4768500000000  0.4603230000000  0.5936020000000 1.0
C      1  0.4790310000000  0.4888750000000  0.5405200000000 1.0
C      1  0.5282140000000  0.5543420000000  0.5611700000000 1.0
C      1  0.4881770000000  0.3853620000000  0.2930610000000 1.0
C      1  0.4897180000000  0.4334420000000  0.5490180000000 1.0
C      1  0.4636720000000  0.4881240000000  0.5182200000000 1.0
C      1  0.5074930000000  0.5064270000000  0.4221600000000 1.0
C      1  0.4947470000000  0.5324120000000  0.5332710000000 1.0
C      1  0.5686650000000  0.5303500000000  0.4969170000000 1.0
C      1  0.5548490000000  0.5226950000000  0.4156050000000 1.0
C      1  0.4610560000000  0.5689510000000  0.5116390000000 1.0
C      1  0.4645410000000  0.4994950000000  0.4936520000000 1.0
C      1  0.3871330000000  0.5877250000000  0.4973030000000 1.0
END
