TITL C-612601-4209-1301 0.216701305429865 125000 -834.521187300074 0 0 138 (C1) n - 1
REM
REM in /home/nfs/bkarasulu/CARBON/AIRSS/Generating-Clusters/TERSOFF/Only-C1/FIRE-HFTN
REM
REM
REM
REM
REM
REM ./C.cell (11c1c37f851c82e70ff6c80c92926a4b)
REM AIRSS Version 0.9.1 bugfix July 2018 build 013d7b7c2542+ Fri, 06 Jul 2018 19:26:36 +0100
REM compiler GCC version 9.2.1 20190827 (Red Hat 9.2.1-1)
REM options -cpp -mtune=generic -march=x86-64 -g -O0 -fpre-include=/usr/include/finclude/math-vector-fortran.h
REM seed 781445813 -1773356691 -94366961 -1722304879 223640004 -104397077 1893382695 -1013308356 1481909338 1575044998 -225045118 630264363 450055006 -1036508803 -10562887 -736684620 411845558 1152249035 -2048620664 -1410093145 1221158860 -1621638967 1920775830 257851037 117715676 411306875 -2140325389 -412464361 624825459 -424422886 -192012334 986904882 1965127304
REM
CELL 1.54180   50.00000   50.00000   50.00000   90.00000   90.00000   90.00000
LATT -1
SFAC C  
C      1  0.4859930000000  0.4318080000000  0.4601770000000 1.0
C      1  0.3915840000000  0.5307570000000  0.5456040000000 1.0
C      1  0.5202170000000  0.5424820000000  0.4671250000000 1.0
C      1  0.5754590000000  0.4905960000000  0.4784560000000 1.0
C      1  0.3837290000000  0.4837350000000  0.4881750000000 1.0
C      1  0.5708800000000  0.4321680000000  0.5268710000000 1.0
C      1  0.4839500000000  0.4605600000000  0.4578980000000 1.0
C      1  0.4492620000000  0.4714690000000  0.4122480000000 1.0
C      1  0.5165050000000  0.5245880000000  0.5441000000000 1.0
C      1  0.4219050000000  0.3938110000000  0.4913840000000 1.0
C      1  0.5870780000000  0.5314610000000  0.5377010000000 1.0
C      1  0.4223030000000  0.5560480000000  0.5225390000000 1.0
C      1  0.4289350000000  0.4036470000000  0.4658900000000 1.0
C      1  0.5584960000000  0.4257540000000  0.4077070000000 1.0
C      1  0.4715880000000  0.4582220000000  0.4035600000000 1.0
C      1  0.4159040000000  0.5341400000000  0.5626420000000 1.0
C      1  0.5101770000000  0.5164300000000  0.5868880000000 1.0
C      1  0.4638290000000  0.5762440000000  0.4482320000000 1.0
C      1  0.4508230000000  0.3972760000000  0.4494220000000 1.0
C      1  0.4918000000000  0.4684110000000  0.5928820000000 1.0
C      1  0.5647450000000  0.4557710000000  0.4456040000000 1.0
C      1  0.6518650000000  0.5817750000000  0.4410810000000 1.0
C      1  0.5153220000000  0.6104020000000  0.4886230000000 1.0
C      1  0.3817370000000  0.5394870000000  0.5208640000000 1.0
C      1  0.5438160000000  0.4065150000000  0.4943200000000 1.0
C      1  0.4298510000000  0.6038490000000  0.4264500000000 1.0
C      1  0.5242390000000  0.5543360000000  0.4915120000000 1.0
C      1  0.4678220000000  0.5214340000000  0.4278860000000 1.0
C      1  0.5986330000000  0.5805180000000  0.4489960000000 1.0
C      1  0.4052050000000  0.5197520000000  0.4611380000000 1.0
C      1  0.5162480000000  0.4848760000000  0.4233720000000 1.0
C      1  0.5635400000000  0.4808370000000  0.5369420000000 1.0
C      1  0.5503260000000  0.4563200000000  0.5252490000000 1.0
C      1  0.4627560000000  0.4753220000000  0.4707830000000 1.0
C      1  0.4728630000000  0.5479710000000  0.5386750000000 1.0
C      1  0.5159120000000  0.4884890000000  0.5934650000000 1.0
C      1  0.4555590000000  0.5685260000000  0.5501530000000 1.0
C      1  0.5673500000000  0.4044530000000  0.3946800000000 1.0
C      1  0.5513180000000  0.5767490000000  0.4287930000000 1.0
C      1  0.4185820000000  0.4512320000000  0.4796600000000 1.0
C      1  0.5600770000000  0.5961170000000  0.4739920000000 1.0
C      1  0.4785790000000  0.4980250000000  0.5504330000000 1.0
C      1  0.6042150000000  0.4622120000000  0.5435970000000 1.0
C      1  0.5503590000000  0.5568580000000  0.5009580000000 1.0
C      1  0.4361970000000  0.5832850000000  0.4433830000000 1.0
C      1  0.5430190000000  0.5232890000000  0.5394760000000 1.0
C      1  0.5236340000000  0.4596240000000  0.4116040000000 1.0
C      1  0.4341960000000  0.5332450000000  0.5103990000000 1.0
C      1  0.4714950000000  0.4138170000000  0.4437500000000 1.0
C      1  0.5690280000000  0.4785940000000  0.5836560000000 1.0
C      1  0.4286370000000  0.5587260000000  0.5508180000000 1.0
C      1  0.4663500000000  0.5252500000000  0.4555120000000 1.0
C      1  0.4976180000000  0.4187310000000  0.4827960000000 1.0
C      1  0.5524830000000  0.4277960000000  0.5774890000000 1.0
C      1  0.5822480000000  0.4735180000000  0.5588140000000 1.0
C      1  0.4784030000000  0.3868770000000  0.5197080000000 1.0
C      1  0.4776500000000  0.3940960000000  0.5467630000000 1.0
C      1  0.5669560000000  0.5094370000000  0.5361030000000 1.0
C      1  0.5134240000000  0.5699060000000  0.5371220000000 1.0
C      1  0.3925250000000  0.4584000000000  0.4877500000000 1.0
C      1  0.5576710000000  0.5092060000000  0.4903110000000 1.0
C      1  0.4193810000000  0.4199190000000  0.5370330000000 1.0
C      1  0.5868640000000  0.5836460000000  0.4750870000000 1.0
C      1  0.4379600000000  0.4845030000000  0.5115790000000 1.0
C      1  0.5896420000000  0.4187740000000  0.4848170000000 1.0
C      1  0.5760360000000  0.3834630000000  0.3818900000000 1.0
C      1  0.5509650000000  0.5572370000000  0.5661710000000 1.0
C      1  0.5784190000000  0.5482380000000  0.5602190000000 1.0
C      1  0.5049670000000  0.4960590000000  0.5091440000000 1.0
C      1  0.5120320000000  0.4281940000000  0.5400550000000 1.0
C      1  0.5803350000000  0.4642280000000  0.4693230000000 1.0
C      1  0.5301900000000  0.5321070000000  0.4058440000000 1.0
C      1  0.4682130000000  0.5580940000000  0.4908350000000 1.0
C      1  0.4200270000000  0.4299570000000  0.4619090000000 1.0
C      1  0.5519560000000  0.5811640000000  0.5181550000000 1.0
C      1  0.5240850000000  0.4839120000000  0.4693750000000 1.0
C      1  0.4135380000000  0.4790420000000  0.6028010000000 1.0
C      1  0.4842720000000  0.5790690000000  0.4990900000000 1.0
C      1  0.5000700000000  0.5473140000000  0.5463980000000 1.0
C      1  0.4980830000000  0.4107400000000  0.5568540000000 1.0
C      1  0.5314460000000  0.5389920000000  0.5831660000000 1.0
C      1  0.5674320000000  0.5349230000000  0.4969780000000 1.0
C      1  0.4381790000000  0.4218230000000  0.5580160000000 1.0
C      1  0.4629900000000  0.5959060000000  0.5451980000000 1.0
C      1  0.4894190000000  0.6074040000000  0.5032550000000 1.0
C      1  0.4411480000000  0.4666270000000  0.4882660000000 1.0
C      1  0.5403930000000  0.5751620000000  0.5445690000000 1.0
C      1  0.4532970000000  0.3978830000000  0.5602960000000 1.0
C      1  0.5986050000000  0.5680790000000  0.4972040000000 1.0
C      1  0.5485990000000  0.4478830000000  0.4220870000000 1.0
C      1  0.5225660000000  0.4248410000000  0.4945840000000 1.0
C      1  0.4152640000000  0.5683100000000  0.4564810000000 1.0
C      1  0.4771500000000  0.5089930000000  0.5031410000000 1.0
C      1  0.4755550000000  0.6130990000000  0.5277800000000 1.0
C      1  0.5063400000000  0.4423970000000  0.5936320000000 1.0
C      1  0.5383750000000  0.5570820000000  0.4127180000000 1.0
C      1  0.4836520000000  0.3979470000000  0.4959450000000 1.0
C      1  0.4610340000000  0.4918990000000  0.5266230000000 1.0
C      1  0.4000900000000  0.5475450000000  0.4689530000000 1.0
C      1  0.5035610000000  0.4659080000000  0.5095700000000 1.0
C      1  0.5339260000000  0.5285240000000  0.4500260000000 1.0
C      1  0.4687310000000  0.5035740000000  0.4744330000000 1.0
C      1  0.4657530000000  0.5523690000000  0.4637940000000 1.0
C      1  0.5918600000000  0.5432080000000  0.5111040000000 1.0
C      1  0.4822970000000  0.5148560000000  0.5752660000000 1.0
C      1  0.4851410000000  0.5172180000000  0.4080870000000 1.0
C      1  0.4021200000000  0.5045380000000  0.4852590000000 1.0
C      1  0.5955610000000  0.4471000000000  0.4878940000000 1.0
C      1  0.5664800000000  0.4220090000000  0.5550040000000 1.0
C      1  0.5349820000000  0.4456910000000  0.5909880000000 1.0
C      1  0.5299660000000  0.5001590000000  0.4918140000000 1.0
C      1  0.4645160000000  0.5366030000000  0.5109430000000 1.0
C      1  0.4967380000000  0.4181100000000  0.5839800000000 1.0
C      1  0.4579520000000  0.4688410000000  0.5843650000000 1.0
C      1  0.5694250000000  0.4118540000000  0.5039390000000 1.0
C      1  0.4223400000000  0.5078620000000  0.5048600000000 1.0
C      1  0.5079140000000  0.5681230000000  0.5089340000000 1.0
C      1  0.5408430000000  0.5921440000000  0.4510230000000 1.0
C      1  0.4591660000000  0.5274150000000  0.5850630000000 1.0
C      1  0.5044680000000  0.5008460000000  0.5381420000000 1.0
C      1  0.5798200000000  0.5770210000000  0.4281620000000 1.0
C      1  0.4882460000000  0.5923110000000  0.4479040000000 1.0
C      1  0.4352080000000  0.4883900000000  0.5882110000000 1.0
C      1  0.5972200000000  0.4488520000000  0.5185400000000 1.0
C      1  0.5225780000000  0.4449800000000  0.5175870000000 1.0
C      1  0.5123700000000  0.5101020000000  0.4100570000000 1.0
C      1  0.4156490000000  0.4042790000000  0.5154090000000 1.0
C      1  0.5063360000000  0.4771610000000  0.4494010000000 1.0
C      1  0.6260550000000  0.5812500000000  0.4446510000000 1.0
C      1  0.4160820000000  0.5057090000000  0.4385350000000 1.0
C      1  0.4303950000000  0.4875080000000  0.4239210000000 1.0
C      1  0.5137560000000  0.6004920000000  0.4594300000000 1.0
C      1  0.4978890000000  0.4501710000000  0.4012350000000 1.0
C      1  0.3853320000000  0.5489400000000  0.4948060000000 1.0
C      1  0.4333600000000  0.5165250000000  0.5789360000000 1.0
C      1  0.5440290000000  0.6026930000000  0.4984120000000 1.0
C      1  0.5419530000000  0.4739070000000  0.5918950000000 1.0
C      1  0.4485470000000  0.4450720000000  0.5707630000000 1.0
END
