TITL C-612601-4209-867 0.01662387264784 125000 -1182.82339966116 0 0 191 (C1) n - 1
REM
REM in /home/nfs/bkarasulu/CARBON/AIRSS/Generating-Clusters/TERSOFF/Only-C1/FIRE-HFTN
REM
REM
REM
REM
REM
REM ./C.cell (11c1c37f851c82e70ff6c80c92926a4b)
REM AIRSS Version 0.9.1 bugfix July 2018 build 013d7b7c2542+ Fri, 06 Jul 2018 19:26:36 +0100
REM compiler GCC version 9.2.1 20190827 (Red Hat 9.2.1-1)
REM options -cpp -mtune=generic -march=x86-64 -g -O0 -fpre-include=/usr/include/finclude/math-vector-fortran.h
REM seed 680264175 -1632918074 498974908 332693051 2127041213 -1270041272 359379429 -1849945180 -162106417 1706321897 1039252627 1040333295 1652286024 1406489494 -1673475035 -1938406266 -1012534559 -1665177816 -492885775 -724668961 610103542 1907988890 -450838536 1778610530 2080691838 138325427 -148556770 -1596195686 -659417543 -664559631 -38684977 1610486125 -257459121
REM
CELL 1.54180   50.00000   50.00000   50.00000   90.00000   90.00000   90.00000
LATT -1
SFAC C  
C      1  0.5677260000000  0.4758270000000  0.5356820000000 1.0
C      1  0.5060330000000  0.5181240000000  0.5137720000000 1.0
C      1  0.5375080000000  0.4395000000000  0.4006560000000 1.0
C      1  0.4586040000000  0.5593590000000  0.4692600000000 1.0
C      1  0.5920920000000  0.5107170000000  0.4462330000000 1.0
C      1  0.4197420000000  0.5686120000000  0.5457480000000 1.0
C      1  0.5552220000000  0.5469720000000  0.4606690000000 1.0
C      1  0.5014210000000  0.5135670000000  0.6010370000000 1.0
C      1  0.4910720000000  0.4003600000000  0.5884400000000 1.0
C      1  0.5163960000000  0.4795080000000  0.3692200000000 1.0
C      1  0.5424720000000  0.5323380000000  0.4067140000000 1.0
C      1  0.5445370000000  0.5029890000000  0.4703810000000 1.0
C      1  0.4855910000000  0.3893950000000  0.4575910000000 1.0
C      1  0.5429320000000  0.4584780000000  0.4829060000000 1.0
C      1  0.4972540000000  0.5944070000000  0.4930710000000 1.0
C      1  0.4618230000000  0.6144940000000  0.4682510000000 1.0
C      1  0.5023830000000  0.6083810000000  0.4441270000000 1.0
C      1  0.4286630000000  0.5058560000000  0.3848550000000 1.0
C      1  0.5315870000000  0.5120300000000  0.4241960000000 1.0
C      1  0.5075060000000  0.4240360000000  0.5353960000000 1.0
C      1  0.5854040000000  0.5206990000000  0.4199800000000 1.0
C      1  0.4480200000000  0.6127030000000  0.4942220000000 1.0
C      1  0.5329780000000  0.5162900000000  0.5132710000000 1.0
C      1  0.4874050000000  0.4929860000000  0.4804190000000 1.0
C      1  0.4784430000000  0.5787870000000  0.3874080000000 1.0
C      1  0.4615290000000  0.4911600000000  0.5855340000000 1.0
C      1  0.5916490000000  0.5776590000000  0.5187000000000 1.0
C      1  0.4464700000000  0.5558780000000  0.6077330000000 1.0
C      1  0.5811790000000  0.3985300000000  0.4781690000000 1.0
C      1  0.5376630000000  0.6250910000000  0.4886770000000 1.0
C      1  0.5893640000000  0.4617360000000  0.4369940000000 1.0
C      1  0.4551270000000  0.4565150000000  0.4588910000000 1.0
C      1  0.5156600000000  0.5510120000000  0.4837870000000 1.0
C      1  0.6079800000000  0.4508720000000  0.4859500000000 1.0
C      1  0.4395180000000  0.4283810000000  0.5470040000000 1.0
C      1  0.5179210000000  0.6316560000000  0.5070000000000 1.0
C      1  0.3862710000000  0.5066310000000  0.5247330000000 1.0
C      1  0.5308490000000  0.5790580000000  0.5715630000000 1.0
C      1  0.4479380000000  0.5337830000000  0.6240180000000 1.0
C      1  0.4977390000000  0.5029220000000  0.4559860000000 1.0
C      1  0.5095380000000  0.5325780000000  0.4587690000000 1.0
C      1  0.5832230000000  0.4160990000000  0.4563050000000 1.0
C      1  0.4807800000000  0.6126770000000  0.4238630000000 1.0
C      1  0.4324210000000  0.6044640000000  0.4301210000000 1.0
C      1  0.4652710000000  0.4690630000000  0.3898430000000 1.0
C      1  0.3921160000000  0.5081790000000  0.4219420000000 1.0
C      1  0.4955920000000  0.5453560000000  0.4355650000000 1.0
C      1  0.4378860000000  0.4541730000000  0.4807780000000 1.0
C      1  0.4225160000000  0.4618060000000  0.4227350000000 1.0
C      1  0.4625710000000  0.4050750000000  0.4646720000000 1.0
C      1  0.4217250000000  0.6018070000000  0.4936100000000 1.0
C      1  0.4269760000000  0.5783900000000  0.4338120000000 1.0
C      1  0.5465880000000  0.5530000000000  0.4885030000000 1.0
C      1  0.4244940000000  0.4268530000000  0.6138090000000 1.0
C      1  0.4409730000000  0.4325740000000  0.5944320000000 1.0
C      1  0.4501830000000  0.4506980000000  0.5057980000000 1.0
C      1  0.4843640000000  0.5168450000000  0.4956190000000 1.0
C      1  0.5276320000000  0.6010170000000  0.4321690000000 1.0
C      1  0.5109600000000  0.5614250000000  0.5853350000000 1.0
C      1  0.5806180000000  0.4775280000000  0.5114490000000 1.0
C      1  0.5315300000000  0.4261450000000  0.6033450000000 1.0
C      1  0.4650800000000  0.6136530000000  0.5192260000000 1.0
C      1  0.5578550000000  0.4788180000000  0.4693290000000 1.0
C      1  0.4690800000000  0.3915120000000  0.5395520000000 1.0
C      1  0.6068940000000  0.5232090000000  0.4669920000000 1.0
C      1  0.3869400000000  0.4939880000000  0.4985250000000 1.0
C      1  0.5096320000000  0.4637550000000  0.4291890000000 1.0
C      1  0.5972440000000  0.4415020000000  0.4584080000000 1.0
C      1  0.5535330000000  0.3783950000000  0.5182020000000 1.0
C      1  0.4586840000000  0.4297590000000  0.4202730000000 1.0
C      1  0.4360940000000  0.5409770000000  0.5065020000000 1.0
C      1  0.4540490000000  0.5090240000000  0.6342740000000 1.0
C      1  0.5112120000000  0.4918450000000  0.4322870000000 1.0
C      1  0.4723910000000  0.5388910000000  0.4810050000000 1.0
C      1  0.5058810000000  0.4845680000000  0.6008150000000 1.0
C      1  0.4494910000000  0.5328000000000  0.4343310000000 1.0
C      1  0.6081540000000  0.5511100000000  0.4750390000000 1.0
C      1  0.4747430000000  0.4586030000000  0.6349500000000 1.0
C      1  0.5671360000000  0.5451110000000  0.4170150000000 1.0
C      1  0.5138900000000  0.4456620000000  0.4494410000000 1.0
C      1  0.4567460000000  0.5261450000000  0.5458520000000 1.0
C      1  0.5397330000000  0.5423590000000  0.5484180000000 1.0
C      1  0.4876410000000  0.4365910000000  0.6246740000000 1.0
C      1  0.5467170000000  0.5280210000000  0.6060030000000 1.0
C      1  0.5815350000000  0.5280030000000  0.5240630000000 1.0
C      1  0.5798200000000  0.4691190000000  0.4093840000000 1.0
C      1  0.5848680000000  0.5329540000000  0.5769220000000 1.0
C      1  0.5618660000000  0.5651340000000  0.4394500000000 1.0
C      1  0.3967040000000  0.4674010000000  0.4976340000000 1.0
C      1  0.4062200000000  0.4694980000000  0.4470400000000 1.0
C      1  0.5340690000000  0.3821650000000  0.5361380000000 1.0
C      1  0.4798560000000  0.4500720000000  0.5693010000000 1.0
C      1  0.4370770000000  0.4916260000000  0.5715220000000 1.0
C      1  0.4991560000000  0.5675280000000  0.5003110000000 1.0
C      1  0.5727430000000  0.4587020000000  0.5889190000000 1.0
C      1  0.5196200000000  0.5360460000000  0.6002590000000 1.0
C      1  0.4028550000000  0.5841350000000  0.4859910000000 1.0
C      1  0.5018820000000  0.4468570000000  0.5514490000000 1.0
C      1  0.5528450000000  0.4300060000000  0.5419870000000 1.0
C      1  0.5495690000000  0.5914840000000  0.4481340000000 1.0
C      1  0.5741770000000  0.4872100000000  0.5842810000000 1.0
C      1  0.4950910000000  0.4705020000000  0.4955140000000 1.0
C      1  0.5701610000000  0.3851600000000  0.4984460000000 1.0
C      1  0.5990660000000  0.5556950000000  0.5835380000000 1.0
C      1  0.4730940000000  0.5395240000000  0.4190650000000 1.0
C      1  0.6111790000000  0.5781350000000  0.5888970000000 1.0
C      1  0.4326850000000  0.5100340000000  0.5506120000000 1.0
C      1  0.5483490000000  0.4178750000000  0.4151480000000 1.0
C      1  0.4041770000000  0.3912680000000  0.5075850000000 1.0
C      1  0.4317010000000  0.3951300000000  0.5107350000000 1.0
C      1  0.5450760000000  0.4802100000000  0.3747670000000 1.0
C      1  0.4112520000000  0.4601840000000  0.4742550000000 1.0
C      1  0.5229690000000  0.4690190000000  0.5007050000000 1.0
C      1  0.4417210000000  0.4010390000000  0.5384020000000 1.0
C      1  0.5567270000000  0.5318310000000  0.5084120000000 1.0
C      1  0.5806650000000  0.4842990000000  0.4526490000000 1.0
C      1  0.5666740000000  0.4114240000000  0.4337080000000 1.0
C      1  0.6122450000000  0.4388100000000  0.5137380000000 1.0
C      1  0.4826090000000  0.4716810000000  0.5875550000000 1.0
C      1  0.4917180000000  0.6002150000000  0.3998010000000 1.0
C      1  0.4770910000000  0.3982530000000  0.5112410000000 1.0
C      1  0.4069940000000  0.5113230000000  0.3997470000000 1.0
C      1  0.4537740000000  0.4848230000000  0.4509580000000 1.0
C      1  0.5630990000000  0.5803760000000  0.5249790000000 1.0
C      1  0.5197890000000  0.4941410000000  0.5550680000000 1.0
C      1  0.5763540000000  0.4929270000000  0.5559100000000 1.0
C      1  0.4513160000000  0.4920610000000  0.3801830000000 1.0
C      1  0.4541930000000  0.5716080000000  0.5845110000000 1.0
C      1  0.5094690000000  0.3928080000000  0.4700880000000 1.0
C      1  0.6045780000000  0.5684560000000  0.4960520000000 1.0
C      1  0.4540610000000  0.3983130000000  0.4920500000000 1.0
C      1  0.4287900000000  0.5274850000000  0.4813180000000 1.0
C      1  0.4540080000000  0.4368500000000  0.5699060000000 1.0
C      1  0.4791270000000  0.4483100000000  0.5041180000000 1.0
C      1  0.5649600000000  0.5010660000000  0.3768420000000 1.0
C      1  0.3625380000000  0.5062130000000  0.5386300000000 1.0
C      1  0.4089450000000  0.5196240000000  0.5368680000000 1.0
C      1  0.4950220000000  0.4653920000000  0.3842600000000 1.0
C      1  0.5138610000000  0.3982920000000  0.5465220000000 1.0
C      1  0.4029540000000  0.4512160000000  0.5205830000000 1.0
C      1  0.5462990000000  0.5703950000000  0.5480930000000 1.0
C      1  0.5817500000000  0.5205430000000  0.5512940000000 1.0
C      1  0.4821830000000  0.5618710000000  0.5722540000000 1.0
C      1  0.5381030000000  0.5243100000000  0.4518520000000 1.0
C      1  0.6112710000000  0.5056730000000  0.4895640000000 1.0
C      1  0.4718370000000  0.5537120000000  0.3947370000000 1.0
C      1  0.3913950000000  0.4946190000000  0.4468260000000 1.0
C      1  0.4475610000000  0.4531680000000  0.4081020000000 1.0
C      1  0.4311670000000  0.4466410000000  0.5269720000000 1.0
C      1  0.3936680000000  0.5600150000000  0.4779270000000 1.0
C      1  0.5470170000000  0.4503190000000  0.6010690000000 1.0
C      1  0.4445080000000  0.5120220000000  0.4541620000000 1.0
C      1  0.5490200000000  0.6008240000000  0.4774320000000 1.0
C      1  0.5284280000000  0.5193580000000  0.5562280000000 1.0
C      1  0.4895500000000  0.3915490000000  0.5609680000000 1.0
C      1  0.4955760000000  0.4223130000000  0.5079480000000 1.0
C      1  0.5032850000000  0.4194940000000  0.6067800000000 1.0
C      1  0.4819500000000  0.5765110000000  0.5452610000000 1.0
C      1  0.3873500000000  0.5081660000000  0.4727540000000 1.0
C      1  0.4602930000000  0.4297590000000  0.4485480000000 1.0
C      1  0.5469730000000  0.4574730000000  0.5404920000000 1.0
C      1  0.4760940000000  0.5158820000000  0.5881300000000 1.0
C      1  0.6065280000000  0.5216250000000  0.5124730000000 1.0
C      1  0.3841700000000  0.4310100000000  0.5266950000000 1.0
C      1  0.5156590000000  0.4160140000000  0.4856180000000 1.0
C      1  0.6022400000000  0.4788880000000  0.4930180000000 1.0
C      1  0.5110430000000  0.4512890000000  0.4040340000000 1.0
C      1  0.4605860000000  0.5966790000000  0.5427600000000 1.0
C      1  0.4632790000000  0.4834030000000  0.6379130000000 1.0
C      1  0.4561680000000  0.6163870000000  0.4391710000000 1.0
C      1  0.5219070000000  0.4669000000000  0.5496550000000 1.0
C      1  0.5717670000000  0.4198020000000  0.5582600000000 1.0
C      1  0.6089520000000  0.4416170000000  0.5416650000000 1.0
C      1  0.3837020000000  0.4056220000000  0.5176140000000 1.0
C      1  0.5913940000000  0.4389550000000  0.5657860000000 1.0
C      1  0.5518400000000  0.5804840000000  0.4978700000000 1.0
C      1  0.4823840000000  0.5597070000000  0.5220710000000 1.0
C      1  0.4399300000000  0.5837960000000  0.5601610000000 1.0
C      1  0.5287050000000  0.4368150000000  0.4711630000000 1.0
C      1  0.4418480000000  0.5584030000000  0.4461020000000 1.0
C      1  0.5565310000000  0.4592630000000  0.3928650000000 1.0
C      1  0.4942230000000  0.6161220000000  0.5123660000000 1.0
C      1  0.4011870000000  0.5329120000000  0.4750350000000 1.0
C      1  0.5206180000000  0.5985940000000  0.4041490000000 1.0
C      1  0.5300170000000  0.4723990000000  0.6075090000000 1.0
C      1  0.4600910000000  0.5412370000000  0.5223380000000 1.0
C      1  0.5701080000000  0.5152470000000  0.5956220000000 1.0
C      1  0.4892860000000  0.6045390000000  0.4685460000000 1.0
C      1  0.4737140000000  0.5333880000000  0.5670400000000 1.0
C      1  0.5821260000000  0.4987480000000  0.4005210000000 1.0
C      1  0.4153260000000  0.5466790000000  0.5274190000000 1.0
END
