TITL C-612607-4507-1317 -177650.990728285 125000 -961.071485994905 0 0 161 (C1) n - 1
REM
REM in /home/nfs/bkarasulu/CARBON/AIRSS/Generating-Clusters/TERSOFF/Only-C1/FIRE-HFTN
REM
REM
REM
REM
REM
REM ./C.cell (11c1c37f851c82e70ff6c80c92926a4b)
REM AIRSS Version 0.9.1 bugfix July 2018 build 013d7b7c2542+ Fri, 06 Jul 2018 19:26:36 +0100
REM compiler GCC version 9.2.1 20190827 (Red Hat 9.2.1-1)
REM options -cpp -mtune=generic -march=x86-64 -g -O0 -fpre-include=/usr/include/finclude/math-vector-fortran.h
REM seed -158266876 928254783 -653615214 35007323 2091967764 -17111169 -902319822 102013305 -891187499 -1297582475 -1501992335 1460163463 -988090958 -1442121729 1567440087 938607193 -1307235639 -1060848245 -539888518 1577285894 -1624916777 -162560040 1062247250 -801006263 1443862092 646744729 1654274474 -248483394 -2048142920 971777022 -545063017 457973923 1894474776
REM
CELL 1.54180   50.00000   50.00000   50.00000   90.00000   90.00000   90.00000
LATT -1
SFAC C  
C      1  0.4162820000000  0.5054410000000  0.5614640000000 1.0
C      1  0.4389590000000  0.5818270000000  0.4609700000000 1.0
C      1  0.4442320000000  0.5453220000000  0.5044280000000 1.0
C      1  0.5258390000000  0.5376580000000  0.4535230000000 1.0
C      1  0.4182210000000  0.4590920000000  0.4763660000000 1.0
C      1  0.4252480000000  0.5309480000000  0.4672690000000 1.0
C      1  0.5799650000000  0.4856340000000  0.4509760000000 1.0
C      1  0.5904440000000  0.5324090000000  0.5260300000000 1.0
C      1  0.4392640000000  0.4977450000000  0.5486170000000 1.0
C      1  0.5202480000000  0.5041500000000  0.6145020000000 1.0
C      1  0.4750110000000  0.4594460000000  0.4972760000000 1.0
C      1  0.4477940000000  0.5162210000000  0.4527400000000 1.0
C      1  0.4837760000000  0.4504100000000  0.4283130000000 1.0
C      1  0.5203320000000  0.6173220000000  0.5167590000000 1.0
C      1  0.5413220000000  0.4872950000000  0.6062600000000 1.0
C      1  0.5554220000000  0.5277360000000  0.5607330000000 1.0
C      1  0.5172290000000  0.5788890000000  0.5862290000000 1.0
C      1  0.4773250000000  0.5089910000000  0.5952970000000 1.0
C      1  0.5495890000000  0.4380880000000  0.4830570000000 1.0
C      1  0.4278750000000  0.4805930000000  0.6037310000000 1.0
C      1  0.4386590000000  0.4713640000000  0.3978130000000 1.0
C      1  0.5198200000000  0.5011120000000  0.4278070000000 1.0
C      1  0.4066760000000  0.4423680000000  0.4284240000000 1.0
C      1  0.5745720000000  0.5556820000000  0.4463140000000 1.0
C      1  0.5164630000000  0.4216470000000  0.5536240000000 1.0
C      1  0.5771770000000  0.5133290000000  0.4108300000000 1.0
C      1  0.4575720000000  0.5961210000000  0.4792420000000 1.0
C      1  0.4393370000000  0.5684690000000  0.5205150000000 1.0
C      1  0.5854610000000  0.5296590000000  0.4345100000000 1.0
C      1  0.5892760000000  0.5390480000000  0.4960840000000 1.0
C      1  0.4225030000000  0.4313790000000  0.4742880000000 1.0
C      1  0.5720430000000  0.5441090000000  0.5438900000000 1.0
C      1  0.5145190000000  0.5002090000000  0.5493290000000 1.0
C      1  0.4273950000000  0.4523010000000  0.5544770000000 1.0
C      1  0.5304610000000  0.5801050000000  0.4337090000000 1.0
C      1  0.4871140000000  0.4945330000000  0.4610470000000 1.0
C      1  0.5357700000000  0.6049530000000  0.4941370000000 1.0
C      1  0.5749770000000  0.5610350000000  0.4792460000000 1.0
C      1  0.4433160000000  0.5638440000000  0.5518870000000 1.0
C      1  0.4150650000000  0.4614710000000  0.4110630000000 1.0
C      1  0.5604920000000  0.5916500000000  0.5636410000000 1.0
C      1  0.5539040000000  0.4951240000000  0.4585580000000 1.0
C      1  0.5482050000000  0.3976270000000  0.5075110000000 1.0
C      1  0.4949190000000  0.4923460000000  0.6096590000000 1.0
C      1  0.4859770000000  0.5651660000000  0.4976630000000 1.0
C      1  0.4825900000000  0.5492850000000  0.4323460000000 1.0
C      1  0.4006990000000  0.4595210000000  0.5461170000000 1.0
C      1  0.5825020000000  0.4281960000000  0.5189050000000 1.0
C      1  0.5533700000000  0.4812000000000  0.5799700000000 1.0
C      1  0.4652780000000  0.5890280000000  0.5573710000000 1.0
C      1  0.4846350000000  0.3881360000000  0.4608650000000 1.0
C      1  0.4270450000000  0.5572300000000  0.4496170000000 1.0
C      1  0.4950730000000  0.5804690000000  0.5185850000000 1.0
C      1  0.5343240000000  0.5540190000000  0.5034500000000 1.0
C      1  0.4550750000000  0.5195860000000  0.6121530000000 1.0
C      1  0.4388150000000  0.4210730000000  0.4958460000000 1.0
C      1  0.4192000000000  0.5254540000000  0.5821510000000 1.0
C      1  0.5040670000000  0.4293810000000  0.3912570000000 1.0
C      1  0.5956110000000  0.4895100000000  0.5573090000000 1.0
C      1  0.5580680000000  0.4916530000000  0.4043150000000 1.0
C      1  0.5576300000000  0.4234860000000  0.4603020000000 1.0
C      1  0.4893320000000  0.4672580000000  0.6220120000000 1.0
C      1  0.5366430000000  0.4062780000000  0.4526790000000 1.0
C      1  0.4932950000000  0.4794890000000  0.3883500000000 1.0
C      1  0.4739940000000  0.5040540000000  0.5195360000000 1.0
C      1  0.5100050000000  0.4519390000000  0.4427650000000 1.0
C      1  0.5421880000000  0.5008240000000  0.5587880000000 1.0
C      1  0.5795900000000  0.4351350000000  0.4468210000000 1.0
C      1  0.4596800000000  0.4370730000000  0.5079680000000 1.0
C      1  0.4360270000000  0.5457390000000  0.4209850000000 1.0
C      1  0.5332220000000  0.4478200000000  0.4255680000000 1.0
C      1  0.5586840000000  0.4548270000000  0.5624740000000 1.0
C      1  0.5320520000000  0.4559770000000  0.4961110000000 1.0
C      1  0.4756090000000  0.4643890000000  0.5420890000000 1.0
C      1  0.5215150000000  0.5507090000000  0.4773560000000 1.0
C      1  0.5127690000000  0.5544690000000  0.4289940000000 1.0
C      1  0.5029970000000  0.4525070000000  0.4901030000000 1.0
C      1  0.4838520000000  0.5332780000000  0.5747280000000 1.0
C      1  0.5029720000000  0.3985390000000  0.5065960000000 1.0
C      1  0.4833220000000  0.4753560000000  0.4154630000000 1.0
C      1  0.5466560000000  0.4803110000000  0.5019620000000 1.0
C      1  0.4855380000000  0.4151980000000  0.4584680000000 1.0
C      1  0.4672090000000  0.5476190000000  0.4873170000000 1.0
C      1  0.4447000000000  0.4157000000000  0.4342360000000 1.0
C      1  0.5270230000000  0.5535450000000  0.5985890000000 1.0
C      1  0.5487510000000  0.5420610000000  0.5841600000000 1.0
C      1  0.4915170000000  0.5086860000000  0.3825350000000 1.0
C      1  0.5763190000000  0.4765780000000  0.5034790000000 1.0
C      1  0.6188290000000  0.4951640000000  0.5165930000000 1.0
C      1  0.5202910000000  0.5328170000000  0.6174510000000 1.0
C      1  0.5283030000000  0.5012960000000  0.4969350000000 1.0
C      1  0.5169380000000  0.5219010000000  0.3877240000000 1.0
C      1  0.4650370000000  0.6087290000000  0.5322550000000 1.0
C      1  0.5265950000000  0.3973890000000  0.4879890000000 1.0
C      1  0.5515300000000  0.5579460000000  0.4009270000000 1.0
C      1  0.6051250000000  0.5087160000000  0.5377450000000 1.0
C      1  0.4699420000000  0.4269430000000  0.4371470000000 1.0
C      1  0.4550610000000  0.4489230000000  0.3870210000000 1.0
C      1  0.5823340000000  0.4925250000000  0.5824060000000 1.0
C      1  0.5239380000000  0.5467830000000  0.4000970000000 1.0
C      1  0.5320660000000  0.5021540000000  0.4023530000000 1.0
C      1  0.5059420000000  0.5696560000000  0.5410860000000 1.0
C      1  0.5577380000000  0.5704030000000  0.4269940000000 1.0
C      1  0.3927190000000  0.5096470000000  0.5454420000000 1.0
C      1  0.5838190000000  0.4639230000000  0.5482080000000 1.0
C      1  0.4595620000000  0.4937970000000  0.4964800000000 1.0
C      1  0.4776120000000  0.5560560000000  0.5959010000000 1.0
C      1  0.5979740000000  0.5160970000000  0.4804480000000 1.0
C      1  0.4157010000000  0.5505240000000  0.5644760000000 1.0
C      1  0.4700470000000  0.5387420000000  0.4579360000000 1.0
C      1  0.5444270000000  0.4297600000000  0.5503180000000 1.0
C      1  0.4667920000000  0.5203090000000  0.3925190000000 1.0
C      1  0.4422450000000  0.4387410000000  0.5759280000000 1.0
C      1  0.5094010000000  0.4566400000000  0.3800060000000 1.0
C      1  0.5015210000000  0.5710120000000  0.4747540000000 1.0
C      1  0.5068480000000  0.4559930000000  0.6398130000000 1.0
C      1  0.5279660000000  0.4206130000000  0.4185390000000 1.0
C      1  0.4927980000000  0.6089000000000  0.5218560000000 1.0
C      1  0.5072400000000  0.5275190000000  0.5540850000000 1.0
C      1  0.5192000000000  0.5461980000000  0.5350160000000 1.0
C      1  0.4611980000000  0.5472330000000  0.6159200000000 1.0
C      1  0.4493000000000  0.5949650000000  0.5097890000000 1.0
C      1  0.4939460000000  0.4939150000000  0.4338590000000 1.0
C      1  0.5951030000000  0.5102470000000  0.4533910000000 1.0
C      1  0.4472640000000  0.4714750000000  0.5463230000000 1.0
C      1  0.5174220000000  0.6122440000000  0.4712480000000 1.0
C      1  0.4426320000000  0.4556760000000  0.6000280000000 1.0
C      1  0.4356440000000  0.4748110000000  0.4636750000000 1.0
C      1  0.4953050000000  0.4200050000000  0.5744890000000 1.0
C      1  0.5720570000000  0.5719380000000  0.5494710000000 1.0
C      1  0.4671610000000  0.4248570000000  0.5651970000000 1.0
C      1  0.4352740000000  0.5156140000000  0.4253790000000 1.0
C      1  0.5587290000000  0.4152280000000  0.5277050000000 1.0
C      1  0.5846750000000  0.4557880000000  0.5214570000000 1.0
C      1  0.5346710000000  0.5122100000000  0.4483190000000 1.0
C      1  0.4618630000000  0.5387560000000  0.5545450000000 1.0
C      1  0.4923360000000  0.5975670000000  0.4686450000000 1.0
C      1  0.3858870000000  0.4821210000000  0.5391840000000 1.0
C      1  0.4300450000000  0.5098300000000  0.6040650000000 1.0
C      1  0.4745610000000  0.4286870000000  0.3877280000000 1.0
C      1  0.4640720000000  0.5463560000000  0.4095140000000 1.0
C      1  0.5786270000000  0.4613830000000  0.4363180000000 1.0
C      1  0.4314640000000  0.5223450000000  0.4946800000000 1.0
C      1  0.5995290000000  0.4924070000000  0.4958770000000 1.0
C      1  0.5526700000000  0.5773440000000  0.4956320000000 1.0
C      1  0.4655730000000  0.4538820000000  0.6160460000000 1.0
C      1  0.5392570000000  0.5961850000000  0.5797580000000 1.0
C      1  0.4579170000000  0.4935360000000  0.4677340000000 1.0
C      1  0.3931180000000  0.5396450000000  0.5456470000000 1.0
C      1  0.5569340000000  0.4646230000000  0.4172460000000 1.0
C      1  0.4329810000000  0.3962580000000  0.5060060000000 1.0
C      1  0.4736500000000  0.4339290000000  0.5352490000000 1.0
C      1  0.4955240000000  0.5804720000000  0.5658470000000 1.0
C      1  0.4208370000000  0.4246510000000  0.4459730000000 1.0
C      1  0.5057750000000  0.5013430000000  0.4816900000000 1.0
C      1  0.4568670000000  0.5165620000000  0.5383510000000 1.0
C      1  0.4873990000000  0.3757210000000  0.5087260000000 1.0
C      1  0.4929920000000  0.4865130000000  0.5352410000000 1.0
C      1  0.4454820000000  0.5005170000000  0.4023410000000 1.0
C      1  0.5002120000000  0.4180390000000  0.5285170000000 1.0
C      1  0.5030210000000  0.4368560000000  0.4662420000000 1.0
END
