TITL C-612602-9376-1158 8.29023440769944 125000 -295.563522245068 0 0 50 (C1) n - 1
REM
REM in /home/nfs/bkarasulu/CARBON/AIRSS/Generating-Clusters/TERSOFF/Only-C1/FIRE-HFTN
REM
REM
REM
REM
REM
REM ./C.cell (11c1c37f851c82e70ff6c80c92926a4b)
REM AIRSS Version 0.9.1 bugfix July 2018 build 013d7b7c2542+ Fri, 06 Jul 2018 19:26:36 +0100
REM compiler GCC version 9.2.1 20190827 (Red Hat 9.2.1-1)
REM options -cpp -mtune=generic -march=x86-64 -g -O0 -fpre-include=/usr/include/finclude/math-vector-fortran.h
REM seed -605535644 1294334039 -978615 2089941600 1816048101 459114749 65201980 -1623489214 -1294038278 1248036197 -455834011 -2054766638 417794589 -281777491 -1338859823 1210225558 1551541426 -99633529 581793766 1777940924 635250961 -611761152 -2033276168 -1111967971 1825437568 -794849614 -1515315189 359799860 1930360547 1170454165 -1470054328 -582819369 -439122018
REM
CELL 1.54180   50.00000   50.00000   50.00000   90.00000   90.00000   90.00000
LATT -1
SFAC C  
C      1  0.4434730000000  0.5665480000000  0.4597790000000 1.0
C      1  0.4038690000000  0.5384890000000  0.4561950000000 1.0
C      1  0.4998470000000  0.6001310000000  0.4737680000000 1.0
C      1  0.5242090000000  0.4488280000000  0.5458770000000 1.0
C      1  0.4469420000000  0.5535690000000  0.4847740000000 1.0
C      1  0.5828770000000  0.4444150000000  0.4893490000000 1.0
C      1  0.5296340000000  0.4215990000000  0.5446840000000 1.0
C      1  0.4625480000000  0.5841760000000  0.4479200000000 1.0
C      1  0.5728420000000  0.4990670000000  0.5540240000000 1.0
C      1  0.5488730000000  0.4406060000000  0.4376120000000 1.0
C      1  0.5424300000000  0.4544320000000  0.4601100000000 1.0
C      1  0.5351670000000  0.3962260000000  0.5425230000000 1.0
C      1  0.4670900000000  0.4289060000000  0.5878950000000 1.0
C      1  0.4578250000000  0.4886460000000  0.4825400000000 1.0
C      1  0.5018380000000  0.4598210000000  0.5598960000000 1.0
C      1  0.4223740000000  0.5552860000000  0.4428940000000 1.0
C      1  0.6173100000000  0.4798750000000  0.5384130000000 1.0
C      1  0.4278510000000  0.5549690000000  0.4151930000000 1.0
C      1  0.5423920000000  0.4691210000000  0.5052140000000 1.0
C      1  0.5465010000000  0.4914160000000  0.5491150000000 1.0
C      1  0.4674600000000  0.5797150000000  0.4203220000000 1.0
C      1  0.4916180000000  0.4987720000000  0.3996600000000 1.0
C      1  0.4753540000000  0.6047830000000  0.4624320000000 1.0
C      1  0.6065160000000  0.4474980000000  0.5012120000000 1.0
C      1  0.4091480000000  0.5258650000000  0.4797060000000 1.0
C      1  0.5198020000000  0.4724070000000  0.4630110000000 1.0
C      1  0.4972320000000  0.4837440000000  0.4208590000000 1.0
C      1  0.4966170000000  0.4772670000000  0.4480140000000 1.0
C      1  0.4342680000000  0.5292910000000  0.4926420000000 1.0
C      1  0.4840200000000  0.4442040000000  0.5744490000000 1.0
C      1  0.5989010000000  0.4945440000000  0.5509480000000 1.0
C      1  0.4725630000000  0.4794500000000  0.4624200000000 1.0
C      1  0.4534560000000  0.5608620000000  0.4044060000000 1.0
C      1  0.5220200000000  0.4826520000000  0.4899300000000 1.0
C      1  0.5242880000000  0.5276550000000  0.5744980000000 1.0
C      1  0.4587960000000  0.5054320000000  0.5280540000000 1.0
C      1  0.4630910000000  0.6291390000000  0.4649700000000 1.0
C      1  0.4501940000000  0.4134820000000  0.6012820000000 1.0
C      1  0.4494160000000  0.5072900000000  0.5018030000000 1.0
C      1  0.4991810000000  0.4883110000000  0.5581900000000 1.0
C      1  0.5252130000000  0.5509080000000  0.5871580000000 1.0
C      1  0.5261730000000  0.5737990000000  0.5995960000000 1.0
C      1  0.5234220000000  0.5033560000000  0.5610230000000 1.0
C      1  0.5569750000000  0.4535900000000  0.4853060000000 1.0
C      1  0.4760040000000  0.4996230000000  0.5474540000000 1.0
C      1  0.5408810000000  0.4682860000000  0.5331180000000 1.0
C      1  0.4669340000000  0.5425540000000  0.3882810000000 1.0
C      1  0.6201980000000  0.4612590000000  0.5195090000000 1.0
C      1  0.4807930000000  0.5198270000000  0.3875240000000 1.0
C      1  0.4335760000000  0.3983110000000  0.6144470000000 1.0
END
