TITL C-612600-6631-1458 58860.3942170226 125000 -1022.45145017054 0 0 165 (C1) n - 1
REM
REM in /home/nfs/bkarasulu/CARBON/AIRSS/Generating-Clusters/TERSOFF/Only-C1/FIRE-HFTN
REM
REM
REM
REM
REM
REM ./C.cell (11c1c37f851c82e70ff6c80c92926a4b)
REM AIRSS Version 0.9.1 bugfix July 2018 build 013d7b7c2542+ Fri, 06 Jul 2018 19:26:36 +0100
REM compiler GCC version 9.2.1 20190827 (Red Hat 9.2.1-1)
REM options -cpp -mtune=generic -march=x86-64 -g -O0 -fpre-include=/usr/include/finclude/math-vector-fortran.h
REM seed -1591315479 -1122967209 1769301414 1284090256 663314694 1887358564 -1437071291 -1921299997 174441495 1031498205 1911409637 1296721616 1972196044 511276802 -786964820 -808635134 145386687 1731704116 -523565827 188660935 -49303551 1822807087 536049970 -1077547631 1262692430 230589968 -1085314561 -1167548932 -1787949166 -1760359260 924371127 1078158438 376294854
REM
CELL 1.54180   50.00000   50.00000   50.00000   90.00000   90.00000   90.00000
LATT -1
SFAC C  
C      1  0.4407270000000  0.5754320000000  0.5436050000000 1.0
C      1  0.4859950000000  0.3962930000000  0.4986400000000 1.0
C      1  0.4850790000000  0.4836530000000  0.5136770000000 1.0
C      1  0.4254940000000  0.5601160000000  0.5621800000000 1.0
C      1  0.4018200000000  0.4451540000000  0.5244280000000 1.0
C      1  0.4282300000000  0.5604590000000  0.4976100000000 1.0
C      1  0.5309820000000  0.5435610000000  0.5061910000000 1.0
C      1  0.4171940000000  0.4008160000000  0.5122650000000 1.0
C      1  0.4672910000000  0.4849250000000  0.4034880000000 1.0
C      1  0.5256090000000  0.4957810000000  0.3753100000000 1.0
C      1  0.3929500000000  0.5218220000000  0.4324950000000 1.0
C      1  0.4051820000000  0.4420680000000  0.4209170000000 1.0
C      1  0.4768900000000  0.5979020000000  0.4382300000000 1.0
C      1  0.5399060000000  0.6398700000000  0.4846280000000 1.0
C      1  0.5134240000000  0.4828080000000  0.5172460000000 1.0
C      1  0.5696260000000  0.4664490000000  0.4449590000000 1.0
C      1  0.4648930000000  0.4173130000000  0.4983670000000 1.0
C      1  0.5248710000000  0.4837260000000  0.4729050000000 1.0
C      1  0.5868470000000  0.5351430000000  0.5801210000000 1.0
C      1  0.4615770000000  0.4286270000000  0.4724920000000 1.0
C      1  0.5334610000000  0.5723510000000  0.5515630000000 1.0
C      1  0.5153750000000  0.5525210000000  0.4455190000000 1.0
C      1  0.4861720000000  0.5968910000000  0.5383880000000 1.0
C      1  0.4975650000000  0.4538020000000  0.5506450000000 1.0
C      1  0.4533470000000  0.4684910000000  0.5995090000000 1.0
C      1  0.4738130000000  0.5578800000000  0.4116640000000 1.0
C      1  0.4017870000000  0.5223710000000  0.4802870000000 1.0
C      1  0.4868020000000  0.5524610000000  0.4888310000000 1.0
C      1  0.5186880000000  0.5199360000000  0.5588760000000 1.0
C      1  0.6245370000000  0.4768090000000  0.4701820000000 1.0
C      1  0.5764380000000  0.5143870000000  0.5974630000000 1.0
C      1  0.5597260000000  0.5040630000000  0.5387470000000 1.0
C      1  0.5020210000000  0.4038690000000  0.4734480000000 1.0
C      1  0.4880670000000  0.4927070000000  0.5821720000000 1.0
C      1  0.5853630000000  0.5594910000000  0.4542760000000 1.0
C      1  0.4762940000000  0.5348880000000  0.4686280000000 1.0
C      1  0.5545550000000  0.4355880000000  0.5589140000000 1.0
C      1  0.4269770000000  0.5334520000000  0.4887170000000 1.0
C      1  0.6062950000000  0.4656580000000  0.5132660000000 1.0
C      1  0.4364320000000  0.4146550000000  0.5553770000000 1.0
C      1  0.5241310000000  0.4227090000000  0.5228650000000 1.0
C      1  0.5500550000000  0.4058330000000  0.4294340000000 1.0
C      1  0.5154200000000  0.4979970000000  0.5783400000000 1.0
C      1  0.6045290000000  0.5267990000000  0.5582560000000 1.0
C      1  0.4664450000000  0.4973220000000  0.4976930000000 1.0
C      1  0.4756100000000  0.4725770000000  0.5401450000000 1.0
C      1  0.5190960000000  0.4363620000000  0.4036630000000 1.0
C      1  0.3934220000000  0.4795180000000  0.4571390000000 1.0
C      1  0.4603170000000  0.5815240000000  0.4210460000000 1.0
C      1  0.5231260000000  0.6070330000000  0.4541040000000 1.0
C      1  0.5249810000000  0.4590230000000  0.4603480000000 1.0
C      1  0.5210150000000  0.4256840000000  0.5899140000000 1.0
C      1  0.4793330000000  0.5562260000000  0.5639300000000 1.0
C      1  0.5433010000000  0.5258600000000  0.5464920000000 1.0
C      1  0.5305510000000  0.4084860000000  0.4756750000000 1.0
C      1  0.5434360000000  0.5675050000000  0.5786090000000 1.0
C      1  0.5557880000000  0.5515100000000  0.4112080000000 1.0
C      1  0.4727560000000  0.4942790000000  0.5586010000000 1.0
C      1  0.5020770000000  0.5434260000000  0.5114180000000 1.0
C      1  0.6148470000000  0.4862910000000  0.4945900000000 1.0
C      1  0.5625150000000  0.5976160000000  0.4849480000000 1.0
C      1  0.4218090000000  0.5153430000000  0.5837590000000 1.0
C      1  0.5806320000000  0.5784840000000  0.4742930000000 1.0
C      1  0.4536870000000  0.4224230000000  0.4167110000000 1.0
C      1  0.4538040000000  0.4939500000000  0.4553060000000 1.0
C      1  0.5375300000000  0.4174270000000  0.4086840000000 1.0
C      1  0.5180400000000  0.5047450000000  0.4563030000000 1.0
C      1  0.5893280000000  0.4690640000000  0.5551890000000 1.0
C      1  0.5483430000000  0.4942050000000  0.3903680000000 1.0
C      1  0.4547830000000  0.4528710000000  0.5396190000000 1.0
C      1  0.4356600000000  0.5406660000000  0.5809530000000 1.0
C      1  0.4833360000000  0.4195440000000  0.4554530000000 1.0
C      1  0.3931070000000  0.4624500000000  0.4340990000000 1.0
C      1  0.5707300000000  0.5587170000000  0.5804560000000 1.0
C      1  0.4737120000000  0.5130900000000  0.4499160000000 1.0
C      1  0.4812670000000  0.4377390000000  0.5731160000000 1.0
C      1  0.5744730000000  0.5603420000000  0.4283370000000 1.0
C      1  0.6106030000000  0.4794160000000  0.5395070000000 1.0
C      1  0.4270620000000  0.4271800000000  0.4151020000000 1.0
C      1  0.5342150000000  0.5363400000000  0.4057960000000 1.0
C      1  0.5434080000000  0.5333250000000  0.4812950000000 1.0
C      1  0.5252320000000  0.5625610000000  0.5998360000000 1.0
C      1  0.5307810000000  0.6110660000000  0.4279360000000 1.0
C      1  0.4271640000000  0.3953030000000  0.5368870000000 1.0
C      1  0.4964780000000  0.5971250000000  0.4590410000000 1.0
C      1  0.5367570000000  0.4786290000000  0.5872460000000 1.0
C      1  0.5367680000000  0.4156090000000  0.5474490000000 1.0
C      1  0.5701600000000  0.5677550000000  0.5217390000000 1.0
C      1  0.4447300000000  0.4732350000000  0.4166600000000 1.0
C      1  0.4792550000000  0.4280160000000  0.4284680000000 1.0
C      1  0.4431910000000  0.4593130000000  0.5744980000000 1.0
C      1  0.4662600000000  0.4137640000000  0.5632040000000 1.0
C      1  0.4164780000000  0.4428950000000  0.4795960000000 1.0
C      1  0.4345950000000  0.6181360000000  0.4851160000000 1.0
C      1  0.5399130000000  0.4479690000000  0.5824870000000 1.0
C      1  0.5174320000000  0.4053640000000  0.5670890000000 1.0
C      1  0.3950280000000  0.4959800000000  0.5204680000000 1.0
C      1  0.4154570000000  0.5033970000000  0.5388830000000 1.0
C      1  0.4447170000000  0.5152970000000  0.5023830000000 1.0
C      1  0.4166590000000  0.4649450000000  0.5678270000000 1.0
C      1  0.3942340000000  0.4695690000000  0.5103750000000 1.0
C      1  0.4683090000000  0.5790710000000  0.5515460000000 1.0
C      1  0.4330440000000  0.5877440000000  0.4216920000000 1.0
C      1  0.4789890000000  0.5381220000000  0.6098470000000 1.0
C      1  0.5752990000000  0.4259140000000  0.4690650000000 1.0
C      1  0.4212960000000  0.6154920000000  0.4621100000000 1.0
C      1  0.4911690000000  0.4761200000000  0.4189000000000 1.0
C      1  0.5912050000000  0.5334330000000  0.4660990000000 1.0
C      1  0.4658460000000  0.5173450000000  0.5445500000000 1.0
C      1  0.5573550000000  0.4949100000000  0.5119220000000 1.0
C      1  0.5461290000000  0.5520020000000  0.5313050000000 1.0
C      1  0.4113740000000  0.4267790000000  0.5032410000000 1.0
C      1  0.4358170000000  0.5806640000000  0.5159300000000 1.0
C      1  0.5622400000000  0.4926520000000  0.5866440000000 1.0
C      1  0.4111870000000  0.4416010000000  0.5509900000000 1.0
C      1  0.5250190000000  0.5315760000000  0.4611640000000 1.0
C      1  0.4727620000000  0.6118980000000  0.5182230000000 1.0
C      1  0.5686020000000  0.4305440000000  0.4973340000000 1.0
C      1  0.4186670000000  0.6026170000000  0.4388170000000 1.0
C      1  0.4677650000000  0.5348730000000  0.3952880000000 1.0
C      1  0.6124910000000  0.5091050000000  0.5366760000000 1.0
C      1  0.5773940000000  0.4449450000000  0.5449450000000 1.0
C      1  0.4723280000000  0.4889550000000  0.6052550000000 1.0
C      1  0.4901150000000  0.5356720000000  0.5441710000000 1.0
C      1  0.4745720000000  0.5077100000000  0.3869310000000 1.0
C      1  0.5851260000000  0.4443160000000  0.5162380000000 1.0
C      1  0.5440380000000  0.4552250000000  0.4419920000000 1.0
C      1  0.5136760000000  0.5913080000000  0.5433410000000 1.0
C      1  0.5897520000000  0.5584670000000  0.5043780000000 1.0
C      1  0.5701990000000  0.5152420000000  0.4626050000000 1.0
C      1  0.4988470000000  0.5024040000000  0.4339390000000 1.0
C      1  0.4974140000000  0.4335050000000  0.5273880000000 1.0
C      1  0.3987760000000  0.4660490000000  0.4815810000000 1.0
C      1  0.4902700000000  0.3960380000000  0.5542380000000 1.0
C      1  0.4135920000000  0.4940930000000  0.5657450000000 1.0
C      1  0.4993470000000  0.5029070000000  0.3723160000000 1.0
C      1  0.4724280000000  0.5125390000000  0.6210200000000 1.0
C      1  0.6123850000000  0.5129300000000  0.5070530000000 1.0
C      1  0.5698070000000  0.4950390000000  0.4406630000000 1.0
C      1  0.5706160000000  0.4888090000000  0.5598910000000 1.0
C      1  0.4639890000000  0.5455120000000  0.5866660000000 1.0
C      1  0.4903280000000  0.3861720000000  0.5259150000000 1.0
C      1  0.4677470000000  0.4332860000000  0.5213640000000 1.0
C      1  0.3854920000000  0.5157240000000  0.5026450000000 1.0
C      1  0.4968780000000  0.4477980000000  0.4168410000000 1.0
C      1  0.6011220000000  0.5352360000000  0.4933690000000 1.0
C      1  0.5881890000000  0.4474540000000  0.4549300000000 1.0
C      1  0.4407320000000  0.4464500000000  0.4646420000000 1.0
C      1  0.5626760000000  0.5944060000000  0.5136030000000 1.0
C      1  0.4406150000000  0.5154660000000  0.5306520000000 1.0
C      1  0.3960150000000  0.5082250000000  0.4560500000000 1.0
C      1  0.5335080000000  0.4871990000000  0.4990640000000 1.0
C      1  0.5420340000000  0.6143980000000  0.4743350000000 1.0
C      1  0.4987020000000  0.5574430000000  0.4252710000000 1.0
C      1  0.5139720000000  0.5201990000000  0.4133760000000 1.0
C      1  0.5205650000000  0.4699580000000  0.5416770000000 1.0
C      1  0.5042100000000  0.5510390000000  0.6121630000000 1.0
C      1  0.5405090000000  0.4212000000000  0.5002040000000 1.0
C      1  0.4443690000000  0.4689750000000  0.4458050000000 1.0
C      1  0.4475520000000  0.6052910000000  0.5062770000000 1.0
C      1  0.4952390000000  0.4347260000000  0.5977000000000 1.0
C      1  0.5534020000000  0.4096370000000  0.4570660000000 1.0
C      1  0.5633540000000  0.4992860000000  0.4126380000000 1.0
C      1  0.4908490000000  0.5793850000000  0.4804040000000 1.0
C      1  0.6148300000000  0.4559070000000  0.4562160000000 1.0
END
