TITL C-612603-7354-970 0.000247618898492683 125000 -561.325287452612 0 0 92 (C1) n - 1
REM
REM in /home/nfs/bkarasulu/CARBON/AIRSS/Generating-Clusters/TERSOFF/Only-C1/FIRE-HFTN
REM
REM
REM
REM
REM
REM ./C.cell (11c1c37f851c82e70ff6c80c92926a4b)
REM AIRSS Version 0.9.1 bugfix July 2018 build 013d7b7c2542+ Fri, 06 Jul 2018 19:26:36 +0100
REM compiler GCC version 9.2.1 20190827 (Red Hat 9.2.1-1)
REM options -cpp -mtune=generic -march=x86-64 -g -O0 -fpre-include=/usr/include/finclude/math-vector-fortran.h
REM seed 1307035496 -778668290 -64125859 -225216257 666483536 -894348066 -1445738732 676617304 1406531829 -1245958746 1045127773 -1907730079 -1606227318 1168379169 43359918 136017966 1443061341 1262843111 -441213854 1666318558 791886572 -1029705221 -572013920 -2009820109 1694639408 -1123905467 -1412766249 -220690646 -800749774 -137093623 -1946254679 -1861715140 773093317
REM
CELL 1.54180   50.00000   50.00000   50.00000   90.00000   90.00000   90.00000
LATT -1
SFAC C  
C      1  0.5585590000000  0.4323310000000  0.4911550000000 1.0
C      1  0.5523900000000  0.5544700000000  0.5372940000000 1.0
C      1  0.5454990000000  0.4945500000000  0.4822220000000 1.0
C      1  0.4827320000000  0.5078370000000  0.4601140000000 1.0
C      1  0.5578440000000  0.4395350000000  0.4630300000000 1.0
C      1  0.3887570000000  0.4713980000000  0.5390430000000 1.0
C      1  0.4647120000000  0.4367680000000  0.4771820000000 1.0
C      1  0.5960850000000  0.5554840000000  0.5586720000000 1.0
C      1  0.5505440000000  0.5860550000000  0.4583380000000 1.0
C      1  0.5167530000000  0.6252290000000  0.5390520000000 1.0
C      1  0.5052930000000  0.5208440000000  0.4725020000000 1.0
C      1  0.5114070000000  0.5115080000000  0.5723200000000 1.0
C      1  0.4022120000000  0.4231170000000  0.5353710000000 1.0
C      1  0.4375960000000  0.5212160000000  0.4028370000000 1.0
C      1  0.4589990000000  0.4650610000000  0.5579630000000 1.0
C      1  0.4445420000000  0.5320800000000  0.4493340000000 1.0
C      1  0.5869200000000  0.4720200000000  0.5153990000000 1.0
C      1  0.5886020000000  0.5243090000000  0.5215440000000 1.0
C      1  0.4081090000000  0.4509070000000  0.5421370000000 1.0
C      1  0.5285250000000  0.3965800000000  0.4776650000000 1.0
C      1  0.4590910000000  0.5209880000000  0.4702520000000 1.0
C      1  0.5493400000000  0.6077490000000  0.4736100000000 1.0
C      1  0.3653720000000  0.4692580000000  0.5533550000000 1.0
C      1  0.4503490000000  0.5153320000000  0.5409220000000 1.0
C      1  0.4749500000000  0.5492220000000  0.4166590000000 1.0
C      1  0.4475010000000  0.4220550000000  0.5461720000000 1.0
C      1  0.4936440000000  0.5329940000000  0.5676110000000 1.0
C      1  0.5054730000000  0.4673250000000  0.4551230000000 1.0
C      1  0.4478230000000  0.4153410000000  0.4840650000000 1.0
C      1  0.4921390000000  0.4281930000000  0.4738230000000 1.0
C      1  0.5123590000000  0.5165110000000  0.4058570000000 1.0
C      1  0.5319300000000  0.4849340000000  0.5055310000000 1.0
C      1  0.4676290000000  0.5257770000000  0.5603050000000 1.0
C      1  0.5046830000000  0.4039820000000  0.4668770000000 1.0
C      1  0.6121380000000  0.5645540000000  0.5770880000000 1.0
C      1  0.5417830000000  0.6234770000000  0.4936430000000 1.0
C      1  0.4964580000000  0.5307540000000  0.4985140000000 1.0
C      1  0.5393320000000  0.4116970000000  0.4996180000000 1.0
C      1  0.4020630000000  0.5403150000000  0.5019970000000 1.0
C      1  0.5433650000000  0.5605880000000  0.4494610000000 1.0
C      1  0.4776170000000  0.3876460000000  0.5122810000000 1.0
C      1  0.5551970000000  0.4919030000000  0.5658590000000 1.0
C      1  0.5014430000000  0.5831040000000  0.5637570000000 1.0
C      1  0.5062150000000  0.5565280000000  0.5570840000000 1.0
C      1  0.5805050000000  0.4928320000000  0.5572090000000 1.0
C      1  0.5228420000000  0.4469030000000  0.5861810000000 1.0
C      1  0.5263190000000  0.4715230000000  0.4366810000000 1.0
C      1  0.5156160000000  0.5291790000000  0.5192310000000 1.0
C      1  0.4597180000000  0.5045610000000  0.5160620000000 1.0
C      1  0.5269260000000  0.5035460000000  0.5268210000000 1.0
C      1  0.5029320000000  0.5413320000000  0.4179880000000 1.0
C      1  0.5788960000000  0.5448520000000  0.5393940000000 1.0
C      1  0.4577960000000  0.5562490000000  0.4393760000000 1.0
C      1  0.4851570000000  0.4529880000000  0.5471280000000 1.0
C      1  0.5922480000000  0.5328280000000  0.4947500000000 1.0
C      1  0.4280000000000  0.5766710000000  0.4730670000000 1.0
C      1  0.4357520000000  0.4496080000000  0.5516020000000 1.0
C      1  0.4235500000000  0.5232310000000  0.5410420000000 1.0
C      1  0.5885800000000  0.4964150000000  0.5302870000000 1.0
C      1  0.5749920000000  0.4489390000000  0.5075770000000 1.0
C      1  0.5305830000000  0.4997960000000  0.5552250000000 1.0
C      1  0.4035390000000  0.5198890000000  0.5215150000000 1.0
C      1  0.5114050000000  0.5148660000000  0.3783490000000 1.0
C      1  0.5070800000000  0.4537060000000  0.5665510000000 1.0
C      1  0.3918930000000  0.4942280000000  0.5224870000000 1.0
C      1  0.5299690000000  0.6301240000000  0.5165020000000 1.0
C      1  0.5235900000000  0.4941650000000  0.4197260000000 1.0
C      1  0.5245500000000  0.5504930000000  0.5358330000000 1.0
C      1  0.4118580000000  0.5613320000000  0.4882900000000 1.0
C      1  0.4805050000000  0.4800570000000  0.4591500000000 1.0
C      1  0.5484200000000  0.4542250000000  0.4421140000000 1.0
C      1  0.5058980000000  0.6083620000000  0.5565480000000 1.0
C      1  0.5728110000000  0.4964710000000  0.4720000000000 1.0
C      1  0.4590980000000  0.5367310000000  0.3960550000000 1.0
C      1  0.4674970000000  0.5251010000000  0.4978250000000 1.0
C      1  0.4930170000000  0.4058690000000  0.5279520000000 1.0
C      1  0.4761740000000  0.4239000000000  0.5426070000000 1.0
C      1  0.5774950000000  0.5255090000000  0.4720330000000 1.0
C      1  0.5096290000000  0.4504540000000  0.4779930000000 1.0
C      1  0.5210380000000  0.4106000000000  0.5221140000000 1.0
C      1  0.4471330000000  0.5781770000000  0.4537540000000 1.0
C      1  0.4669360000000  0.4777580000000  0.5069070000000 1.0
C      1  0.5326040000000  0.5175630000000  0.4695680000000 1.0
C      1  0.5130930000000  0.4636260000000  0.5033150000000 1.0
C      1  0.5913760000000  0.4796040000000  0.4615990000000 1.0
C      1  0.4561990000000  0.3925700000000  0.4963340000000 1.0
C      1  0.4897930000000  0.4654680000000  0.5201580000000 1.0
C      1  0.5525480000000  0.5374570000000  0.4626720000000 1.0
C      1  0.4635930000000  0.4662500000000  0.4794910000000 1.0
C      1  0.4301380000000  0.5184230000000  0.4289930000000 1.0
C      1  0.4243490000000  0.4068310000000  0.5384850000000 1.0
C      1  0.5223880000000  0.5572120000000  0.4308230000000 1.0
END
