TITL C-612601-4209-880 7.72470624743124e-06 125000 -591.889920288199 0 0 97 (C1) n - 1
REM
REM in /home/nfs/bkarasulu/CARBON/AIRSS/Generating-Clusters/TERSOFF/Only-C1/FIRE-HFTN
REM
REM
REM
REM
REM
REM ./C.cell (11c1c37f851c82e70ff6c80c92926a4b)
REM AIRSS Version 0.9.1 bugfix July 2018 build 013d7b7c2542+ Fri, 06 Jul 2018 19:26:36 +0100
REM compiler GCC version 9.2.1 20190827 (Red Hat 9.2.1-1)
REM options -cpp -mtune=generic -march=x86-64 -g -O0 -fpre-include=/usr/include/finclude/math-vector-fortran.h
REM seed 1195327024 33546817 -2081900946 869198903 -1449127888 -394736763 425256317 1016957619 -1844650680 611685193 1703505827 609865792 909299087 1407736514 139146148 -1511596149 768254635 1755154682 593832590 -1541449069 305304102 95307724 632527377 378344722 -267884640 -647929673 -2068238525 -1602603177 128465252 1380334110 -229730808 -848176208 -1285298226
REM
CELL 1.54180   50.00000   50.00000   50.00000   90.00000   90.00000   90.00000
LATT -1
SFAC C  
C      1  0.4154550000000  0.4586420000000  0.4907190000000 1.0
C      1  0.4408760000000  0.4315880000000  0.5823280000000 1.0
C      1  0.5436440000000  0.4923260000000  0.4736350000000 1.0
C      1  0.4991780000000  0.5331370000000  0.4648190000000 1.0
C      1  0.5233800000000  0.5749070000000  0.4650970000000 1.0
C      1  0.4805550000000  0.4219750000000  0.4419070000000 1.0
C      1  0.5253180000000  0.4240120000000  0.4144980000000 1.0
C      1  0.4004030000000  0.5206500000000  0.4861920000000 1.0
C      1  0.4781670000000  0.4805700000000  0.5981000000000 1.0
C      1  0.5609180000000  0.4831640000000  0.5497810000000 1.0
C      1  0.4594400000000  0.5029390000000  0.5082170000000 1.0
C      1  0.4612310000000  0.5234210000000  0.4886360000000 1.0
C      1  0.4359190000000  0.5122520000000  0.5665010000000 1.0
C      1  0.5438610000000  0.5091630000000  0.4961030000000 1.0
C      1  0.5466720000000  0.4406390000000  0.4125720000000 1.0
C      1  0.4496030000000  0.4201770000000  0.5598350000000 1.0
C      1  0.4567750000000  0.5229470000000  0.4229640000000 1.0
C      1  0.4420900000000  0.5278940000000  0.4681420000000 1.0
C      1  0.5804950000000  0.5292330000000  0.5411460000000 1.0
C      1  0.4961670000000  0.5397060000000  0.5787670000000 1.0
C      1  0.4503530000000  0.4788510000000  0.6006290000000 1.0
C      1  0.5722060000000  0.5550150000000  0.5310570000000 1.0
C      1  0.5629660000000  0.5113930000000  0.5557490000000 1.0
C      1  0.4948590000000  0.4691850000000  0.4943020000000 1.0
C      1  0.4427980000000  0.5547350000000  0.5354810000000 1.0
C      1  0.5258890000000  0.5342880000000  0.4079530000000 1.0
C      1  0.4957160000000  0.5488880000000  0.5110850000000 1.0
C      1  0.5141420000000  0.5862680000000  0.4911420000000 1.0
C      1  0.5146730000000  0.4527300000000  0.4818570000000 1.0
C      1  0.5521560000000  0.5755410000000  0.4632520000000 1.0
C      1  0.4362660000000  0.5020020000000  0.5927780000000 1.0
C      1  0.4339810000000  0.5034330000000  0.5209500000000 1.0
C      1  0.5340090000000  0.4432470000000  0.5248700000000 1.0
C      1  0.5176380000000  0.5390540000000  0.5228790000000 1.0
C      1  0.4476880000000  0.5382270000000  0.5587940000000 1.0
C      1  0.4182400000000  0.5408210000000  0.4766780000000 1.0
C      1  0.4934850000000  0.6250410000000  0.5098440000000 1.0
C      1  0.5152990000000  0.5204520000000  0.5721810000000 1.0
C      1  0.4694490000000  0.4389280000000  0.4626890000000 1.0
C      1  0.4744540000000  0.4298600000000  0.4906020000000 1.0
C      1  0.6112920000000  0.4943660000000  0.5185080000000 1.0
C      1  0.5431930000000  0.5227110000000  0.5723590000000 1.0
C      1  0.6038840000000  0.5167420000000  0.5312730000000 1.0
C      1  0.4997070000000  0.4763260000000  0.5806910000000 1.0
C      1  0.4208190000000  0.4661760000000  0.5419890000000 1.0
C      1  0.6023900000000  0.4725110000000  0.5032690000000 1.0
C      1  0.5364310000000  0.4430930000000  0.4963300000000 1.0
C      1  0.3961330000000  0.4978090000000  0.4696910000000 1.0
C      1  0.5609440000000  0.5725700000000  0.5113910000000 1.0
C      1  0.5657530000000  0.5256250000000  0.4951630000000 1.0
C      1  0.5054560000000  0.4957920000000  0.5606470000000 1.0
C      1  0.6224070000000  0.4638380000000  0.4290450000000 1.0
C      1  0.4838770000000  0.4256270000000  0.5184290000000 1.0
C      1  0.4391340000000  0.4825070000000  0.4527680000000 1.0
C      1  0.6037790000000  0.4665650000000  0.4487920000000 1.0
C      1  0.5607520000000  0.4647830000000  0.4188700000000 1.0
C      1  0.5048790000000  0.4955370000000  0.5316860000000 1.0
C      1  0.5096190000000  0.5547550000000  0.4495250000000 1.0
C      1  0.5602100000000  0.4706390000000  0.4667130000000 1.0
C      1  0.4222790000000  0.5657000000000  0.4895550000000 1.0
C      1  0.4839950000000  0.4872110000000  0.5134870000000 1.0
C      1  0.5533980000000  0.4890870000000  0.4062090000000 1.0
C      1  0.5104440000000  0.4280090000000  0.5322740000000 1.0
C      1  0.5047690000000  0.5473150000000  0.4216630000000 1.0
C      1  0.5698970000000  0.5738810000000  0.4840670000000 1.0
C      1  0.4777750000000  0.5387350000000  0.4157610000000 1.0
C      1  0.4438680000000  0.5691240000000  0.5106330000000 1.0
C      1  0.5182390000000  0.4513180000000  0.4541920000000 1.0
C      1  0.5416840000000  0.5130480000000  0.4036830000000 1.0
C      1  0.5584060000000  0.4599870000000  0.5331220000000 1.0
C      1  0.6111670000000  0.4690630000000  0.4762980000000 1.0
C      1  0.4632550000000  0.4670770000000  0.4536770000000 1.0
C      1  0.5618350000000  0.4516580000000  0.4876920000000 1.0
C      1  0.4313070000000  0.4923900000000  0.5465180000000 1.0
C      1  0.4393830000000  0.4530620000000  0.5982320000000 1.0
C      1  0.5756410000000  0.4671230000000  0.4433880000000 1.0
C      1  0.4705970000000  0.5455830000000  0.5737730000000 1.0
C      1  0.5345540000000  0.5839350000000  0.5121150000000 1.0
C      1  0.4157330000000  0.4549880000000  0.5175630000000 1.0
C      1  0.5179180000000  0.4279950000000  0.5808150000000 1.0
C      1  0.5781380000000  0.4591170000000  0.5104600000000 1.0
C      1  0.5130550000000  0.4154880000000  0.5575620000000 1.0
C      1  0.5071210000000  0.4665930000000  0.4352200000000 1.0
C      1  0.4898600000000  0.5995620000000  0.4996130000000 1.0
C      1  0.4434350000000  0.5109060000000  0.4452410000000 1.0
C      1  0.4626430000000  0.5905420000000  0.4989570000000 1.0
C      1  0.4091560000000  0.5136440000000  0.5119300000000 1.0
C      1  0.4862200000000  0.4825980000000  0.4442480000000 1.0
C      1  0.4629330000000  0.4191950000000  0.5367610000000 1.0
C      1  0.4155450000000  0.4765710000000  0.4684740000000 1.0
C      1  0.4845480000000  0.5383180000000  0.4879210000000 1.0
C      1  0.5250560000000  0.5120990000000  0.5178510000000 1.0
C      1  0.4454120000000  0.6043700000000  0.4796480000000 1.0
C      1  0.4947850000000  0.5078070000000  0.4532620000000 1.0
C      1  0.5011910000000  0.4171030000000  0.4248980000000 1.0
C      1  0.5155520000000  0.4540180000000  0.5863950000000 1.0
C      1  0.4221360000000  0.5905050000000  0.4749690000000 1.0
END
