TITL C-612604-1799-156 0.517254451288419 125000 -1226.4202484579 0 0 197 (C1) n - 1
REM
REM in /home/nfs/bkarasulu/CARBON/AIRSS/Generating-Clusters/TERSOFF/Only-C1/FIRE-HFTN
REM
REM
REM
REM
REM
REM ./C.cell (11c1c37f851c82e70ff6c80c92926a4b)
REM AIRSS Version 0.9.1 bugfix July 2018 build 013d7b7c2542+ Fri, 06 Jul 2018 19:26:36 +0100
REM compiler GCC version 9.2.1 20190827 (Red Hat 9.2.1-1)
REM options -cpp -mtune=generic -march=x86-64 -g -O0 -fpre-include=/usr/include/finclude/math-vector-fortran.h
REM seed -1949952294 -1599179948 947992270 -321461935 -1989718597 -1669972059 -2120948760 1801589270 -1607363660 1067403200 990001489 2060078219 602715581 -1502958198 -1851857844 128516260 1228162338 1111048542 -1730518796 698904405 -1319572310 -1265325187 1665837293 -836670361 2068530439 2072607455 1419661532 -415288339 771149850 1118248345 -1107434818 824021434 531336453
REM
CELL 1.54180   50.00000   50.00000   50.00000   90.00000   90.00000   90.00000
LATT -1
SFAC C  
C      1  0.5826990000000  0.4125330000000  0.5226820000000 1.0
C      1  0.6043800000000  0.4983660000000  0.5609060000000 1.0
C      1  0.4725510000000  0.4861660000000  0.5695930000000 1.0
C      1  0.4771490000000  0.4468630000000  0.3743960000000 1.0
C      1  0.4547470000000  0.4708550000000  0.5875420000000 1.0
C      1  0.5389050000000  0.3616270000000  0.5338980000000 1.0
C      1  0.5613200000000  0.5179410000000  0.5837830000000 1.0
C      1  0.4505030000000  0.5526590000000  0.4109120000000 1.0
C      1  0.5045980000000  0.6431430000000  0.5227760000000 1.0
C      1  0.5761060000000  0.5068900000000  0.5629400000000 1.0
C      1  0.5614330000000  0.4167820000000  0.5672960000000 1.0
C      1  0.5281440000000  0.5474930000000  0.5713830000000 1.0
C      1  0.3989720000000  0.4304490000000  0.4986720000000 1.0
C      1  0.4887720000000  0.5896500000000  0.4633490000000 1.0
C      1  0.4620280000000  0.5314350000000  0.3949490000000 1.0
C      1  0.3789020000000  0.4769440000000  0.5164130000000 1.0
C      1  0.5766320000000  0.5774870000000  0.4811510000000 1.0
C      1  0.4234060000000  0.5336680000000  0.5318140000000 1.0
C      1  0.4799810000000  0.4552290000000  0.5336180000000 1.0
C      1  0.5816700000000  0.4245860000000  0.5486040000000 1.0
C      1  0.4647100000000  0.5873590000000  0.4473310000000 1.0
C      1  0.5350800000000  0.4919300000000  0.5306570000000 1.0
C      1  0.4235650000000  0.5402360000000  0.5043610000000 1.0
C      1  0.5286770000000  0.4631050000000  0.6156390000000 1.0
C      1  0.5802940000000  0.4581900000000  0.4550860000000 1.0
C      1  0.5014420000000  0.4429520000000  0.4565460000000 1.0
C      1  0.4707280000000  0.5358130000000  0.5390050000000 1.0
C      1  0.4354090000000  0.4291200000000  0.4056360000000 1.0
C      1  0.4445030000000  0.3991730000000  0.4443490000000 1.0
C      1  0.5129990000000  0.4830970000000  0.3763310000000 1.0
C      1  0.4951260000000  0.6523540000000  0.5459260000000 1.0
C      1  0.5651320000000  0.5321240000000  0.4072560000000 1.0
C      1  0.5348940000000  0.4428880000000  0.5314010000000 1.0
C      1  0.4862410000000  0.5294400000000  0.4903290000000 1.0
C      1  0.5053240000000  0.5125020000000  0.6522690000000 1.0
C      1  0.4696700000000  0.6179310000000  0.6101870000000 1.0
C      1  0.5153880000000  0.5145270000000  0.3829160000000 1.0
C      1  0.4451960000000  0.5458570000000  0.5454320000000 1.0
C      1  0.4803200000000  0.4722510000000  0.4873270000000 1.0
C      1  0.5487610000000  0.4460610000000  0.6040870000000 1.0
C      1  0.4244880000000  0.4280500000000  0.5124230000000 1.0
C      1  0.4913200000000  0.4344000000000  0.5965630000000 1.0
C      1  0.4648210000000  0.5742040000000  0.6396090000000 1.0
C      1  0.6330440000000  0.4753300000000  0.4733890000000 1.0
C      1  0.5985680000000  0.4627270000000  0.5968100000000 1.0
C      1  0.5115550000000  0.5186610000000  0.4963360000000 1.0
C      1  0.5364300000000  0.4659480000000  0.5170980000000 1.0
C      1  0.4392200000000  0.4782860000000  0.4373540000000 1.0
C      1  0.5761610000000  0.5539670000000  0.4246960000000 1.0
C      1  0.5351440000000  0.4065240000000  0.4241380000000 1.0
C      1  0.5150630000000  0.5201940000000  0.5791980000000 1.0
C      1  0.5089500000000  0.4965060000000  0.4286120000000 1.0
C      1  0.5212660000000  0.3768300000000  0.5197060000000 1.0
C      1  0.5029800000000  0.4319740000000  0.5008680000000 1.0
C      1  0.4882460000000  0.4719790000000  0.3623780000000 1.0
C      1  0.4784230000000  0.6810310000000  0.4630660000000 1.0
C      1  0.6263090000000  0.5233250000000  0.5154270000000 1.0
C      1  0.4928780000000  0.5064490000000  0.5673290000000 1.0
C      1  0.4098120000000  0.4528770000000  0.5815550000000 1.0
C      1  0.4996910000000  0.3905280000000  0.5321960000000 1.0
C      1  0.5755340000000  0.4694490000000  0.5360450000000 1.0
C      1  0.4147850000000  0.5214530000000  0.4309110000000 1.0
C      1  0.4923630000000  0.5181390000000  0.5409840000000 1.0
C      1  0.4852040000000  0.6487750000000  0.5703500000000 1.0
C      1  0.6219000000000  0.5308650000000  0.4887990000000 1.0
C      1  0.4866820000000  0.4538280000000  0.5074860000000 1.0
C      1  0.4656110000000  0.5748830000000  0.4212690000000 1.0
C      1  0.5278950000000  0.5664640000000  0.5488290000000 1.0
C      1  0.5604650000000  0.4923860000000  0.5437750000000 1.0
C      1  0.4865820000000  0.4369670000000  0.4339910000000 1.0
C      1  0.5715540000000  0.4142760000000  0.4704310000000 1.0
C      1  0.5451860000000  0.4668300000000  0.4900880000000 1.0
C      1  0.4884580000000  0.5288110000000  0.3825160000000 1.0
C      1  0.5007550000000  0.4688640000000  0.4677230000000 1.0
C      1  0.4629770000000  0.6626000000000  0.4742090000000 1.0
C      1  0.5128360000000  0.3958130000000  0.4713930000000 1.0
C      1  0.5523770000000  0.5744970000000  0.5346590000000 1.0
C      1  0.5218890000000  0.4571620000000  0.3910640000000 1.0
C      1  0.4578380000000  0.4889860000000  0.4865280000000 1.0
C      1  0.4405040000000  0.6144240000000  0.5245990000000 1.0
C      1  0.5214490000000  0.5443350000000  0.4221930000000 1.0
C      1  0.4362990000000  0.4714140000000  0.5382560000000 1.0
C      1  0.5631160000000  0.5913070000000  0.4600970000000 1.0
C      1  0.6049930000000  0.4694190000000  0.5699700000000 1.0
C      1  0.4809680000000  0.5322750000000  0.4448430000000 1.0
C      1  0.4374340000000  0.5876310000000  0.4580690000000 1.0
C      1  0.5910240000000  0.4852210000000  0.4962020000000 1.0
C      1  0.4326750000000  0.5012830000000  0.4221500000000 1.0
C      1  0.6484530000000  0.4502270000000  0.5333620000000 1.0
C      1  0.4498010000000  0.6428990000000  0.4860310000000 1.0
C      1  0.4062910000000  0.4695880000000  0.4784370000000 1.0
C      1  0.5360910000000  0.5320050000000  0.3992470000000 1.0
C      1  0.5105460000000  0.6198890000000  0.5088130000000 1.0
C      1  0.4946410000000  0.3886140000000  0.4501210000000 1.0
C      1  0.4219830000000  0.4336360000000  0.5641420000000 1.0
C      1  0.5031640000000  0.4511380000000  0.6164390000000 1.0
C      1  0.4864690000000  0.5828850000000  0.4913170000000 1.0
C      1  0.4451210000000  0.4211960000000  0.5761220000000 1.0
C      1  0.5371780000000  0.4572770000000  0.4156530000000 1.0
C      1  0.5996620000000  0.5467270000000  0.4408080000000 1.0
C      1  0.4391130000000  0.5326030000000  0.4840900000000 1.0
C      1  0.5549940000000  0.4991890000000  0.4374610000000 1.0
C      1  0.4939290000000  0.4208740000000  0.4120750000000 1.0
C      1  0.5762850000000  0.5604400000000  0.5267100000000 1.0
C      1  0.4961030000000  0.5958920000000  0.5146320000000 1.0
C      1  0.5742040000000  0.5261300000000  0.4763480000000 1.0
C      1  0.5532850000000  0.5459140000000  0.5881480000000 1.0
C      1  0.5498970000000  0.5986590000000  0.5186780000000 1.0
C      1  0.4266640000000  0.4189560000000  0.4316920000000 1.0
C      1  0.5003810000000  0.4364120000000  0.3891380000000 1.0
C      1  0.5735080000000  0.5063780000000  0.4172400000000 1.0
C      1  0.4048330000000  0.4313890000000  0.4488480000000 1.0
C      1  0.6183160000000  0.4756250000000  0.4974510000000 1.0
C      1  0.4825850000000  0.5561180000000  0.4952530000000 1.0
C      1  0.6003680000000  0.4697310000000  0.4375770000000 1.0
C      1  0.4493190000000  0.4395690000000  0.4720840000000 1.0
C      1  0.4255230000000  0.5479510000000  0.4265510000000 1.0
C      1  0.5254070000000  0.4797280000000  0.4746580000000 1.0
C      1  0.5047530000000  0.5800720000000  0.5376180000000 1.0
C      1  0.5014000000000  0.4102770000000  0.5539980000000 1.0
C      1  0.6264350000000  0.4703000000000  0.4479740000000 1.0
C      1  0.4516620000000  0.4383440000000  0.3854300000000 1.0
C      1  0.4652500000000  0.5969060000000  0.6258110000000 1.0
C      1  0.4631520000000  0.4408160000000  0.5896130000000 1.0
C      1  0.5354140000000  0.6113410000000  0.4972730000000 1.0
C      1  0.5760750000000  0.4525380000000  0.6076700000000 1.0
C      1  0.5622320000000  0.5524960000000  0.4814430000000 1.0
C      1  0.5159510000000  0.5887750000000  0.4534390000000 1.0
C      1  0.3822330000000  0.5174580000000  0.4703430000000 1.0
C      1  0.4252410000000  0.4775070000000  0.5818580000000 1.0
C      1  0.3989040000000  0.4602300000000  0.4519080000000 1.0
C      1  0.5045540000000  0.5245270000000  0.4339650000000 1.0
C      1  0.4849380000000  0.4323630000000  0.5475710000000 1.0
C      1  0.5374160000000  0.6024300000000  0.4695950000000 1.0
C      1  0.3732370000000  0.5502510000000  0.5039440000000 1.0
C      1  0.3786500000000  0.5230440000000  0.4982920000000 1.0
C      1  0.4461450000000  0.4217290000000  0.4942410000000 1.0
C      1  0.4727170000000  0.3879620000000  0.5193040000000 1.0
C      1  0.5284330000000  0.5078580000000  0.4765230000000 1.0
C      1  0.5143930000000  0.5106580000000  0.5237950000000 1.0
C      1  0.5914190000000  0.4515950000000  0.5508800000000 1.0
C      1  0.4267670000000  0.4434140000000  0.5369340000000 1.0
C      1  0.3872470000000  0.4818570000000  0.4375380000000 1.0
C      1  0.4201010000000  0.5694040000000  0.4442230000000 1.0
C      1  0.3860140000000  0.5044070000000  0.5198300000000 1.0
C      1  0.3818620000000  0.5750680000000  0.4987580000000 1.0
C      1  0.4203410000000  0.4898250000000  0.5545090000000 1.0
C      1  0.4502180000000  0.5059430000000  0.4006360000000 1.0
C      1  0.3919790000000  0.5098010000000  0.4446740000000 1.0
C      1  0.5404880000000  0.4254830000000  0.5847880000000 1.0
C      1  0.5809100000000  0.5119800000000  0.5021280000000 1.0
C      1  0.4258660000000  0.6004960000000  0.4807320000000 1.0
C      1  0.5364450000000  0.5041930000000  0.5915130000000 1.0
C      1  0.4424510000000  0.5723910000000  0.5540640000000 1.0
C      1  0.5102780000000  0.4235950000000  0.4755580000000 1.0
C      1  0.4306180000000  0.4813370000000  0.4861700000000 1.0
C      1  0.5321730000000  0.4913990000000  0.6163930000000 1.0
C      1  0.4002400000000  0.5919790000000  0.4893240000000 1.0
C      1  0.5583650000000  0.5742090000000  0.4358650000000 1.0
C      1  0.5779700000000  0.4096120000000  0.4962800000000 1.0
C      1  0.4502310000000  0.3956410000000  0.5651160000000 1.0
C      1  0.5292270000000  0.5104920000000  0.6377720000000 1.0
C      1  0.4537540000000  0.3843880000000  0.5407020000000 1.0
C      1  0.3956630000000  0.4167090000000  0.4729130000000 1.0
C      1  0.5341040000000  0.4828140000000  0.4288880000000 1.0
C      1  0.4477270000000  0.4572670000000  0.4517380000000 1.0
C      1  0.4841380000000  0.5283490000000  0.6556580000000 1.0
C      1  0.5676580000000  0.4332950000000  0.4494290000000 1.0
C      1  0.4620830000000  0.5163970000000  0.4846570000000 1.0
C      1  0.5902040000000  0.5766870000000  0.5063680000000 1.0
C      1  0.5446620000000  0.5345570000000  0.6354900000000 1.0
C      1  0.5070500000000  0.3981720000000  0.4244340000000 1.0
C      1  0.4876610000000  0.4822730000000  0.4180480000000 1.0
C      1  0.5118870000000  0.4189370000000  0.5802730000000 1.0
C      1  0.4390850000000  0.6196680000000  0.4970340000000 1.0
C      1  0.4765310000000  0.6360680000000  0.5920240000000 1.0
C      1  0.4941420000000  0.6988580000000  0.4523560000000 1.0
C      1  0.6206520000000  0.5118630000000  0.5402650000000 1.0
C      1  0.5289550000000  0.5694940000000  0.4343410000000 1.0
C      1  0.4076880000000  0.5106450000000  0.5389950000000 1.0
C      1  0.6308390000000  0.4630440000000  0.5189920000000 1.0
C      1  0.4409140000000  0.5975050000000  0.5451750000000 1.0
C      1  0.4705080000000  0.5505910000000  0.6504120000000 1.0
C      1  0.5523120000000  0.5518440000000  0.6159280000000 1.0
C      1  0.5782720000000  0.5321330000000  0.5229130000000 1.0
C      1  0.4640820000000  0.4751600000000  0.5436290000000 1.0
C      1  0.6025430000000  0.5335690000000  0.4664940000000 1.0
C      1  0.5524670000000  0.5130110000000  0.4617670000000 1.0
C      1  0.4626430000000  0.3972630000000  0.4922780000000 1.0
C      1  0.4667170000000  0.3908120000000  0.4618290000000 1.0
C      1  0.5479310000000  0.4322900000000  0.4282810000000 1.0
C      1  0.3841840000000  0.3919080000000  0.4712000000000 1.0
C      1  0.3900780000000  0.4579390000000  0.4991330000000 1.0
C      1  0.4684350000000  0.4850140000000  0.3999450000000 1.0
C      1  0.5229340000000  0.3795320000000  0.4916600000000 1.0
C      1  0.5726330000000  0.4688030000000  0.4810720000000 1.0
C      1  0.5942750000000  0.4876750000000  0.4163240000000 1.0
END
