TITL C-612604-1799-972 5.60374218838551e-05 125000 -569.001043103704 0 0 97 (C1) n - 1
REM
REM in /home/nfs/bkarasulu/CARBON/AIRSS/Generating-Clusters/TERSOFF/Only-C1/FIRE-HFTN
REM
REM
REM
REM
REM
REM ./C.cell (11c1c37f851c82e70ff6c80c92926a4b)
REM AIRSS Version 0.9.1 bugfix July 2018 build 013d7b7c2542+ Fri, 06 Jul 2018 19:26:36 +0100
REM compiler GCC version 9.2.1 20190827 (Red Hat 9.2.1-1)
REM options -cpp -mtune=generic -march=x86-64 -g -O0 -fpre-include=/usr/include/finclude/math-vector-fortran.h
REM seed 540717742 -1079501877 -1861268860 -480983161 -1199827998 -1807461656 1732232544 2006499519 415696212 -2029188350 1069901732 1424808476 -54250160 700578300 -1260013100 -1348525952 -1208373983 -713742137 2007353184 -739400402 -1883896822 -1088631359 -1566782851 -1999914090 -1812505369 -1444875590 -1885676912 -1932352923 386711698 -1862710403 -1175849540 1131591138 -447946808
REM
CELL 1.54180   50.00000   50.00000   50.00000   90.00000   90.00000   90.00000
LATT -1
SFAC C  
C      1  0.5187300000000  0.4906150000000  0.4146790000000 1.0
C      1  0.4357600000000  0.5391320000000  0.5301190000000 1.0
C      1  0.5284180000000  0.5049520000000  0.5623840000000 1.0
C      1  0.4332720000000  0.4620490000000  0.4444280000000 1.0
C      1  0.5795960000000  0.5314990000000  0.4486260000000 1.0
C      1  0.5365020000000  0.5390990000000  0.5061110000000 1.0
C      1  0.5912400000000  0.4964070000000  0.5285210000000 1.0
C      1  0.4808380000000  0.4831220000000  0.5899600000000 1.0
C      1  0.4462880000000  0.4595310000000  0.5543730000000 1.0
C      1  0.6136430000000  0.5012780000000  0.5437480000000 1.0
C      1  0.4742090000000  0.4164820000000  0.4662650000000 1.0
C      1  0.4626600000000  0.5827710000000  0.5230720000000 1.0
C      1  0.5145680000000  0.5205000000000  0.4629600000000 1.0
C      1  0.4905700000000  0.4585220000000  0.5794090000000 1.0
C      1  0.5787630000000  0.5497310000000  0.4720810000000 1.0
C      1  0.5370720000000  0.4180490000000  0.5469990000000 1.0
C      1  0.5185150000000  0.4529790000000  0.5740580000000 1.0
C      1  0.4764740000000  0.3949110000000  0.5126350000000 1.0
C      1  0.4894380000000  0.4376010000000  0.4513350000000 1.0
C      1  0.4612470000000  0.5297220000000  0.4743130000000 1.0
C      1  0.4217110000000  0.5486050000000  0.5059430000000 1.0
C      1  0.4216170000000  0.4931580000000  0.5134760000000 1.0
C      1  0.4544430000000  0.5604880000000  0.5415750000000 1.0
C      1  0.4691560000000  0.4437620000000  0.5665310000000 1.0
C      1  0.5547460000000  0.4571980000000  0.4562800000000 1.0
C      1  0.5423440000000  0.5562170000000  0.4424630000000 1.0
C      1  0.5467640000000  0.4840490000000  0.4502690000000 1.0
C      1  0.5110330000000  0.5216400000000  0.5747940000000 1.0
C      1  0.5531590000000  0.5171580000000  0.5074040000000 1.0
C      1  0.5275770000000  0.5540470000000  0.5273500000000 1.0
C      1  0.5721080000000  0.4530330000000  0.4784600000000 1.0
C      1  0.4635410000000  0.4126420000000  0.4938540000000 1.0
C      1  0.4825120000000  0.5264780000000  0.5658340000000 1.0
C      1  0.5789980000000  0.4556640000000  0.5043450000000 1.0
C      1  0.5435530000000  0.5020750000000  0.4271020000000 1.0
C      1  0.5006570000000  0.5600000000000  0.5238410000000 1.0
C      1  0.4057690000000  0.5262610000000  0.4655840000000 1.0
C      1  0.5325180000000  0.4764130000000  0.5159960000000 1.0
C      1  0.5483650000000  0.4093720000000  0.4467480000000 1.0
C      1  0.4862170000000  0.4991690000000  0.4930340000000 1.0
C      1  0.4804760000000  0.4730770000000  0.5305060000000 1.0
C      1  0.5153050000000  0.4618960000000  0.4146030000000 1.0
C      1  0.4496950000000  0.4727890000000  0.4255730000000 1.0
C      1  0.4525440000000  0.5050390000000  0.4639460000000 1.0
C      1  0.4862670000000  0.4603230000000  0.4687840000000 1.0
C      1  0.4310870000000  0.5666120000000  0.4578990000000 1.0
C      1  0.3789130000000  0.5223710000000  0.4630480000000 1.0
C      1  0.4775550000000  0.4513230000000  0.5138170000000 1.0
C      1  0.5407280000000  0.4947660000000  0.4967300000000 1.0
C      1  0.4453140000000  0.4909230000000  0.5567440000000 1.0
C      1  0.4941160000000  0.5039960000000  0.4211240000000 1.0
C      1  0.5808620000000  0.5177960000000  0.5119110000000 1.0
C      1  0.4734820000000  0.4857510000000  0.4710590000000 1.0
C      1  0.4971950000000  0.5259230000000  0.4396680000000 1.0
C      1  0.5544290000000  0.5298210000000  0.4334650000000 1.0
C      1  0.5210590000000  0.5841190000000  0.5612640000000 1.0
C      1  0.4851370000000  0.5198990000000  0.5366010000000 1.0
C      1  0.5507720000000  0.5910930000000  0.5159660000000 1.0
C      1  0.4223450000000  0.4630230000000  0.4693420000000 1.0
C      1  0.4559990000000  0.5468080000000  0.4201490000000 1.0
C      1  0.5914430000000  0.5390160000000  0.4956440000000 1.0
C      1  0.5391130000000  0.4351070000000  0.4460460000000 1.0
C      1  0.4252580000000  0.5075900000000  0.4565940000000 1.0
C      1  0.4539750000000  0.4355540000000  0.5102590000000 1.0
C      1  0.5676500000000  0.4570490000000  0.5539980000000 1.0
C      1  0.5167930000000  0.4018720000000  0.5401270000000 1.0
C      1  0.4848730000000  0.4983680000000  0.5203040000000 1.0
C      1  0.5311570000000  0.4971430000000  0.4702200000000 1.0
C      1  0.4554200000000  0.5814770000000  0.4622150000000 1.0
C      1  0.4695700000000  0.4895340000000  0.4176990000000 1.0
C      1  0.5394260000000  0.5864080000000  0.4888140000000 1.0
C      1  0.5095900000000  0.5919260000000  0.4912360000000 1.0
C      1  0.4335000000000  0.5086090000000  0.5351830000000 1.0
C      1  0.5311380000000  0.4874400000000  0.5421500000000 1.0
C      1  0.4655100000000  0.5025950000000  0.5752110000000 1.0
C      1  0.4886730000000  0.4016450000000  0.5376810000000 1.0
C      1  0.4171150000000  0.5501070000000  0.4775320000000 1.0
C      1  0.4182530000000  0.4755770000000  0.4931120000000 1.0
C      1  0.5391860000000  0.5778260000000  0.5392170000000 1.0
C      1  0.4960020000000  0.5749620000000  0.5689700000000 1.0
C      1  0.5197370000000  0.5398630000000  0.4829250000000 1.0
C      1  0.4971190000000  0.4509480000000  0.4940530000000 1.0
C      1  0.4704820000000  0.5457360000000  0.4921630000000 1.0
C      1  0.4744910000000  0.4173020000000  0.5570090000000 1.0
C      1  0.4792900000000  0.5731500000000  0.4509450000000 1.0
C      1  0.4322850000000  0.5558810000000  0.4308140000000 1.0
C      1  0.4892250000000  0.5826570000000  0.5106530000000 1.0
C      1  0.4809920000000  0.5494520000000  0.4345800000000 1.0
C      1  0.5227260000000  0.4527510000000  0.5047380000000 1.0
C      1  0.4359240000000  0.4444170000000  0.5311450000000 1.0
C      1  0.4742460000000  0.5558550000000  0.5636740000000 1.0
C      1  0.5845780000000  0.4577560000000  0.5766440000000 1.0
C      1  0.5992860000000  0.4581730000000  0.5981520000000 1.0
C      1  0.5791650000000  0.4694200000000  0.5294000000000 1.0
C      1  0.5416010000000  0.4435270000000  0.5586940000000 1.0
C      1  0.5132840000000  0.4413050000000  0.4346260000000 1.0
C      1  0.5540560000000  0.5682790000000  0.4684170000000 1.0
END
