TITL C-612607-4507-1133 0.0468466916825388 125000 -1243.81513125419 0 0 200 (C1) n - 1
REM
REM in /home/nfs/bkarasulu/CARBON/AIRSS/Generating-Clusters/TERSOFF/Only-C1/FIRE-HFTN
REM
REM
REM
REM
REM
REM ./C.cell (11c1c37f851c82e70ff6c80c92926a4b)
REM AIRSS Version 0.9.1 bugfix July 2018 build 013d7b7c2542+ Fri, 06 Jul 2018 19:26:36 +0100
REM compiler GCC version 9.2.1 20190827 (Red Hat 9.2.1-1)
REM options -cpp -mtune=generic -march=x86-64 -g -O0 -fpre-include=/usr/include/finclude/math-vector-fortran.h
REM seed -618014134 637782736 -64331731 80903401 1124927083 -243835410 -2002198118 273953460 -1641078903 657910543 759089252 -311881750 -1734419099 -621441478 -714023071 1383353081 -1410604331 873622666 -1597834680 -1886365820 -1077152412 376668567 -605285891 -1095851740 1546425852 499151405 176914478 1238282160 2001013517 -247847544 -504461489 2055780511 -1237950995
REM
CELL 1.54180   50.00000   50.00000   50.00000   90.00000   90.00000   90.00000
LATT -1
SFAC C  
C      1  0.4219530000000  0.5546190000000  0.4276200000000 1.0
C      1  0.3609680000000  0.4458430000000  0.5599760000000 1.0
C      1  0.5848820000000  0.5521160000000  0.5350350000000 1.0
C      1  0.6426340000000  0.5199970000000  0.5692680000000 1.0
C      1  0.5418130000000  0.4634320000000  0.3886710000000 1.0
C      1  0.5086040000000  0.4943170000000  0.5510070000000 1.0
C      1  0.3495060000000  0.4225860000000  0.5625980000000 1.0
C      1  0.5792410000000  0.5183430000000  0.5977900000000 1.0
C      1  0.3930210000000  0.5607180000000  0.5266600000000 1.0
C      1  0.4721010000000  0.4198830000000  0.4492050000000 1.0
C      1  0.6047060000000  0.5865250000000  0.4107960000000 1.0
C      1  0.4902340000000  0.6124140000000  0.4436010000000 1.0
C      1  0.5114430000000  0.4659420000000  0.4562790000000 1.0
C      1  0.5340580000000  0.4462370000000  0.5987640000000 1.0
C      1  0.4009650000000  0.5724120000000  0.5517600000000 1.0
C      1  0.4286000000000  0.4577250000000  0.4997740000000 1.0
C      1  0.5993450000000  0.5400030000000  0.4880840000000 1.0
C      1  0.5358910000000  0.4779420000000  0.4478830000000 1.0
C      1  0.5788910000000  0.4471960000000  0.4502470000000 1.0
C      1  0.5412190000000  0.4870920000000  0.3721810000000 1.0
C      1  0.5831320000000  0.4865250000000  0.4021590000000 1.0
C      1  0.3777700000000  0.5169930000000  0.5458170000000 1.0
C      1  0.5476710000000  0.5042120000000  0.5160390000000 1.0
C      1  0.6016020000000  0.4444730000000  0.4710130000000 1.0
C      1  0.5448800000000  0.4100320000000  0.4512860000000 1.0
C      1  0.4044070000000  0.4810970000000  0.4407860000000 1.0
C      1  0.4539110000000  0.5809380000000  0.5350840000000 1.0
C      1  0.5326250000000  0.4999760000000  0.4309320000000 1.0
C      1  0.5040170000000  0.4582660000000  0.5174500000000 1.0
C      1  0.4928110000000  0.5129490000000  0.6175520000000 1.0
C      1  0.4658910000000  0.5203330000000  0.4343380000000 1.0
C      1  0.4434970000000  0.5367430000000  0.5525810000000 1.0
C      1  0.6045270000000  0.4417120000000  0.5465390000000 1.0
C      1  0.5542740000000  0.5257970000000  0.4987770000000 1.0
C      1  0.5002920000000  0.4947290000000  0.3912200000000 1.0
C      1  0.5248490000000  0.5323390000000  0.6426300000000 1.0
C      1  0.5539890000000  0.4276870000000  0.4973340000000 1.0
C      1  0.5604360000000  0.5816750000000  0.4307080000000 1.0
C      1  0.4031490000000  0.5383990000000  0.4412680000000 1.0
C      1  0.5125300000000  0.5532430000000  0.6260820000000 1.0
C      1  0.5991750000000  0.5006890000000  0.5584380000000 1.0
C      1  0.6226390000000  0.5141570000000  0.5517560000000 1.0
C      1  0.4587010000000  0.4684450000000  0.5346750000000 1.0
C      1  0.5076090000000  0.6569320000000  0.5459910000000 1.0
C      1  0.4488350000000  0.5847440000000  0.5633500000000 1.0
C      1  0.6138270000000  0.4369260000000  0.5212330000000 1.0
C      1  0.5371340000000  0.5535610000000  0.5567170000000 1.0
C      1  0.4909730000000  0.4373350000000  0.5582470000000 1.0
C      1  0.5164440000000  0.4498240000000  0.3976880000000 1.0
C      1  0.6235570000000  0.5210310000000  0.5245610000000 1.0
C      1  0.4161090000000  0.4082930000000  0.4536340000000 1.0
C      1  0.4663620000000  0.4702790000000  0.4064650000000 1.0
C      1  0.5051340000000  0.3731050000000  0.5200550000000 1.0
C      1  0.5014430000000  0.3850060000000  0.4443330000000 1.0
C      1  0.4648140000000  0.4638510000000  0.4344710000000 1.0
C      1  0.6333980000000  0.4797820000000  0.4920070000000 1.0
C      1  0.5379180000000  0.4267770000000  0.4725210000000 1.0
C      1  0.3762680000000  0.4671440000000  0.4904050000000 1.0
C      1  0.3828590000000  0.4513280000000  0.4693800000000 1.0
C      1  0.4250550000000  0.5364120000000  0.5996360000000 1.0
C      1  0.5208190000000  0.4343130000000  0.5560300000000 1.0
C      1  0.5756280000000  0.5875850000000  0.4750440000000 1.0
C      1  0.4661290000000  0.6241170000000  0.4517740000000 1.0
C      1  0.4534980000000  0.4048850000000  0.5365730000000 1.0
C      1  0.5177380000000  0.4266400000000  0.4157370000000 1.0
C      1  0.4702730000000  0.5534410000000  0.5952090000000 1.0
C      1  0.5395760000000  0.4959090000000  0.6116050000000 1.0
C      1  0.4933160000000  0.4666290000000  0.3948420000000 1.0
C      1  0.4973010000000  0.6317770000000  0.5444660000000 1.0
C      1  0.5415800000000  0.5142250000000  0.3736130000000 1.0
C      1  0.4019660000000  0.4536710000000  0.4479040000000 1.0
C      1  0.4876990000000  0.4646940000000  0.5448050000000 1.0
C      1  0.5117990000000  0.5658580000000  0.5484800000000 1.0
C      1  0.3850840000000  0.5424120000000  0.6332010000000 1.0
C      1  0.5634650000000  0.5719020000000  0.4930050000000 1.0
C      1  0.5244910000000  0.4389840000000  0.5292940000000 1.0
C      1  0.5083090000000  0.5101850000000  0.5729760000000 1.0
C      1  0.4273870000000  0.4777210000000  0.4818230000000 1.0
C      1  0.5325310000000  0.5374550000000  0.3877170000000 1.0
C      1  0.5089810000000  0.5610950000000  0.4701460000000 1.0
C      1  0.4236750000000  0.4343860000000  0.4454740000000 1.0
C      1  0.4950710000000  0.3779920000000  0.5699610000000 1.0
C      1  0.4874720000000  0.3712430000000  0.5432980000000 1.0
C      1  0.5336390000000  0.4160870000000  0.5160490000000 1.0
C      1  0.5880140000000  0.5409880000000  0.4088900000000 1.0
C      1  0.5836420000000  0.4824870000000  0.5419710000000 1.0
C      1  0.3938440000000  0.5776780000000  0.5042150000000 1.0
C      1  0.5034890000000  0.6115210000000  0.5631370000000 1.0
C      1  0.5703110000000  0.5189640000000  0.4529690000000 1.0
C      1  0.4886890000000  0.3982390000000  0.5869650000000 1.0
C      1  0.6187000000000  0.4683830000000  0.4708800000000 1.0
C      1  0.5442760000000  0.5522810000000  0.4992540000000 1.0
C      1  0.5574510000000  0.5930890000000  0.5357090000000 1.0
C      1  0.5406530000000  0.5426750000000  0.4151110000000 1.0
C      1  0.4897300000000  0.3817290000000  0.4709320000000 1.0
C      1  0.4463280000000  0.5476660000000  0.5001840000000 1.0
C      1  0.5038550000000  0.4869590000000  0.5075720000000 1.0
C      1  0.5886800000000  0.5137970000000  0.4030210000000 1.0
C      1  0.4170430000000  0.4956310000000  0.4624300000000 1.0
C      1  0.5452690000000  0.4215350000000  0.4254340000000 1.0
C      1  0.4442420000000  0.5638490000000  0.4446310000000 1.0
C      1  0.5170250000000  0.5581610000000  0.4967530000000 1.0
C      1  0.4725620000000  0.5770070000000  0.5787920000000 1.0
C      1  0.5060480000000  0.4411640000000  0.6050040000000 1.0
C      1  0.4965140000000  0.4424910000000  0.4940940000000 1.0
C      1  0.4612360000000  0.5064390000000  0.5840460000000 1.0
C      1  0.4426210000000  0.5392200000000  0.4716990000000 1.0
C      1  0.4837900000000  0.4759040000000  0.4537900000000 1.0
C      1  0.5273940000000  0.5579380000000  0.6023590000000 1.0
C      1  0.5794510000000  0.4122090000000  0.5018140000000 1.0
C      1  0.3733040000000  0.4702150000000  0.5563070000000 1.0
C      1  0.4975940000000  0.5840170000000  0.5659770000000 1.0
C      1  0.5764930000000  0.4702270000000  0.5865860000000 1.0
C      1  0.5190020000000  0.5064550000000  0.6296260000000 1.0
C      1  0.4768000000000  0.4184900000000  0.5295440000000 1.0
C      1  0.4621730000000  0.5192470000000  0.4616900000000 1.0
C      1  0.4864300000000  0.5426120000000  0.6174400000000 1.0
C      1  0.5623030000000  0.4132020000000  0.5696450000000 1.0
C      1  0.4383330000000  0.4491350000000  0.5253020000000 1.0
C      1  0.5777420000000  0.4012860000000  0.5508330000000 1.0
C      1  0.4801590000000  0.4208250000000  0.5003830000000 1.0
C      1  0.5768200000000  0.3926580000000  0.5234990000000 1.0
C      1  0.4053260000000  0.5394860000000  0.6170400000000 1.0
C      1  0.4203630000000  0.6121400000000  0.4744060000000 1.0
C      1  0.4895350000000  0.5852520000000  0.4343420000000 1.0
C      1  0.5076280000000  0.5487410000000  0.3793040000000 1.0
C      1  0.5514330000000  0.5183240000000  0.5970970000000 1.0
C      1  0.5297490000000  0.3877440000000  0.5197050000000 1.0
C      1  0.4311770000000  0.4219340000000  0.5328120000000 1.0
C      1  0.5330720000000  0.5357620000000  0.5811230000000 1.0
C      1  0.4924950000000  0.5231610000000  0.4273830000000 1.0
C      1  0.4288820000000  0.5044490000000  0.5211460000000 1.0
C      1  0.4958940000000  0.4115790000000  0.4317120000000 1.0
C      1  0.4958830000000  0.3665880000000  0.4938160000000 1.0
C      1  0.4806550000000  0.5402540000000  0.3832210000000 1.0
C      1  0.5848880000000  0.4581990000000  0.5595300000000 1.0
C      1  0.4793360000000  0.6237740000000  0.5242400000000 1.0
C      1  0.5503500000000  0.4698410000000  0.6019100000000 1.0
C      1  0.3943680000000  0.4823110000000  0.5721000000000 1.0
C      1  0.4663180000000  0.5711140000000  0.4260440000000 1.0
C      1  0.3843450000000  0.5229590000000  0.4269260000000 1.0
C      1  0.5611670000000  0.5657230000000  0.5447590000000 1.0
C      1  0.5683150000000  0.4395470000000  0.4230580000000 1.0
C      1  0.3882770000000  0.5326860000000  0.5235780000000 1.0
C      1  0.5655900000000  0.4818990000000  0.5200460000000 1.0
C      1  0.5752190000000  0.5278990000000  0.4791760000000 1.0
C      1  0.3998190000000  0.3978550000000  0.5006590000000 1.0
C      1  0.5492530000000  0.6115520000000  0.5175760000000 1.0
C      1  0.5403300000000  0.6166070000000  0.4643470000000 1.0
C      1  0.6181560000000  0.5499950000000  0.4709530000000 1.0
C      1  0.4038340000000  0.5959690000000  0.4876270000000 1.0
C      1  0.4164130000000  0.5248010000000  0.4633840000000 1.0
C      1  0.4881230000000  0.5038830000000  0.5913940000000 1.0
C      1  0.3683630000000  0.4899230000000  0.5354870000000 1.0
C      1  0.5612030000000  0.5990950000000  0.4536340000000 1.0
C      1  0.3812970000000  0.4876850000000  0.5090470000000 1.0
C      1  0.5359280000000  0.5673010000000  0.4277890000000 1.0
C      1  0.5549820000000  0.3746230000000  0.5194830000000 1.0
C      1  0.5102060000000  0.5053390000000  0.4155960000000 1.0
C      1  0.5145790000000  0.4433110000000  0.4726500000000 1.0
C      1  0.4881910000000  0.4269100000000  0.5865300000000 1.0
C      1  0.5607920000000  0.4573480000000  0.5057350000000 1.0
C      1  0.4523040000000  0.4394480000000  0.4424580000000 1.0
C      1  0.4493380000000  0.5535340000000  0.5283310000000 1.0
C      1  0.5158830000000  0.6220720000000  0.4511860000000 1.0
C      1  0.6349430000000  0.5019010000000  0.5071460000000 1.0
C      1  0.5839350000000  0.5692280000000  0.4170350000000 1.0
C      1  0.6093530000000  0.4876120000000  0.4522610000000 1.0
C      1  0.5211740000000  0.5004190000000  0.5259810000000 1.0
C      1  0.4076370000000  0.4100050000000  0.5232030000000 1.0
C      1  0.4256730000000  0.5147340000000  0.5479710000000 1.0
C      1  0.5910250000000  0.4962700000000  0.5855210000000 1.0
C      1  0.5669710000000  0.4615000000000  0.4034130000000 1.0
C      1  0.5821060000000  0.4936700000000  0.4510110000000 1.0
C      1  0.4633360000000  0.6026190000000  0.5202700000000 1.0
C      1  0.5405610000000  0.4302410000000  0.5755880000000 1.0
C      1  0.4021340000000  0.5098740000000  0.5088240000000 1.0
C      1  0.4777930000000  0.4954310000000  0.4997950000000 1.0
C      1  0.5119870000000  0.5701490000000  0.4434640000000 1.0
C      1  0.4621840000000  0.5561690000000  0.3997780000000 1.0
C      1  0.4594380000000  0.3773480000000  0.5391010000000 1.0
C      1  0.4205910000000  0.5830180000000  0.5675450000000 1.0
C      1  0.4741620000000  0.4061950000000  0.4760100000000 1.0
C      1  0.6020340000000  0.4287980000000  0.4962230000000 1.0
C      1  0.6035810000000  0.5398750000000  0.5163900000000 1.0
C      1  0.4552700000000  0.4959630000000  0.3955300000000 1.0
C      1  0.4417960000000  0.6226660000000  0.4625820000000 1.0
C      1  0.4554550000000  0.4925520000000  0.5180060000000 1.0
C      1  0.4363090000000  0.5418060000000  0.4056340000000 1.0
C      1  0.5043210000000  0.5625060000000  0.5213460000000 1.0
C      1  0.3874170000000  0.4961520000000  0.4241680000000 1.0
C      1  0.4496820000000  0.5342350000000  0.5830190000000 1.0
C      1  0.5494440000000  0.5224680000000  0.4335990000000 1.0
C      1  0.4015390000000  0.5084250000000  0.5621420000000 1.0
C      1  0.5421790000000  0.6205260000000  0.4929550000000 1.0
C      1  0.5637040000000  0.4720840000000  0.4541460000000 1.0
C      1  0.4052280000000  0.3956950000000  0.4745770000000 1.0
C      1  0.4461090000000  0.5156740000000  0.4138960000000 1.0
C      1  0.4741410000000  0.4963460000000  0.4722530000000 1.0
C      1  0.4775070000000  0.5105740000000  0.3814030000000 1.0
END
