TITL C-612604-1799-1305 1.94418415009655 125000 -276.372974742443 0 0 47 (C1) n - 1
REM
REM in /home/nfs/bkarasulu/CARBON/AIRSS/Generating-Clusters/TERSOFF/Only-C1/FIRE-HFTN
REM
REM
REM
REM
REM
REM ./C.cell (11c1c37f851c82e70ff6c80c92926a4b)
REM AIRSS Version 0.9.1 bugfix July 2018 build 013d7b7c2542+ Fri, 06 Jul 2018 19:26:36 +0100
REM compiler GCC version 9.2.1 20190827 (Red Hat 9.2.1-1)
REM options -cpp -mtune=generic -march=x86-64 -g -O0 -fpre-include=/usr/include/finclude/math-vector-fortran.h
REM seed 1920642175 539451117 1034609633 417562886 -1081577399 -947703150 893604388 -1778405441 -482004863 1878020961 -1453894148 -513266636 -957492607 -1769471287 -1447512719 -156660271 -1909111643 -1458953816 -1114970725 1583588687 -1482541141 310536115 -1832094136 -1952243462 -1332386774 1541011588 866242597 -1944082507 -1741244398 371558791 1597960121 285140437 55536362
REM
CELL 1.54180   50.00000   50.00000   50.00000   90.00000   90.00000   90.00000
LATT -1
SFAC C  
C      1  0.4830880000000  0.5036280000000  0.5410690000000 1.0
C      1  0.5784380000000  0.4730870000000  0.4877250000000 1.0
C      1  0.4294780000000  0.5525930000000  0.5056720000000 1.0
C      1  0.5260330000000  0.4732090000000  0.4737940000000 1.0
C      1  0.4300280000000  0.4748430000000  0.5199900000000 1.0
C      1  0.5307430000000  0.5426830000000  0.4677820000000 1.0
C      1  0.4964680000000  0.4595840000000  0.5320770000000 1.0
C      1  0.4736100000000  0.5711780000000  0.4299940000000 1.0
C      1  0.5398220000000  0.5225360000000  0.5448720000000 1.0
C      1  0.4809030000000  0.4082400000000  0.4849010000000 1.0
C      1  0.4208080000000  0.5254240000000  0.5067490000000 1.0
C      1  0.4628880000000  0.5031320000000  0.5605170000000 1.0
C      1  0.5042260000000  0.5464910000000  0.4602160000000 1.0
C      1  0.4371560000000  0.4954960000000  0.5622840000000 1.0
C      1  0.4752560000000  0.4246750000000  0.5050350000000 1.0
C      1  0.5015800000000  0.5579190000000  0.5379870000000 1.0
C      1  0.5529400000000  0.4754000000000  0.4809280000000 1.0
C      1  0.4553720000000  0.5588830000000  0.5153400000000 1.0
C      1  0.4975930000000  0.5677870000000  0.4423650000000 1.0
C      1  0.4934140000000  0.4058090000000  0.4599090000000 1.0
C      1  0.6036830000000  0.4723680000000  0.4957420000000 1.0
C      1  0.4749200000000  0.4504300000000  0.5158500000000 1.0
C      1  0.4132540000000  0.5720400000000  0.4953880000000 1.0
C      1  0.5042030000000  0.4846240000000  0.5424060000000 1.0
C      1  0.4076650000000  0.5150390000000  0.5297950000000 1.0
C      1  0.6785130000000  0.4731750000000  0.5212890000000 1.0
C      1  0.5535010000000  0.5398360000000  0.4811460000000 1.0
C      1  0.4578380000000  0.4915180000000  0.4899340000000 1.0
C      1  0.6287730000000  0.4725670000000  0.5042660000000 1.0
C      1  0.4820850000000  0.5292230000000  0.4676970000000 1.0
C      1  0.5180720000000  0.4522050000000  0.4570990000000 1.0
C      1  0.4334120000000  0.5047890000000  0.4924180000000 1.0
C      1  0.4535560000000  0.5535040000000  0.4351180000000 1.0
C      1  0.5667130000000  0.5337250000000  0.5034480000000 1.0
C      1  0.5080470000000  0.4282350000000  0.4515470000000 1.0
C      1  0.4545790000000  0.4685620000000  0.5080310000000 1.0
C      1  0.6538490000000  0.4728730000000  0.5128480000000 1.0
C      1  0.5231580000000  0.5453300000000  0.5483340000000 1.0
C      1  0.4828150000000  0.5200280000000  0.5175600000000 1.0
C      1  0.4914840000000  0.3832130000000  0.4447920000000 1.0
C      1  0.5625150000000  0.5261450000000  0.5287310000000 1.0
C      1  0.5291010000000  0.4964260000000  0.5482040000000 1.0
C      1  0.4580240000000  0.5333200000000  0.4527840000000 1.0
C      1  0.5070220000000  0.4908020000000  0.4843460000000 1.0
C      1  0.4832550000000  0.5079460000000  0.4892330000000 1.0
C      1  0.4802070000000  0.5480000000000  0.5224640000000 1.0
C      1  0.4199090000000  0.4914770000000  0.5403230000000 1.0
END
