TITL C-612603-7354-724 0.775904095272555 125000 -431.652008423937 0 0 71 (C1) n - 1
REM
REM in /home/nfs/bkarasulu/CARBON/AIRSS/Generating-Clusters/TERSOFF/Only-C1/FIRE-HFTN
REM
REM
REM
REM
REM
REM ./C.cell (11c1c37f851c82e70ff6c80c92926a4b)
REM AIRSS Version 0.9.1 bugfix July 2018 build 013d7b7c2542+ Fri, 06 Jul 2018 19:26:36 +0100
REM compiler GCC version 9.2.1 20190827 (Red Hat 9.2.1-1)
REM options -cpp -mtune=generic -march=x86-64 -g -O0 -fpre-include=/usr/include/finclude/math-vector-fortran.h
REM seed -1309904091 686742709 166600557 2134775732 372546819 32342407 1666000715 706511247 395302551 290661658 -985311707 1779790572 1826078290 -1115922667 1972158953 455753514 -1624089302 -152516400 1735733032 1210239385 525894159 1297627675 -973964307 1698008388 -672387083 836025247 1775060152 332612121 1296956232 -1710572393 -1551544774 -1318355605 -479006223
REM
CELL 1.54180   50.00000   50.00000   50.00000   90.00000   90.00000   90.00000
LATT -1
SFAC C  
C      1  0.5798070000000  0.5361680000000  0.4169280000000 1.0
C      1  0.4369010000000  0.6157160000000  0.5369870000000 1.0
C      1  0.4780220000000  0.5286280000000  0.5784120000000 1.0
C      1  0.5462390000000  0.3836470000000  0.5629410000000 1.0
C      1  0.4525300000000  0.5965970000000  0.5286610000000 1.0
C      1  0.4619860000000  0.3949270000000  0.5769660000000 1.0
C      1  0.4755800000000  0.4778330000000  0.4353920000000 1.0
C      1  0.5020070000000  0.4380500000000  0.4882150000000 1.0
C      1  0.4701150000000  0.4633100000000  0.4596930000000 1.0
C      1  0.5098730000000  0.4166580000000  0.5008460000000 1.0
C      1  0.4579850000000  0.5242940000000  0.4478630000000 1.0
C      1  0.4797670000000  0.5556440000000  0.5377880000000 1.0
C      1  0.5468170000000  0.5359900000000  0.4845130000000 1.0
C      1  0.4233980000000  0.5331750000000  0.4829510000000 1.0
C      1  0.4462320000000  0.4694180000000  0.5478270000000 1.0
C      1  0.5700210000000  0.4736160000000  0.4522320000000 1.0
C      1  0.6319690000000  0.5109770000000  0.4616860000000 1.0
C      1  0.5284210000000  0.4881890000000  0.4289380000000 1.0
C      1  0.5330990000000  0.5164100000000  0.5497460000000 1.0
C      1  0.5416870000000  0.5075650000000  0.5251320000000 1.0
C      1  0.5409950000000  0.5566340000000  0.4659600000000 1.0
C      1  0.4667420000000  0.5045230000000  0.5767030000000 1.0
C      1  0.4322400000000  0.5242710000000  0.5067300000000 1.0
C      1  0.5962970000000  0.4746260000000  0.4561680000000 1.0
C      1  0.4882900000000  0.5096480000000  0.4828890000000 1.0
C      1  0.5439400000000  0.4836490000000  0.4529680000000 1.0
C      1  0.4928350000000  0.5464350000000  0.5626090000000 1.0
C      1  0.4799400000000  0.5161880000000  0.5089830000000 1.0
C      1  0.5182790000000  0.5535690000000  0.5142700000000 1.0
C      1  0.5219390000000  0.5421450000000  0.5583510000000 1.0
C      1  0.5178690000000  0.5274040000000  0.4012170000000 1.0
C      1  0.4607330000000  0.5016150000000  0.4312870000000 1.0
C      1  0.5072110000000  0.4184240000000  0.5749690000000 1.0
C      1  0.5314220000000  0.5601340000000  0.5375760000000 1.0
C      1  0.4897830000000  0.5571150000000  0.4709640000000 1.0
C      1  0.4369980000000  0.4032190000000  0.5693280000000 1.0
C      1  0.4767150000000  0.5726010000000  0.4918200000000 1.0
C      1  0.4259630000000  0.4488890000000  0.5534370000000 1.0
C      1  0.4654510000000  0.4780770000000  0.5675490000000 1.0
C      1  0.4534260000000  0.5076800000000  0.5157300000000 1.0
C      1  0.4815680000000  0.4127740000000  0.5874650000000 1.0
C      1  0.4345290000000  0.4653030000000  0.4992240000000 1.0
C      1  0.4287250000000  0.4301650000000  0.5745910000000 1.0
C      1  0.4467150000000  0.4804660000000  0.5209730000000 1.0
C      1  0.5067650000000  0.4469480000000  0.5700190000000 1.0
C      1  0.5274540000000  0.4006140000000  0.5691360000000 1.0
C      1  0.4826740000000  0.4592040000000  0.5798240000000 1.0
C      1  0.5109830000000  0.5680230000000  0.4294370000000 1.0
C      1  0.4330440000000  0.5329060000000  0.4578060000000 1.0
C      1  0.4689450000000  0.5759350000000  0.5199790000000 1.0
C      1  0.5024060000000  0.4772160000000  0.4258980000000 1.0
C      1  0.5366600000000  0.5086960000000  0.4108180000000 1.0
C      1  0.4416750000000  0.4398800000000  0.5981080000000 1.0
C      1  0.5142540000000  0.5638180000000  0.4572690000000 1.0
C      1  0.5048900000000  0.4868990000000  0.4805580000000 1.0
C      1  0.6191070000000  0.4876480000000  0.4605060000000 1.0
C      1  0.5635050000000  0.5166660000000  0.4088240000000 1.0
C      1  0.5325930000000  0.4911870000000  0.4781880000000 1.0
C      1  0.5100600000000  0.5521500000000  0.4078590000000 1.0
C      1  0.4936910000000  0.5386630000000  0.5183240000000 1.0
C      1  0.5433330000000  0.5105170000000  0.4964820000000 1.0
C      1  0.6291790000000  0.5371900000000  0.4573990000000 1.0
C      1  0.4930640000000  0.4615840000000  0.4765990000000 1.0
C      1  0.5853830000000  0.5546650000000  0.4373790000000 1.0
C      1  0.4070680000000  0.4444100000000  0.5328830000000 1.0
C      1  0.4457570000000  0.4625430000000  0.4736380000000 1.0
C      1  0.4804050000000  0.5303020000000  0.4646010000000 1.0
C      1  0.5634100000000  0.5655650000000  0.4511910000000 1.0
C      1  0.6112360000000  0.5547550000000  0.4482110000000 1.0
C      1  0.4114900000000  0.4509500000000  0.5070550000000 1.0
C      1  0.4699080000000  0.4386990000000  0.5965260000000 1.0
END
