TITL C-612600-6631-777 17.5634140221563 125000 -382.592038748052 0 0 64 (C1) n - 1
REM
REM in /home/nfs/bkarasulu/CARBON/AIRSS/Generating-Clusters/TERSOFF/Only-C1/FIRE-HFTN
REM
REM
REM
REM
REM
REM ./C.cell (11c1c37f851c82e70ff6c80c92926a4b)
REM AIRSS Version 0.9.1 bugfix July 2018 build 013d7b7c2542+ Fri, 06 Jul 2018 19:26:36 +0100
REM compiler GCC version 9.2.1 20190827 (Red Hat 9.2.1-1)
REM options -cpp -mtune=generic -march=x86-64 -g -O0 -fpre-include=/usr/include/finclude/math-vector-fortran.h
REM seed 2011110308 -1651560882 -319608087 -116463283 -696061196 1326546558 -122853513 -46452363 1299595455 1798898413 -1559457594 -2049513550 -1827997313 -54047267 1841939003 895430429 -1939389644 1243352074 1382970676 942574807 1283433718 -756148145 -1176549953 -1755141591 -1802726933 987357919 1989507211 -365821969 -1916679394 685638431 -996187270 -1763069193 1411029745
REM
CELL 1.54180   50.00000   50.00000   50.00000   90.00000   90.00000   90.00000
LATT -1
SFAC C  
C      1  0.4690330000000  0.4928260000000  0.3131980000000 1.0
C      1  0.5058560000000  0.4678000000000  0.4286420000000 1.0
C      1  0.4852520000000  0.4780750000000  0.4889770000000 1.0
C      1  0.3898850000000  0.7140000000000  0.6765970000000 1.0
C      1  0.4333660000000  0.4944440000000  0.5421630000000 1.0
C      1  0.5656760000000  0.4108000000000  0.4350640000000 1.0
C      1  0.4584910000000  0.4972070000000  0.5320390000000 1.0
C      1  0.5210240000000  0.5324570000000  0.4710400000000 1.0
C      1  0.3803660000000  0.7326390000000  0.6921420000000 1.0
C      1  0.4189150000000  0.6571580000000  0.6291900000000 1.0
C      1  0.5008670000000  0.4647660000000  0.3799060000000 1.0
C      1  0.4875910000000  0.5486960000000  0.5075860000000 1.0
C      1  0.4479420000000  0.6003210000000  0.5817870000000 1.0
C      1  0.5763060000000  0.4075990000000  0.4592220000000 1.0
C      1  0.4654990000000  0.4148390000000  0.5390380000000 1.0
C      1  0.5121770000000  0.4291730000000  0.5263100000000 1.0
C      1  0.4900180000000  0.4522930000000  0.4466360000000 1.0
C      1  0.4285900000000  0.6382120000000  0.6133890000000 1.0
C      1  0.5321450000000  0.4647070000000  0.5522570000000 1.0
C      1  0.4092390000000  0.6761040000000  0.6449910000000 1.0
C      1  0.4747110000000  0.4663150000000  0.4656120000000 1.0
C      1  0.5128160000000  0.4561940000000  0.4035370000000 1.0
C      1  0.5608680000000  0.4310770000000  0.5288030000000 1.0
C      1  0.5244010000000  0.5203300000000  0.5450930000000 1.0
C      1  0.5505040000000  0.4205400000000  0.4155220000000 1.0
C      1  0.5310600000000  0.5262930000000  0.5185570000000 1.0
C      1  0.4862510000000  0.4568280000000  0.5564420000000 1.0
C      1  0.4794830000000  0.4835130000000  0.3351920000000 1.0
C      1  0.5212070000000  0.4904720000000  0.4383600000000 1.0
C      1  0.4775450000000  0.5151240000000  0.5428460000000 1.0
C      1  0.5731800000000  0.5086560000000  0.3899370000000 1.0
C      1  0.5625940000000  0.4989200000000  0.4121830000000 1.0
C      1  0.4672440000000  0.5624140000000  0.5502010000000 1.0
C      1  0.5117090000000  0.4879270000000  0.4854850000000 1.0
C      1  0.4875090000000  0.4328430000000  0.5410840000000 1.0
C      1  0.5653090000000  0.5250580000000  0.4856780000000 1.0
C      1  0.5361290000000  0.4411650000000  0.5368840000000 1.0
C      1  0.5804700000000  0.4108580000000  0.4852840000000 1.0
C      1  0.5832190000000  0.5180110000000  0.3677710000000 1.0
C      1  0.4729870000000  0.5646470000000  0.4907510000000 1.0
C      1  0.4576160000000  0.5813750000000  0.5659870000000 1.0
C      1  0.5757870000000  0.4195630000000  0.5099880000000 1.0
C      1  0.5627870000000  0.4726610000000  0.4540340000000 1.0
C      1  0.5496130000000  0.4877070000000  0.4340040000000 1.0
C      1  0.5323330000000  0.4360210000000  0.4037920000000 1.0
C      1  0.5022890000000  0.5044160000000  0.5526780000000 1.0
C      1  0.5563860000000  0.4688970000000  0.4800180000000 1.0
C      1  0.5119000000000  0.4190960000000  0.5000040000000 1.0
C      1  0.4678530000000  0.4827780000000  0.5100360000000 1.0
C      1  0.4593640000000  0.4039360000000  0.5137660000000 1.0
C      1  0.4901100000000  0.4740470000000  0.3575530000000 1.0
C      1  0.4696550000000  0.4017780000000  0.4890190000000 1.0
C      1  0.5066710000000  0.4766120000000  0.5573520000000 1.0
C      1  0.4937960000000  0.4127210000000  0.4792870000000 1.0
C      1  0.4772330000000  0.5422840000000  0.5336470000000 1.0
C      1  0.5491550000000  0.5381960000000  0.4675480000000 1.0
C      1  0.5390410000000  0.4848270000000  0.4957630000000 1.0
C      1  0.5126400000000  0.5382760000000  0.4991370000000 1.0
C      1  0.4508450000000  0.4080370000000  0.5610960000000 1.0
C      1  0.3995630000000  0.6950490000000  0.6607920000000 1.0
C      1  0.5505930000000  0.5098700000000  0.5053360000000 1.0
C      1  0.4953180000000  0.4255950000000  0.4542570000000 1.0
C      1  0.5137520000000  0.5056920000000  0.4619210000000 1.0
C      1  0.4382660000000  0.6192670000000  0.5975880000000 1.0
END
