TITL C-612604-1799-1270 0.541995473030756 125000 -611.034932068859 0 0 102 (C1) n - 1
REM
REM in /home/nfs/bkarasulu/CARBON/AIRSS/Generating-Clusters/TERSOFF/Only-C1/FIRE-HFTN
REM
REM
REM
REM
REM
REM ./C.cell (11c1c37f851c82e70ff6c80c92926a4b)
REM AIRSS Version 0.9.1 bugfix July 2018 build 013d7b7c2542+ Fri, 06 Jul 2018 19:26:36 +0100
REM compiler GCC version 9.2.1 20190827 (Red Hat 9.2.1-1)
REM options -cpp -mtune=generic -march=x86-64 -g -O0 -fpre-include=/usr/include/finclude/math-vector-fortran.h
REM seed 1622380602 -1247373067 -782063983 -539433971 -740186327 -1269878251 161582287 -1918659652 1616711139 -437275385 2119203447 2040479396 -955884279 286008730 551947638 -688037466 226586039 -1290690106 34505626 -504687749 1212230317 479353970 -1791121187 -921442234 638185890 -674254797 302237953 -1110154939 2131342820 -1465325391 -1129138551 -1050809190 -764568624
REM
CELL 1.54180   50.00000   50.00000   50.00000   90.00000   90.00000   90.00000
LATT -1
SFAC C  
C      1  0.5194240000000  0.5512550000000  0.4162400000000 1.0
C      1  0.4870860000000  0.3990850000000  0.4451670000000 1.0
C      1  0.5441780000000  0.5230940000000  0.5718690000000 1.0
C      1  0.4591620000000  0.5590790000000  0.5650860000000 1.0
C      1  0.4565600000000  0.5151710000000  0.5804660000000 1.0
C      1  0.5346060000000  0.5848220000000  0.4515060000000 1.0
C      1  0.4297180000000  0.4750950000000  0.4287290000000 1.0
C      1  0.5389180000000  0.4996470000000  0.5020210000000 1.0
C      1  0.5107490000000  0.5325740000000  0.5203600000000 1.0
C      1  0.5438820000000  0.5165790000000  0.5982690000000 1.0
C      1  0.4510310000000  0.4566320000000  0.4303250000000 1.0
C      1  0.4662740000000  0.4196230000000  0.5194870000000 1.0
C      1  0.4856130000000  0.4833370000000  0.5368330000000 1.0
C      1  0.4937570000000  0.4693370000000  0.4871070000000 1.0
C      1  0.4950400000000  0.4893270000000  0.5636910000000 1.0
C      1  0.4570430000000  0.4204390000000  0.5463860000000 1.0
C      1  0.5752230000000  0.5406230000000  0.4335770000000 1.0
C      1  0.5200400000000  0.4897020000000  0.4131720000000 1.0
C      1  0.5326920000000  0.5086680000000  0.4741440000000 1.0
C      1  0.5313400000000  0.5247920000000  0.4119340000000 1.0
C      1  0.5537700000000  0.4934290000000  0.4593580000000 1.0
C      1  0.4846890000000  0.5156290000000  0.5737350000000 1.0
C      1  0.4956920000000  0.4864130000000  0.4288290000000 1.0
C      1  0.5276790000000  0.4228400000000  0.4597610000000 1.0
C      1  0.4150120000000  0.4996040000000  0.5161470000000 1.0
C      1  0.5066890000000  0.4047640000000  0.4646450000000 1.0
C      1  0.5323850000000  0.5630000000000  0.5483100000000 1.0
C      1  0.5271030000000  0.5098640000000  0.5249160000000 1.0
C      1  0.5060760000000  0.5183920000000  0.4647170000000 1.0
C      1  0.4508290000000  0.5810500000000  0.4972040000000 1.0
C      1  0.6018430000000  0.5022910000000  0.5465620000000 1.0
C      1  0.5602960000000  0.4955940000000  0.4322490000000 1.0
C      1  0.4023320000000  0.4815540000000  0.5355780000000 1.0
C      1  0.4914950000000  0.5548910000000  0.4218190000000 1.0
C      1  0.5144710000000  0.4501040000000  0.5231670000000 1.0
C      1  0.4290360000000  0.5236100000000  0.5241450000000 1.0
C      1  0.4288600000000  0.4524420000000  0.5096450000000 1.0
C      1  0.3948590000000  0.5427620000000  0.5545480000000 1.0
C      1  0.4882030000000  0.5318630000000  0.4818870000000 1.0
C      1  0.4492150000000  0.5801850000000  0.5494610000000 1.0
C      1  0.4872600000000  0.5511370000000  0.5666770000000 1.0
C      1  0.5599320000000  0.4683140000000  0.4733480000000 1.0
C      1  0.4827180000000  0.5774240000000  0.4364210000000 1.0
C      1  0.5012130000000  0.3977900000000  0.4913710000000 1.0
C      1  0.5824670000000  0.4569740000000  0.5486160000000 1.0
C      1  0.5689820000000  0.4225950000000  0.4811470000000 1.0
C      1  0.4438790000000  0.5862870000000  0.5239330000000 1.0
C      1  0.4659320000000  0.4320380000000  0.5689720000000 1.0
C      1  0.5634340000000  0.4166300000000  0.5071290000000 1.0
C      1  0.4203230000000  0.4979740000000  0.4393340000000 1.0
C      1  0.5129890000000  0.4250260000000  0.5623370000000 1.0
C      1  0.5797960000000  0.5523270000000  0.4573730000000 1.0
C      1  0.4919080000000  0.4403230000000  0.5742090000000 1.0
C      1  0.5240130000000  0.5760150000000  0.5000520000000 1.0
C      1  0.4581260000000  0.5216570000000  0.5197070000000 1.0
C      1  0.3703530000000  0.5506420000000  0.5585980000000 1.0
C      1  0.5274840000000  0.5560850000000  0.5203900000000 1.0
C      1  0.4956400000000  0.5902640000000  0.5360330000000 1.0
C      1  0.4624560000000  0.4959650000000  0.5304030000000 1.0
C      1  0.4258730000000  0.5437880000000  0.4660770000000 1.0
C      1  0.4415580000000  0.5367080000000  0.5691700000000 1.0
C      1  0.5671790000000  0.5645620000000  0.4778880000000 1.0
C      1  0.4202830000000  0.5212040000000  0.4527660000000 1.0
C      1  0.5526120000000  0.5486730000000  0.5619300000000 1.0
C      1  0.5525060000000  0.4492430000000  0.4297470000000 1.0
C      1  0.4560630000000  0.5250520000000  0.4091570000000 1.0
C      1  0.6289720000000  0.4634910000000  0.5393580000000 1.0
C      1  0.4627180000000  0.4080910000000  0.4379310000000 1.0
C      1  0.4941400000000  0.4093910000000  0.5161270000000 1.0
C      1  0.4209470000000  0.5344590000000  0.5496040000000 1.0
C      1  0.5066040000000  0.4660950000000  0.5761710000000 1.0
C      1  0.4493860000000  0.4346000000000  0.5005220000000 1.0
C      1  0.4922050000000  0.5121120000000  0.4404320000000 1.0
C      1  0.5967910000000  0.5283930000000  0.5492850000000 1.0
C      1  0.4269390000000  0.4798150000000  0.4977480000000 1.0
C      1  0.4735930000000  0.4629490000000  0.4691230000000 1.0
C      1  0.4776790000000  0.5307130000000  0.4246690000000 1.0
C      1  0.5056130000000  0.5709300000000  0.5561840000000 1.0
C      1  0.5582750000000  0.4429190000000  0.5506830000000 1.0
C      1  0.4834100000000  0.5322190000000  0.5095850000000 1.0
C      1  0.5799830000000  0.5486370000000  0.5549830000000 1.0
C      1  0.4564910000000  0.4399720000000  0.4736610000000 1.0
C      1  0.5583360000000  0.5216280000000  0.4215480000000 1.0
C      1  0.5372570000000  0.5057610000000  0.5507880000000 1.0
C      1  0.4350040000000  0.5642610000000  0.4807660000000 1.0
C      1  0.5381240000000  0.4516970000000  0.5683740000000 1.0
C      1  0.5418040000000  0.5774520000000  0.4778900000000 1.0
C      1  0.5342520000000  0.5729060000000  0.4272180000000 1.0
C      1  0.4495580000000  0.4315580000000  0.4463070000000 1.0
C      1  0.5562480000000  0.4766260000000  0.5006970000000 1.0
C      1  0.5448490000000  0.4748630000000  0.4188950000000 1.0
C      1  0.6043790000000  0.4742750000000  0.5448970000000 1.0
C      1  0.4963440000000  0.4688940000000  0.5153130000000 1.0
C      1  0.5538710000000  0.4397980000000  0.4601640000000 1.0
C      1  0.4770240000000  0.5890520000000  0.4882340000000 1.0
C      1  0.5177190000000  0.4219170000000  0.5323940000000 1.0
C      1  0.5493130000000  0.4219830000000  0.5312760000000 1.0
C      1  0.5173470000000  0.4659050000000  0.4740800000000 1.0
C      1  0.4763620000000  0.4683940000000  0.4398570000000 1.0
C      1  0.4108900000000  0.4551890000000  0.5322820000000 1.0
C      1  0.4990330000000  0.5895980000000  0.5068980000000 1.0
C      1  0.4806920000000  0.5896000000000  0.4602200000000 1.0
END
