TITL C-612601-4209-1022 -1296.64525569812 125000 -1003.6385458756 0 0 167 (C1) n - 1
REM
REM in /home/nfs/bkarasulu/CARBON/AIRSS/Generating-Clusters/TERSOFF/Only-C1/FIRE-HFTN
REM
REM
REM
REM
REM
REM ./C.cell (11c1c37f851c82e70ff6c80c92926a4b)
REM AIRSS Version 0.9.1 bugfix July 2018 build 013d7b7c2542+ Fri, 06 Jul 2018 19:26:36 +0100
REM compiler GCC version 9.2.1 20190827 (Red Hat 9.2.1-1)
REM options -cpp -mtune=generic -march=x86-64 -g -O0 -fpre-include=/usr/include/finclude/math-vector-fortran.h
REM seed -1068405598 1932777602 -2094179834 702716847 1339838242 561726 -1302420521 2115256098 324192905 -1300400579 622201473 -1749276958 1784075887 -984112482 -1379957472 426357108 1521083657 -902901146 -1717149558 1489364705 461880641 -883166222 -1491892680 -356709299 -607157915 -648148766 1004231728 461921599 1821008446 1393498141 -1186220566 1515722702 1177609572
REM
CELL 1.54180   50.00000   50.00000   50.00000   90.00000   90.00000   90.00000
LATT -1
SFAC C  
C      1  0.4136820000000  0.4728460000000  0.5360780000000 1.0
C      1  0.4820420000000  0.4871700000000  0.5588580000000 1.0
C      1  0.4290250000000  0.5325860000000  0.5817860000000 1.0
C      1  0.5334170000000  0.4490690000000  0.4162460000000 1.0
C      1  0.5158220000000  0.5552810000000  0.4320440000000 1.0
C      1  0.4557870000000  0.5578730000000  0.5103050000000 1.0
C      1  0.5342340000000  0.5372740000000  0.4196300000000 1.0
C      1  0.5023360000000  0.4120870000000  0.4563520000000 1.0
C      1  0.4315190000000  0.5445600000000  0.4986370000000 1.0
C      1  0.4344560000000  0.4615840000000  0.5234230000000 1.0
C      1  0.4148080000000  0.5085080000000  0.5905790000000 1.0
C      1  0.5558530000000  0.4668800000000  0.4087720000000 1.0
C      1  0.5113710000000  0.5229920000000  0.5328240000000 1.0
C      1  0.5772650000000  0.5787480000000  0.4679290000000 1.0
C      1  0.5714480000000  0.5516390000000  0.5717770000000 1.0
C      1  0.5112560000000  0.5226290000000  0.4724630000000 1.0
C      1  0.5535410000000  0.5419150000000  0.4749800000000 1.0
C      1  0.3554180000000  0.4704620000000  0.3949280000000 1.0
C      1  0.4825880000000  0.5575490000000  0.5525210000000 1.0
C      1  0.5600000000000  0.4077610000000  0.5288260000000 1.0
C      1  0.4879870000000  0.4582740000000  0.5702850000000 1.0
C      1  0.5751380000000  0.4717530000000  0.5233020000000 1.0
C      1  0.5644280000000  0.4965520000000  0.5303190000000 1.0
C      1  0.4191350000000  0.5193050000000  0.5079990000000 1.0
C      1  0.6166300000000  0.4846550000000  0.5059260000000 1.0
C      1  0.6200980000000  0.5666850000000  0.4905080000000 1.0
C      1  0.4360540000000  0.5785290000000  0.4445530000000 1.0
C      1  0.5719460000000  0.6036360000000  0.5134770000000 1.0
C      1  0.5065780000000  0.4984700000000  0.4817040000000 1.0
C      1  0.5302720000000  0.4124670000000  0.4560400000000 1.0
C      1  0.4976870000000  0.4723330000000  0.4776990000000 1.0
C      1  0.4444190000000  0.4063040000000  0.4981370000000 1.0
C      1  0.4185370000000  0.4064470000000  0.4827660000000 1.0
C      1  0.5782100000000  0.4809570000000  0.4158690000000 1.0
C      1  0.4824330000000  0.5540900000000  0.3977410000000 1.0
C      1  0.5106220000000  0.6031030000000  0.4816270000000 1.0
C      1  0.5762320000000  0.4556730000000  0.5693100000000 1.0
C      1  0.5039490000000  0.5007990000000  0.4228900000000 1.0
C      1  0.4544640000000  0.5547090000000  0.3935770000000 1.0
C      1  0.5360410000000  0.5261790000000  0.5935690000000 1.0
C      1  0.4769210000000  0.6140150000000  0.5130300000000 1.0
C      1  0.5885540000000  0.4561810000000  0.5436640000000 1.0
C      1  0.5706970000000  0.4798720000000  0.5849710000000 1.0
C      1  0.5125160000000  0.4035640000000  0.5223440000000 1.0
C      1  0.5701910000000  0.5441150000000  0.5264280000000 1.0
C      1  0.5115720000000  0.4538160000000  0.4922840000000 1.0
C      1  0.6125270000000  0.4441890000000  0.4760430000000 1.0
C      1  0.4786470000000  0.5549450000000  0.4925140000000 1.0
C      1  0.4786780000000  0.4787070000000  0.3944690000000 1.0
C      1  0.5575010000000  0.4960630000000  0.4695390000000 1.0
C      1  0.4393430000000  0.5511280000000  0.4393390000000 1.0
C      1  0.4054320000000  0.5221650000000  0.4630470000000 1.0
C      1  0.5080160000000  0.5341970000000  0.3611580000000 1.0
C      1  0.4360460000000  0.5464410000000  0.4114090000000 1.0
C      1  0.3800470000000  0.4684120000000  0.4044690000000 1.0
C      1  0.4691060000000  0.5312150000000  0.4786760000000 1.0
C      1  0.5510750000000  0.5692470000000  0.5623970000000 1.0
C      1  0.5093090000000  0.5438930000000  0.4567460000000 1.0
C      1  0.5443450000000  0.4287350000000  0.4364300000000 1.0
C      1  0.4094200000000  0.5539360000000  0.4826750000000 1.0
C      1  0.4862070000000  0.6030070000000  0.4654310000000 1.0
C      1  0.4698180000000  0.5590280000000  0.5966110000000 1.0
C      1  0.5181080000000  0.4243680000000  0.5422120000000 1.0
C      1  0.4367370000000  0.6018580000000  0.4933170000000 1.0
C      1  0.6333350000000  0.5281400000000  0.5215080000000 1.0
C      1  0.5814130000000  0.5053740000000  0.5777970000000 1.0
C      1  0.6329150000000  0.5516320000000  0.5086280000000 1.0
C      1  0.5603540000000  0.5178310000000  0.4866470000000 1.0
C      1  0.4942910000000  0.5700810000000  0.4202240000000 1.0
C      1  0.5671450000000  0.4425170000000  0.4854990000000 1.0
C      1  0.5429540000000  0.4778960000000  0.5972330000000 1.0
C      1  0.5307590000000  0.4621160000000  0.5104470000000 1.0
C      1  0.4130850000000  0.5090580000000  0.4371380000000 1.0
C      1  0.4057370000000  0.4657420000000  0.4147430000000 1.0
C      1  0.4893250000000  0.3965340000000  0.5760310000000 1.0
C      1  0.4556830000000  0.5321890000000  0.4537250000000 1.0
C      1  0.4643130000000  0.5458450000000  0.5349220000000 1.0
C      1  0.4498050000000  0.4824430000000  0.4022780000000 1.0
C      1  0.6183160000000  0.4919160000000  0.4751170000000 1.0
C      1  0.6147190000000  0.4525340000000  0.5051270000000 1.0
C      1  0.4290480000000  0.4879760000000  0.6038920000000 1.0
C      1  0.5335510000000  0.4507960000000  0.5912430000000 1.0
C      1  0.4002680000000  0.4260920000000  0.4795590000000 1.0
C      1  0.5464950000000  0.5631860000000  0.5315230000000 1.0
C      1  0.4570380000000  0.4504140000000  0.4603420000000 1.0
C      1  0.4820130000000  0.4909550000000  0.4390320000000 1.0
C      1  0.5377260000000  0.5923120000000  0.5719660000000 1.0
C      1  0.4642730000000  0.6087980000000  0.4857230000000 1.0
C      1  0.5243150000000  0.5782060000000  0.4827720000000 1.0
C      1  0.4573120000000  0.6068710000000  0.5334810000000 1.0
C      1  0.4018070000000  0.4962820000000  0.5463690000000 1.0
C      1  0.4920920000000  0.5584680000000  0.5790170000000 1.0
C      1  0.4467000000000  0.4286920000000  0.5700510000000 1.0
C      1  0.5056490000000  0.4432730000000  0.5918280000000 1.0
C      1  0.3939180000000  0.4520860000000  0.4811090000000 1.0
C      1  0.5238850000000  0.6102090000000  0.5567090000000 1.0
C      1  0.5047540000000  0.4560920000000  0.4045710000000 1.0
C      1  0.4721930000000  0.5131540000000  0.6050950000000 1.0
C      1  0.3312070000000  0.4723530000000  0.3854470000000 1.0
C      1  0.4387460000000  0.4427880000000  0.4407600000000 1.0
C      1  0.5946100000000  0.4958430000000  0.4317640000000 1.0
C      1  0.5533650000000  0.4377040000000  0.5730650000000 1.0
C      1  0.4608920000000  0.5089570000000  0.4395480000000 1.0
C      1  0.4969800000000  0.5016960000000  0.6075630000000 1.0
C      1  0.5879460000000  0.4127780000000  0.5250790000000 1.0
C      1  0.5211420000000  0.4743380000000  0.5359040000000 1.0
C      1  0.4324870000000  0.5953610000000  0.5227060000000 1.0
C      1  0.6060770000000  0.5092040000000  0.4550250000000 1.0
C      1  0.3945960000000  0.4989850000000  0.5733180000000 1.0
C      1  0.6038940000000  0.5374170000000  0.4569150000000 1.0
C      1  0.4536410000000  0.4517600000000  0.5074870000000 1.0
C      1  0.5482840000000  0.5921170000000  0.5209100000000 1.0
C      1  0.6258000000000  0.4660340000000  0.4630350000000 1.0
C      1  0.5639520000000  0.5281720000000  0.5864030000000 1.0
C      1  0.4932170000000  0.5041280000000  0.3962610000000 1.0
C      1  0.4681170000000  0.3869140000000  0.5035230000000 1.0
C      1  0.5254990000000  0.6085700000000  0.5284230000000 1.0
C      1  0.4067600000000  0.5046960000000  0.4859200000000 1.0
C      1  0.5878420000000  0.5418550000000  0.5492930000000 1.0
C      1  0.4988010000000  0.4153120000000  0.5932350000000 1.0
C      1  0.5733950000000  0.4297330000000  0.4417070000000 1.0
C      1  0.6028340000000  0.4372590000000  0.5272210000000 1.0
C      1  0.4790610000000  0.4691940000000  0.4570340000000 1.0
C      1  0.4166250000000  0.5451090000000  0.5504570000000 1.0
C      1  0.4842830000000  0.4169610000000  0.4752710000000 1.0
C      1  0.4102010000000  0.5208070000000  0.5347290000000 1.0
C      1  0.5303100000000  0.5097160000000  0.4268010000000 1.0
C      1  0.4349540000000  0.4090990000000  0.5271240000000 1.0
C      1  0.5057950000000  0.4497370000000  0.5467930000000 1.0
C      1  0.4610310000000  0.5175510000000  0.5289830000000 1.0
C      1  0.4063380000000  0.4165690000000  0.4154120000000 1.0
C      1  0.4817700000000  0.5917900000000  0.4379700000000 1.0
C      1  0.4870350000000  0.3910400000000  0.5251870000000 1.0
C      1  0.5070530000000  0.5601340000000  0.4993930000000 1.0
C      1  0.5412580000000  0.4012260000000  0.4803740000000 1.0
C      1  0.4947940000000  0.5306250000000  0.3850080000000 1.0
C      1  0.3955820000000  0.5690020000000  0.5039910000000 1.0
C      1  0.4748770000000  0.3945980000000  0.5515230000000 1.0
C      1  0.6166460000000  0.5054370000000  0.5288800000000 1.0
C      1  0.4457390000000  0.4676730000000  0.5985940000000 1.0
C      1  0.4645170000000  0.5115070000000  0.5005240000000 1.0
C      1  0.4496700000000  0.4084910000000  0.5511170000000 1.0
C      1  0.5579410000000  0.4580500000000  0.5058350000000 1.0
C      1  0.3973030000000  0.4783860000000  0.4846370000000 1.0
C      1  0.5458600000000  0.4961010000000  0.4455170000000 1.0
C      1  0.5204950000000  0.5484650000000  0.5225800000000 1.0
C      1  0.4597380000000  0.4511360000000  0.5804950000000 1.0
C      1  0.5457000000000  0.4212680000000  0.5512020000000 1.0
C      1  0.4585380000000  0.4995750000000  0.5503680000000 1.0
C      1  0.5989900000000  0.5140450000000  0.5534380000000 1.0
C      1  0.4546630000000  0.5350780000000  0.5964560000000 1.0
C      1  0.3960450000000  0.3935970000000  0.4086710000000 1.0
C      1  0.5656560000000  0.5190340000000  0.5138600000000 1.0
C      1  0.4127340000000  0.5736990000000  0.5295490000000 1.0
C      1  0.6013520000000  0.5628180000000  0.4697550000000 1.0
C      1  0.4166200000000  0.4410840000000  0.4236730000000 1.0
C      1  0.4598220000000  0.4316190000000  0.4853510000000 1.0
C      1  0.5504460000000  0.5698040000000  0.4738730000000 1.0
C      1  0.5864670000000  0.4364830000000  0.4662890000000 1.0
C      1  0.5018250000000  0.4966460000000  0.5397370000000 1.0
C      1  0.5054250000000  0.6133960000000  0.5090060000000 1.0
C      1  0.5252950000000  0.5006190000000  0.6015590000000 1.0
C      1  0.4536400000000  0.5961220000000  0.4338400000000 1.0
C      1  0.5165580000000  0.5465770000000  0.5877870000000 1.0
C      1  0.5438920000000  0.4888940000000  0.5479780000000 1.0
C      1  0.4236960000000  0.4883940000000  0.4171950000000 1.0
C      1  0.5389440000000  0.3997260000000  0.5088660000000 1.0
END
