TITL C-612602-9376-715 19.9767334073544 125000 -286.612255078668 0 0 49 (C1) n - 1
REM
REM in /home/nfs/bkarasulu/CARBON/AIRSS/Generating-Clusters/TERSOFF/Only-C1/FIRE-HFTN
REM
REM
REM
REM
REM
REM ./C.cell (11c1c37f851c82e70ff6c80c92926a4b)
REM AIRSS Version 0.9.1 bugfix July 2018 build 013d7b7c2542+ Fri, 06 Jul 2018 19:26:36 +0100
REM compiler GCC version 9.2.1 20190827 (Red Hat 9.2.1-1)
REM options -cpp -mtune=generic -march=x86-64 -g -O0 -fpre-include=/usr/include/finclude/math-vector-fortran.h
REM seed 1878364193 1514773844 1766445486 -279848088 1271705906 471888046 -692338478 2033227919 1402118161 -1090923020 382133395 -1940059090 -1831609975 750942568 -831966161 -949750943 -1163852535 1444616307 -374877329 557151799 1635233503 -1958701854 1005203632 1446667400 114025784 2026770926 1842616462 282405254 -785509283 -385619811 -1420704282 1989846799 -1689250970
REM
CELL 1.54180   50.00000   50.00000   50.00000   90.00000   90.00000   90.00000
LATT -1
SFAC C  
C      1  0.4365040000000  0.5064200000000  0.4815120000000 1.0
C      1  0.5258010000000  0.4667390000000  0.5301820000000 1.0
C      1  0.4135470000000  0.5345660000000  0.5152700000000 1.0
C      1  0.4523500000000  0.4737370000000  0.4476140000000 1.0
C      1  0.5063560000000  0.4626750000000  0.5096010000000 1.0
C      1  0.6438370000000  0.5178060000000  0.5094210000000 1.0
C      1  0.3906340000000  0.5815000000000  0.5209030000000 1.0
C      1  0.4942190000000  0.4861040000000  0.5005640000000 1.0
C      1  0.4756430000000  0.4756210000000  0.4343250000000 1.0
C      1  0.6551440000000  0.5221210000000  0.5605720000000 1.0
C      1  0.4926670000000  0.5785300000000  0.5733720000000 1.0
C      1  0.4512260000000  0.4948320000000  0.5487120000000 1.0
C      1  0.6127290000000  0.5014050000000  0.4764240000000 1.0
C      1  0.4253550000000  0.5705850000000  0.4492310000000 1.0
C      1  0.4275230000000  0.5115460000000  0.5083640000000 1.0
C      1  0.6496460000000  0.5200440000000  0.5351740000000 1.0
C      1  0.4933840000000  0.5182860000000  0.4445470000000 1.0
C      1  0.4871850000000  0.5531980000000  0.5705700000000 1.0
C      1  0.4360870000000  0.4576880000000  0.4909220000000 1.0
C      1  0.4284120000000  0.4653070000000  0.5170400000000 1.0
C      1  0.4902390000000  0.5107190000000  0.4912720000000 1.0
C      1  0.4795290000000  0.5235090000000  0.4686030000000 1.0
C      1  0.4513010000000  0.5271590000000  0.4684580000000 1.0
C      1  0.5595350000000  0.4574860000000  0.4961220000000 1.0
C      1  0.4750080000000  0.5007710000000  0.5624310000000 1.0
C      1  0.6523960000000  0.5246870000000  0.4626900000000 1.0
C      1  0.5655960000000  0.4746510000000  0.4742340000000 1.0
C      1  0.4389840000000  0.5491800000000  0.4568210000000 1.0
C      1  0.4513250000000  0.4344150000000  0.4879840000000 1.0
C      1  0.3962030000000  0.6130920000000  0.4388830000000 1.0
C      1  0.4987660000000  0.4918180000000  0.4356790000000 1.0
C      1  0.4016890000000  0.5579750000000  0.5189140000000 1.0
C      1  0.4107680000000  0.5920220000000  0.4437380000000 1.0
C      1  0.5246720000000  0.4817530000000  0.4392670000000 1.0
C      1  0.5022790000000  0.4367470000000  0.4981250000000 1.0
C      1  0.4814460000000  0.5275210000000  0.5674760000000 1.0
C      1  0.5152560000000  0.4735550000000  0.5552260000000 1.0
C      1  0.6365080000000  0.5147490000000  0.4826100000000 1.0
C      1  0.4930690000000  0.4804070000000  0.5711270000000 1.0
C      1  0.4388870000000  0.4791170000000  0.4718690000000 1.0
C      1  0.5508790000000  0.4311900000000  0.4904990000000 1.0
C      1  0.4887110000000  0.4675990000000  0.5949290000000 1.0
C      1  0.5532960000000  0.4674350000000  0.5223260000000 1.0
C      1  0.4767360000000  0.4274600000000  0.4920060000000 1.0
C      1  0.5254770000000  0.4223340000000  0.4912880000000 1.0
C      1  0.5898320000000  0.4884340000000  0.4735190000000 1.0
C      1  0.5468940000000  0.4774940000000  0.4533750000000 1.0
C      1  0.5728420000000  0.4769540000000  0.5388830000000 1.0
C      1  0.4336280000000  0.4910550000000  0.5273240000000 1.0
END
