TITL C-612606-7351-569 0.757118823682925 125000 -586.157385831741 0 0 98 (C1) n - 1
REM
REM in /home/nfs/bkarasulu/CARBON/AIRSS/Generating-Clusters/TERSOFF/Only-C1/FIRE-HFTN
REM
REM
REM
REM
REM
REM ./C.cell (11c1c37f851c82e70ff6c80c92926a4b)
REM AIRSS Version 0.9.1 bugfix July 2018 build 013d7b7c2542+ Fri, 06 Jul 2018 19:26:36 +0100
REM compiler GCC version 9.2.1 20190827 (Red Hat 9.2.1-1)
REM options -cpp -mtune=generic -march=x86-64 -g -O0 -fpre-include=/usr/include/finclude/math-vector-fortran.h
REM seed -1627381048 1868327720 -40466506 -2038002322 1685295495 -1725747536 -1339924986 623357865 -1150009726 -938630154 -922664152 -1377387597 -1482037685 -269196564 -472877919 614375592 690211827 23552569 -501832202 381154697 -830606428 -1295131186 501554354 -1102903474 -106824276 1220268205 -1727578567 -1373280322 1309075234 1196260005 -2050346163 977998107 -179495315
REM
CELL 1.54180   50.00000   50.00000   50.00000   90.00000   90.00000   90.00000
LATT -1
SFAC C  
C      1  0.5946600000000  0.5228920000000  0.5658570000000 1.0
C      1  0.6335880000000  0.5050920000000  0.6907840000000 1.0
C      1  0.5124080000000  0.5546830000000  0.5053160000000 1.0
C      1  0.4496490000000  0.5232100000000  0.5233140000000 1.0
C      1  0.4280230000000  0.5589550000000  0.5440180000000 1.0
C      1  0.5511010000000  0.5661470000000  0.5465130000000 1.0
C      1  0.2771930000000  0.4298260000000  0.5814910000000 1.0
C      1  0.5752650000000  0.4513190000000  0.5134470000000 1.0
C      1  0.4156270000000  0.5007310000000  0.4822990000000 1.0
C      1  0.4863090000000  0.5671920000000  0.5489540000000 1.0
C      1  0.4700060000000  0.5890730000000  0.5412870000000 1.0
C      1  0.5696920000000  0.5488240000000  0.5023420000000 1.0
C      1  0.5384910000000  0.4196700000000  0.4549080000000 1.0
C      1  0.5284940000000  0.4304540000000  0.5289570000000 1.0
C      1  0.5465510000000  0.4896680000000  0.4325530000000 1.0
C      1  0.5608670000000  0.5427840000000  0.4580200000000 1.0
C      1  0.5034690000000  0.4579800000000  0.4931270000000 1.0
C      1  0.5233940000000  0.5036160000000  0.4231370000000 1.0
C      1  0.3921920000000  0.4528400000000  0.5207790000000 1.0
C      1  0.5680900000000  0.4499590000000  0.4847670000000 1.0
C      1  0.4531520000000  0.4309940000000  0.4825010000000 1.0
C      1  0.4480190000000  0.5387130000000  0.5471980000000 1.0
C      1  0.4953580000000  0.6075250000000  0.5075450000000 1.0
C      1  0.5566490000000  0.4364550000000  0.5299950000000 1.0
C      1  0.4643490000000  0.4523620000000  0.5466970000000 1.0
C      1  0.4523250000000  0.5689400000000  0.5028870000000 1.0
C      1  0.4235350000000  0.5615360000000  0.4510680000000 1.0
C      1  0.5132670000000  0.4174960000000  0.4424810000000 1.0
C      1  0.6259760000000  0.5085850000000  0.6660950000000 1.0
C      1  0.2998950000000  0.4343570000000  0.5695010000000 1.0
C      1  0.5104320000000  0.3996710000000  0.4210810000000 1.0
C      1  0.5015750000000  0.5190500000000  0.4325210000000 1.0
C      1  0.5458340000000  0.4540660000000  0.3972910000000 1.0
C      1  0.5575420000000  0.4930120000000  0.4590890000000 1.0
C      1  0.5306510000000  0.4894900000000  0.5295920000000 1.0
C      1  0.4680430000000  0.4439920000000  0.4623750000000 1.0
C      1  0.4278760000000  0.5717470000000  0.5194990000000 1.0
C      1  0.5595940000000  0.4719560000000  0.4148830000000 1.0
C      1  0.5709270000000  0.5516280000000  0.5309820000000 1.0
C      1  0.4164850000000  0.4583230000000  0.5082750000000 1.0
C      1  0.5704790000000  0.5170260000000  0.4668270000000 1.0
C      1  0.4920820000000  0.5210230000000  0.5619080000000 1.0
C      1  0.4156840000000  0.5863120000000  0.4530270000000 1.0
C      1  0.4333190000000  0.4680030000000  0.4394990000000 1.0
C      1  0.5377780000000  0.5482900000000  0.5654790000000 1.0
C      1  0.5869350000000  0.4773390000000  0.5210000000000 1.0
C      1  0.4328560000000  0.4376340000000  0.4986130000000 1.0
C      1  0.4570930000000  0.4692960000000  0.4550560000000 1.0
C      1  0.5009240000000  0.4838680000000  0.4875220000000 1.0
C      1  0.4327190000000  0.5059820000000  0.4107640000000 1.0
C      1  0.4907710000000  0.4324570000000  0.4505750000000 1.0
C      1  0.6004830000000  0.4520260000000  0.3960810000000 1.0
C      1  0.5086730000000  0.5664830000000  0.5308940000000 1.0
C      1  0.5263380000000  0.5172910000000  0.5304440000000 1.0
C      1  0.4304820000000  0.5353710000000  0.4447930000000 1.0
C      1  0.6104990000000  0.5156860000000  0.6158990000000 1.0
C      1  0.5140690000000  0.5830530000000  0.4644420000000 1.0
C      1  0.5795010000000  0.5212690000000  0.4944350000000 1.0
C      1  0.5156680000000  0.4372300000000  0.5046070000000 1.0
C      1  0.5084270000000  0.3837930000000  0.4005130000000 1.0
C      1  0.4626570000000  0.4951930000000  0.4664790000000 1.0
C      1  0.4254110000000  0.4853340000000  0.5051460000000 1.0
C      1  0.5019400000000  0.5943280000000  0.4443130000000 1.0
C      1  0.5586550000000  0.4365520000000  0.3806960000000 1.0
C      1  0.5880490000000  0.4696820000000  0.4128220000000 1.0
C      1  0.5859540000000  0.4353890000000  0.3799780000000 1.0
C      1  0.4766140000000  0.5268930000000  0.4210580000000 1.0
C      1  0.4167450000000  0.5107240000000  0.4551950000000 1.0
C      1  0.4866660000000  0.4935260000000  0.5535750000000 1.0
C      1  0.3229770000000  0.4389630000000  0.5573110000000 1.0
C      1  0.4612520000000  0.5203560000000  0.4775010000000 1.0
C      1  0.6182370000000  0.5121360000000  0.6409940000000 1.0
C      1  0.4740300000000  0.5430440000000  0.5584070000000 1.0
C      1  0.5418920000000  0.4820430000000  0.5051720000000 1.0
C      1  0.4198760000000  0.4916030000000  0.4323650000000 1.0
C      1  0.3691280000000  0.4481750000000  0.5329360000000 1.0
C      1  0.5596030000000  0.4286500000000  0.4687490000000 1.0
C      1  0.5092150000000  0.4260150000000  0.5493890000000 1.0
C      1  0.5863030000000  0.5062080000000  0.5186030000000 1.0
C      1  0.4832820000000  0.4337100000000  0.5521110000000 1.0
C      1  0.5070180000000  0.5111710000000  0.4848880000000 1.0
C      1  0.3460520000000  0.4435690000000  0.5451230000000 1.0
C      1  0.5537030000000  0.5595550000000  0.4805810000000 1.0
C      1  0.4631130000000  0.4805430000000  0.5423570000000 1.0
C      1  0.5199340000000  0.5281010000000  0.5564010000000 1.0
C      1  0.4481800000000  0.5278820000000  0.4219360000000 1.0
C      1  0.5148430000000  0.5270670000000  0.5065990000000 1.0
C      1  0.4562000000000  0.5385680000000  0.4990550000000 1.0
C      1  0.6027300000000  0.5192480000000  0.5908160000000 1.0
C      1  0.5541470000000  0.4747590000000  0.4805610000000 1.0
C      1  0.5844260000000  0.5265750000000  0.5402650000000 1.0
C      1  0.5112150000000  0.4788910000000  0.5475270000000 1.0
C      1  0.4706020000000  0.5920040000000  0.5118280000000 1.0
C      1  0.5266700000000  0.5675690000000  0.4838960000000 1.0
C      1  0.5310340000000  0.5850320000000  0.5351920000000 1.0
C      1  0.5205030000000  0.6079920000000  0.5204410000000 1.0
C      1  0.5042040000000  0.5236390000000  0.4600350000000 1.0
C      1  0.4456070000000  0.4950640000000  0.5238950000000 1.0
END
