TITL C-612603-7354-845 -0.841486026206796 125000 -939.372433547208 0 0 155 (C1) n - 1
REM
REM in /home/nfs/bkarasulu/CARBON/AIRSS/Generating-Clusters/TERSOFF/Only-C1/FIRE-HFTN
REM
REM
REM
REM
REM
REM ./C.cell (11c1c37f851c82e70ff6c80c92926a4b)
REM AIRSS Version 0.9.1 bugfix July 2018 build 013d7b7c2542+ Fri, 06 Jul 2018 19:26:36 +0100
REM compiler GCC version 9.2.1 20190827 (Red Hat 9.2.1-1)
REM options -cpp -mtune=generic -march=x86-64 -g -O0 -fpre-include=/usr/include/finclude/math-vector-fortran.h
REM seed 1650706110 -678417616 -1419857066 1059392525 1095228545 -1727368475 -1409959673 -1380745511 -557823554 -102331716 -552722960 -1377043725 302945487 215558983 1406218640 1489208193 -1717480892 390281792 1326439579 -918706205 155666121 -769086642 1209981515 362977950 -496724736 -93585127 1391945838 197268958 -702100821 345316339 954122089 2002026237 1210039107
REM
CELL 1.54180   50.00000   50.00000   50.00000   90.00000   90.00000   90.00000
LATT -1
SFAC C  
C      1  0.4280710000000  0.5488560000000  0.5181050000000 1.0
C      1  0.4677630000000  0.5000060000000  0.6166220000000 1.0
C      1  0.5175890000000  0.5292670000000  0.4871670000000 1.0
C      1  0.5852290000000  0.5496510000000  0.5136690000000 1.0
C      1  0.5664750000000  0.4684110000000  0.4815660000000 1.0
C      1  0.4472640000000  0.5892850000000  0.5715820000000 1.0
C      1  0.5736250000000  0.4507370000000  0.5437700000000 1.0
C      1  0.5936040000000  0.6285020000000  0.5803970000000 1.0
C      1  0.4796870000000  0.5594540000000  0.4942890000000 1.0
C      1  0.5764100000000  0.6004390000000  0.5377940000000 1.0
C      1  0.5089700000000  0.4139240000000  0.5612960000000 1.0
C      1  0.4122620000000  0.5214080000000  0.4096830000000 1.0
C      1  0.5213870000000  0.3985020000000  0.5388080000000 1.0
C      1  0.4112450000000  0.5281690000000  0.5307380000000 1.0
C      1  0.5922980000000  0.5957660000000  0.5145330000000 1.0
C      1  0.4926390000000  0.5168400000000  0.5205850000000 1.0
C      1  0.4784710000000  0.6103050000000  0.5108850000000 1.0
C      1  0.4458800000000  0.5423320000000  0.5614370000000 1.0
C      1  0.4341970000000  0.4912790000000  0.4952500000000 1.0
C      1  0.4208570000000  0.3783660000000  0.4857860000000 1.0
C      1  0.5166800000000  0.4530960000000  0.4229650000000 1.0
C      1  0.5908410000000  0.5507580000000  0.4509270000000 1.0
C      1  0.5430040000000  0.4720020000000  0.4625780000000 1.0
C      1  0.4657550000000  0.3511450000000  0.4889670000000 1.0
C      1  0.5702130000000  0.5328750000000  0.4608740000000 1.0
C      1  0.4480420000000  0.4784110000000  0.5397600000000 1.0
C      1  0.5079890000000  0.5122000000000  0.4673130000000 1.0
C      1  0.4703880000000  0.3864600000000  0.5632070000000 1.0
C      1  0.5400870000000  0.5844300000000  0.4380630000000 1.0
C      1  0.4142590000000  0.4287160000000  0.4821410000000 1.0
C      1  0.5601140000000  0.4292290000000  0.4415230000000 1.0
C      1  0.3927580000000  0.4479270000000  0.4762840000000 1.0
C      1  0.5564400000000  0.4691220000000  0.5998060000000 1.0
C      1  0.5412570000000  0.5579610000000  0.4285220000000 1.0
C      1  0.4503310000000  0.4809260000000  0.4466850000000 1.0
C      1  0.3848520000000  0.5188390000000  0.4662330000000 1.0
C      1  0.4162470000000  0.6261820000000  0.5149980000000 1.0
C      1  0.4694000000000  0.4286070000000  0.5376880000000 1.0
C      1  0.5746200000000  0.4546870000000  0.4362690000000 1.0
C      1  0.5243130000000  0.5453300000000  0.5517760000000 1.0
C      1  0.4679260000000  0.3974010000000  0.4541890000000 1.0
C      1  0.4082760000000  0.5599810000000  0.4437500000000 1.0
C      1  0.5389940000000  0.4315250000000  0.5042390000000 1.0
C      1  0.4484660000000  0.5375170000000  0.4340820000000 1.0
C      1  0.4531860000000  0.5629260000000  0.5803360000000 1.0
C      1  0.5130450000000  0.5109540000000  0.3856000000000 1.0
C      1  0.5291370000000  0.6077010000000  0.4501250000000 1.0
C      1  0.4531930000000  0.5490490000000  0.5341280000000 1.0
C      1  0.5271950000000  0.5650300000000  0.6018680000000 1.0
C      1  0.5832800000000  0.5271470000000  0.4066030000000 1.0
C      1  0.5992150000000  0.5691180000000  0.4710590000000 1.0
C      1  0.4551750000000  0.5466610000000  0.4798950000000 1.0
C      1  0.4506490000000  0.5269830000000  0.4602560000000 1.0
C      1  0.5513710000000  0.4339830000000  0.5511850000000 1.0
C      1  0.4475450000000  0.3806790000000  0.5777370000000 1.0
C      1  0.5281130000000  0.5726000000000  0.4976670000000 1.0
C      1  0.5841510000000  0.4428610000000  0.5180270000000 1.0
C      1  0.5807250000000  0.5141630000000  0.4796680000000 1.0
C      1  0.4935330000000  0.5034210000000  0.6066930000000 1.0
C      1  0.5360470000000  0.5941640000000  0.5129990000000 1.0
C      1  0.4775120000000  0.4769910000000  0.4548340000000 1.0
C      1  0.3777190000000  0.4036430000000  0.4727870000000 1.0
C      1  0.4325190000000  0.6143220000000  0.5331630000000 1.0
C      1  0.4298480000000  0.5560440000000  0.4908330000000 1.0
C      1  0.4762470000000  0.4225680000000  0.5105930000000 1.0
C      1  0.4550620000000  0.4516500000000  0.5442370000000 1.0
C      1  0.5493750000000  0.5080430000000  0.5188780000000 1.0
C      1  0.5534980000000  0.4745380000000  0.4352260000000 1.0
C      1  0.5670180000000  0.5327700000000  0.5232640000000 1.0
C      1  0.4431490000000  0.4521120000000  0.4076410000000 1.0
C      1  0.4118100000000  0.5647150000000  0.4705040000000 1.0
C      1  0.5845060000000  0.5211050000000  0.5797040000000 1.0
C      1  0.3949650000000  0.5122540000000  0.5135160000000 1.0
C      1  0.5013230000000  0.5522870000000  0.6006500000000 1.0
C      1  0.4413100000000  0.3616460000000  0.4889310000000 1.0
C      1  0.5090730000000  0.3605010000000  0.5083120000000 1.0
C      1  0.5111060000000  0.4816150000000  0.6061010000000 1.0
C      1  0.6087160000000  0.5132210000000  0.4833390000000 1.0
C      1  0.4618410000000  0.6139020000000  0.5330780000000 1.0
C      1  0.4214880000000  0.4959010000000  0.4093200000000 1.0
C      1  0.4993880000000  0.4608590000000  0.4462800000000 1.0
C      1  0.5315290000000  0.4276310000000  0.4320930000000 1.0
C      1  0.5176590000000  0.3209540000000  0.4478620000000 1.0
C      1  0.5403870000000  0.4175790000000  0.5287370000000 1.0
C      1  0.5500790000000  0.5887080000000  0.5374210000000 1.0
C      1  0.3705240000000  0.4303670000000  0.4702200000000 1.0
C      1  0.5655630000000  0.4951410000000  0.4952290000000 1.0
C      1  0.4748980000000  0.5618260000000  0.5986630000000 1.0
C      1  0.4259840000000  0.5209050000000  0.5555260000000 1.0
C      1  0.5738180000000  0.4785650000000  0.5513490000000 1.0
C      1  0.5385280000000  0.5463280000000  0.4023670000000 1.0
C      1  0.6167900000000  0.4630700000000  0.4636120000000 1.0
C      1  0.4065970000000  0.4875010000000  0.5038560000000 1.0
C      1  0.5322630000000  0.4971210000000  0.5657340000000 1.0
C      1  0.5366650000000  0.4978300000000  0.3967780000000 1.0
C      1  0.3794370000000  0.5246220000000  0.4926470000000 1.0
C      1  0.4793490000000  0.4967390000000  0.5043550000000 1.0
C      1  0.4915580000000  0.4078010000000  0.4631230000000 1.0
C      1  0.4244950000000  0.5993470000000  0.5567130000000 1.0
C      1  0.5347090000000  0.4749170000000  0.4139310000000 1.0
C      1  0.5280440000000  0.6181110000000  0.4995930000000 1.0
C      1  0.5087940000000  0.5556300000000  0.4879390000000 1.0
C      1  0.5494270000000  0.4917750000000  0.5438780000000 1.0
C      1  0.5059290000000  0.3334920000000  0.4680390000000 1.0
C      1  0.4493410000000  0.4298170000000  0.3956530000000 1.0
C      1  0.4219600000000  0.5430540000000  0.4251470000000 1.0
C      1  0.3954650000000  0.4753110000000  0.4795350000000 1.0
C      1  0.5187170000000  0.4587350000000  0.4685550000000 1.0
C      1  0.5600670000000  0.6397100000000  0.4699280000000 1.0
C      1  0.5300480000000  0.4311960000000  0.5705880000000 1.0
C      1  0.5084470000000  0.3738960000000  0.5327550000000 1.0
C      1  0.4545000000000  0.4880960000000  0.5136810000000 1.0
C      1  0.5292050000000  0.3087950000000  0.4279010000000 1.0
C      1  0.5393120000000  0.6220400000000  0.4731620000000 1.0
C      1  0.4868820000000  0.3671930000000  0.5504590000000 1.0
C      1  0.5455020000000  0.5359380000000  0.4470080000000 1.0
C      1  0.4028330000000  0.4971810000000  0.4600020000000 1.0
C      1  0.4318570000000  0.4844840000000  0.5861180000000 1.0
C      1  0.5560970000000  0.5215740000000  0.3997400000000 1.0
C      1  0.4936830000000  0.3481430000000  0.4883560000000 1.0
C      1  0.4729580000000  0.5894090000000  0.4920600000000 1.0
C      1  0.5209240000000  0.5171590000000  0.5125200000000 1.0
C      1  0.5943000000000  0.5721730000000  0.4991100000000 1.0
C      1  0.5680170000000  0.4212110000000  0.4687000000000 1.0
C      1  0.4934830000000  0.4221310000000  0.4880860000000 1.0
C      1  0.4655500000000  0.5985050000000  0.4662050000000 1.0
C      1  0.4692980000000  0.6040210000000  0.5591670000000 1.0
C      1  0.5163420000000  0.4392020000000  0.4891100000000 1.0
C      1  0.5339360000000  0.4809260000000  0.5897060000000 1.0
C      1  0.5029320000000  0.5254920000000  0.5915790000000 1.0
C      1  0.5138790000000  0.4089320000000  0.4451660000000 1.0
C      1  0.4781650000000  0.6103520000000  0.4458120000000 1.0
C      1  0.6339950000000  0.5146100000000  0.4896020000000 1.0
C      1  0.5712210000000  0.5438710000000  0.5866310000000 1.0
C      1  0.5038310000000  0.6155010000000  0.4404130000000 1.0
C      1  0.5017080000000  0.6258800000000  0.5062750000000 1.0
C      1  0.5181620000000  0.5219120000000  0.5675430000000 1.0
C      1  0.5659000000000  0.4400280000000  0.4938490000000 1.0
C      1  0.4055630000000  0.4008270000000  0.4806310000000 1.0
C      1  0.5500730000000  0.5633380000000  0.5839780000000 1.0
C      1  0.5856210000000  0.6154310000000  0.5593130000000 1.0
C      1  0.4256730000000  0.3757780000000  0.5910310000000 1.0
C      1  0.4338180000000  0.4937130000000  0.5596780000000 1.0
C      1  0.5889290000000  0.4968260000000  0.5677410000000 1.0
C      1  0.4806480000000  0.4128400000000  0.5588470000000 1.0
C      1  0.5417490000000  0.5680680000000  0.5561150000000 1.0
C      1  0.4348030000000  0.4998400000000  0.4652390000000 1.0
C      1  0.5900600000000  0.4637630000000  0.4600070000000 1.0
C      1  0.4383580000000  0.4761370000000  0.4209790000000 1.0
C      1  0.4777440000000  0.5430920000000  0.5211390000000 1.0
C      1  0.4443470000000  0.4896060000000  0.6091710000000 1.0
C      1  0.5142000000000  0.5384410000000  0.3888780000000 1.0
C      1  0.4868970000000  0.4950110000000  0.4758680000000 1.0
C      1  0.5249050000000  0.5164710000000  0.4457570000000 1.0
C      1  0.5968610000000  0.5434270000000  0.4240020000000 1.0
END
