TITL C-612606-7351-612 -0.000160237144795752 125000 -391.131327352994 0 0 64 (C1) n - 1
REM
REM in /home/nfs/bkarasulu/CARBON/AIRSS/Generating-Clusters/TERSOFF/Only-C1/FIRE-HFTN
REM
REM
REM
REM
REM
REM ./C.cell (11c1c37f851c82e70ff6c80c92926a4b)
REM AIRSS Version 0.9.1 bugfix July 2018 build 013d7b7c2542+ Fri, 06 Jul 2018 19:26:36 +0100
REM compiler GCC version 9.2.1 20190827 (Red Hat 9.2.1-1)
REM options -cpp -mtune=generic -march=x86-64 -g -O0 -fpre-include=/usr/include/finclude/math-vector-fortran.h
REM seed -461407028 -1890298685 1070440560 492440284 1214838273 62625042 -1819258097 -1350401219 1440061801 1194469745 890205472 -764236357 -461167304 -2081339989 -2027101384 -2087744857 418278070 692714518 -1210570613 -310858925 -780091158 -921111379 -301646691 -230255378 341428926 -745547118 1752235365 1546984701 367947558 241688744 -1084920378 2036388267 1383860523
REM
CELL 1.54180   50.00000   50.00000   50.00000   90.00000   90.00000   90.00000
LATT -1
SFAC C  
C      1  0.4281270000000  0.4867050000000  0.4549980000000 1.0
C      1  0.4947400000000  0.5482650000000  0.4790800000000 1.0
C      1  0.5614990000000  0.5413660000000  0.5064460000000 1.0
C      1  0.4655240000000  0.3889770000000  0.4692230000000 1.0
C      1  0.4149720000000  0.5464250000000  0.4930830000000 1.0
C      1  0.5242210000000  0.4703770000000  0.5280360000000 1.0
C      1  0.5055330000000  0.5018540000000  0.4883630000000 1.0
C      1  0.5711420000000  0.5619120000000  0.5227310000000 1.0
C      1  0.5525870000000  0.4331230000000  0.4802580000000 1.0
C      1  0.6202850000000  0.4837350000000  0.5213840000000 1.0
C      1  0.5436220000000  0.5074540000000  0.4365970000000 1.0
C      1  0.4346650000000  0.5576420000000  0.5500700000000 1.0
C      1  0.4951430000000  0.4664500000000  0.5675980000000 1.0
C      1  0.4485000000000  0.4709050000000  0.4479710000000 1.0
C      1  0.4533840000000  0.5993230000000  0.5281690000000 1.0
C      1  0.5778610000000  0.5008230000000  0.4752170000000 1.0
C      1  0.5172780000000  0.4490670000000  0.4496080000000 1.0
C      1  0.5271570000000  0.4300050000000  0.4673050000000 1.0
C      1  0.5773660000000  0.5247180000000  0.4903920000000 1.0
C      1  0.5094330000000  0.4089020000000  0.4759800000000 1.0
C      1  0.4395510000000  0.5893750000000  0.4834380000000 1.0
C      1  0.4484810000000  0.5838690000000  0.4576850000000 1.0
C      1  0.5815720000000  0.4765920000000  0.4896530000000 1.0
C      1  0.4811100000000  0.4115900000000  0.4746000000000 1.0
C      1  0.4971880000000  0.6102290000000  0.5559560000000 1.0
C      1  0.4354530000000  0.5088010000000  0.5682490000000 1.0
C      1  0.5228380000000  0.3862200000000  0.4866680000000 1.0
C      1  0.4881220000000  0.5519440000000  0.4518160000000 1.0
C      1  0.5078230000000  0.4834000000000  0.5093770000000 1.0
C      1  0.5651390000000  0.5820970000000  0.5390230000000 1.0
C      1  0.4175520000000  0.4760700000000  0.4999360000000 1.0
C      1  0.5235600000000  0.6072920000000  0.5574260000000 1.0
C      1  0.5476830000000  0.5978900000000  0.5514040000000 1.0
C      1  0.5044160000000  0.4938140000000  0.4608810000000 1.0
C      1  0.5015930000000  0.5342640000000  0.4344540000000 1.0
C      1  0.5337230000000  0.5373410000000  0.5058520000000 1.0
C      1  0.4165070000000  0.4949650000000  0.4792000000000 1.0
C      1  0.4371700000000  0.4645350000000  0.5419760000000 1.0
C      1  0.4679300000000  0.4367580000000  0.4779090000000 1.0
C      1  0.5495530000000  0.3860680000000  0.4918090000000 1.0
C      1  0.4366510000000  0.4832850000000  0.5608710000000 1.0
C      1  0.5502810000000  0.4626200000000  0.5197180000000 1.0
C      1  0.4725370000000  0.6074380000000  0.5464380000000 1.0
C      1  0.5663020000000  0.5017290000000  0.4496310000000 1.0
C      1  0.5681110000000  0.4765070000000  0.5622800000000 1.0
C      1  0.5194920000000  0.4711320000000  0.5563480000000 1.0
C      1  0.4708180000000  0.4575960000000  0.4583610000000 1.0
C      1  0.5427530000000  0.4761120000000  0.5718890000000 1.0
C      1  0.5942680000000  0.4780420000000  0.5162380000000 1.0
C      1  0.5161320000000  0.5110050000000  0.4411120000000 1.0
C      1  0.5595610000000  0.4573000000000  0.4926400000000 1.0
C      1  0.4377180000000  0.5747710000000  0.5284690000000 1.0
C      1  0.4105730000000  0.5216940000000  0.4844850000000 1.0
C      1  0.4968250000000  0.4676860000000  0.4536820000000 1.0
C      1  0.5645560000000  0.4084620000000  0.4880250000000 1.0
C      1  0.4514560000000  0.6089370000000  0.5009980000000 1.0
C      1  0.4520580000000  0.4423090000000  0.5004890000000 1.0
C      1  0.4286770000000  0.5690740000000  0.5014140000000 1.0
C      1  0.4347900000000  0.4593510000000  0.5146060000000 1.0
C      1  0.4344560000000  0.5349980000000  0.5639270000000 1.0
C      1  0.5736240000000  0.4716180000000  0.5352420000000 1.0
C      1  0.5099420000000  0.5296160000000  0.4935220000000 1.0
C      1  0.4675070000000  0.5696170000000  0.4454540000000 1.0
C      1  0.4509100000000  0.3679590000000  0.4643410000000 1.0
END
