TITL C-612605-9286-1422 819747.470048669 125000 -1108.83491647355 0 0 183 (C1) n - 1
REM
REM in /home/nfs/bkarasulu/CARBON/AIRSS/Generating-Clusters/TERSOFF/Only-C1/FIRE-HFTN
REM
REM
REM
REM
REM
REM ./C.cell (11c1c37f851c82e70ff6c80c92926a4b)
REM AIRSS Version 0.9.1 bugfix July 2018 build 013d7b7c2542+ Fri, 06 Jul 2018 19:26:36 +0100
REM compiler GCC version 9.2.1 20190827 (Red Hat 9.2.1-1)
REM options -cpp -mtune=generic -march=x86-64 -g -O0 -fpre-include=/usr/include/finclude/math-vector-fortran.h
REM seed -1882043657 417942256 1098196487 -1852554422 -180824850 -328813078 -2053189645 1360115485 -1755297321 198611273 -1756246719 2142902014 -1892237206 795495647 1749101572 51003921 -488921872 -391401100 1492838155 444785377 1957940125 1408454827 -1428607093 -1867996482 230888910 -1662530419 -1673615355 2145148908 -768514706 331246429 699595730 -452971641 2021352698
REM
CELL 1.54180   50.00000   50.00000   50.00000   90.00000   90.00000   90.00000
LATT -1
SFAC C  
C      1  0.6439220000000  0.5267390000000  0.5299280000000 1.0
C      1  0.5855830000000  0.4432600000000  0.4505860000000 1.0
C      1  0.5554520000000  0.4274480000000  0.4160320000000 1.0
C      1  0.4994710000000  0.4587940000000  0.3893560000000 1.0
C      1  0.5443540000000  0.4492610000000  0.5033770000000 1.0
C      1  0.4704890000000  0.4527320000000  0.5155630000000 1.0
C      1  0.4324580000000  0.4757250000000  0.5912590000000 1.0
C      1  0.5222250000000  0.4285570000000  0.5471530000000 1.0
C      1  0.5108310000000  0.3732330000000  0.4683070000000 1.0
C      1  0.5875990000000  0.5249810000000  0.4129970000000 1.0
C      1  0.5311740000000  0.4575840000000  0.6051330000000 1.0
C      1  0.4252610000000  0.4641610000000  0.5142960000000 1.0
C      1  0.4499710000000  0.4244490000000  0.5459110000000 1.0
C      1  0.4717240000000  0.4523780000000  0.3987320000000 1.0
C      1  0.4638690000000  0.3964200000000  0.5065470000000 1.0
C      1  0.4900140000000  0.4920500000000  0.5644340000000 1.0
C      1  0.4572610000000  0.5915770000000  0.6418460000000 1.0
C      1  0.4977210000000  0.4590010000000  0.5117360000000 1.0
C      1  0.4775410000000  0.4645870000000  0.6115880000000 1.0
C      1  0.5130490000000  0.5035200000000  0.4345010000000 1.0
C      1  0.6135550000000  0.5119510000000  0.4529740000000 1.0
C      1  0.5639660000000  0.5509420000000  0.4913130000000 1.0
C      1  0.5450840000000  0.5052170000000  0.5526400000000 1.0
C      1  0.6677820000000  0.5381300000000  0.5317570000000 1.0
C      1  0.4520350000000  0.5454280000000  0.4180020000000 1.0
C      1  0.4463750000000  0.3923000000000  0.4821390000000 1.0
C      1  0.4431430000000  0.4411000000000  0.4497650000000 1.0
C      1  0.6073580000000  0.5448670000000  0.4885110000000 1.0
C      1  0.5857410000000  0.4842780000000  0.5118690000000 1.0
C      1  0.4971030000000  0.5385600000000  0.3853140000000 1.0
C      1  0.4930940000000  0.4160180000000  0.4725970000000 1.0
C      1  0.4617300000000  0.3997920000000  0.5357030000000 1.0
C      1  0.3851860000000  0.5287990000000  0.5590860000000 1.0
C      1  0.5892960000000  0.4275160000000  0.4730750000000 1.0
C      1  0.5168060000000  0.4005000000000  0.4235770000000 1.0
C      1  0.4475170000000  0.4294330000000  0.6028110000000 1.0
C      1  0.5188020000000  0.5702930000000  0.5181400000000 1.0
C      1  0.5170660000000  0.4556000000000  0.4581810000000 1.0
C      1  0.3699480000000  0.4541560000000  0.4933090000000 1.0
C      1  0.4632210000000  0.5021990000000  0.4367230000000 1.0
C      1  0.5410870000000  0.6072310000000  0.4421350000000 1.0
C      1  0.5493690000000  0.5841520000000  0.4566060000000 1.0
C      1  0.4716260000000  0.5696570000000  0.5083600000000 1.0
C      1  0.5128000000000  0.6092580000000  0.4385420000000 1.0
C      1  0.4816420000000  0.5743920000000  0.4825120000000 1.0
C      1  0.6078840000000  0.5143530000000  0.4269220000000 1.0
C      1  0.3955150000000  0.4098290000000  0.4867010000000 1.0
C      1  0.5477340000000  0.6105960000000  0.5332530000000 1.0
C      1  0.4452900000000  0.5692410000000  0.6357280000000 1.0
C      1  0.5561360000000  0.5379600000000  0.4470480000000 1.0
C      1  0.4969310000000  0.6190880000000  0.4697850000000 1.0
C      1  0.4350010000000  0.4352570000000  0.4782420000000 1.0
C      1  0.5373710000000  0.5804430000000  0.4000400000000 1.0
C      1  0.5144500000000  0.5291800000000  0.4771640000000 1.0
C      1  0.5506040000000  0.4432210000000  0.5861350000000 1.0
C      1  0.4533930000000  0.4743360000000  0.3951000000000 1.0
C      1  0.5127540000000  0.3943620000000  0.5112030000000 1.0
C      1  0.5288410000000  0.3824820000000  0.4903050000000 1.0
C      1  0.5768010000000  0.4091700000000  0.4925860000000 1.0
C      1  0.5550040000000  0.5388090000000  0.5155220000000 1.0
C      1  0.4863010000000  0.4126890000000  0.5759200000000 1.0
C      1  0.5071280000000  0.5284500000000  0.5366190000000 1.0
C      1  0.5121560000000  0.3998050000000  0.5388400000000 1.0
C      1  0.3903440000000  0.4815870000000  0.5668490000000 1.0
C      1  0.5464330000000  0.4799560000000  0.6163770000000 1.0
C      1  0.5441780000000  0.4171700000000  0.4622870000000 1.0
C      1  0.5328590000000  0.5850980000000  0.4995920000000 1.0
C      1  0.4349020000000  0.5458700000000  0.6287610000000 1.0
C      1  0.5049500000000  0.4823030000000  0.4978860000000 1.0
C      1  0.5207840000000  0.4441960000000  0.5206470000000 1.0
C      1  0.5419860000000  0.4308510000000  0.3910910000000 1.0
C      1  0.5382580000000  0.4434110000000  0.4736860000000 1.0
C      1  0.5596170000000  0.4743680000000  0.4153850000000 1.0
C      1  0.5321550000000  0.4909430000000  0.4978230000000 1.0
C      1  0.5838570000000  0.5897040000000  0.5038400000000 1.0
C      1  0.5518350000000  0.3978430000000  0.4820660000000 1.0
C      1  0.4891970000000  0.3902720000000  0.4584900000000 1.0
C      1  0.5138880000000  0.4339720000000  0.3900850000000 1.0
C      1  0.4917590000000  0.4416040000000  0.4608990000000 1.0
C      1  0.4663860000000  0.4975320000000  0.3829800000000 1.0
C      1  0.6021880000000  0.5703180000000  0.4974240000000 1.0
C      1  0.6190230000000  0.5177760000000  0.5284230000000 1.0
C      1  0.4660060000000  0.4113770000000  0.5951460000000 1.0
C      1  0.6907920000000  0.5502100000000  0.5338270000000 1.0
C      1  0.4951830000000  0.5519810000000  0.5530470000000 1.0
C      1  0.4945380000000  0.5533320000000  0.4420170000000 1.0
C      1  0.4862510000000  0.3955690000000  0.5522220000000 1.0
C      1  0.4213440000000  0.5047380000000  0.4173650000000 1.0
C      1  0.4277280000000  0.5843870000000  0.4599840000000 1.0
C      1  0.4252770000000  0.4564650000000  0.4311150000000 1.0
C      1  0.4452820000000  0.5599330000000  0.5051950000000 1.0
C      1  0.5408040000000  0.4113120000000  0.4347210000000 1.0
C      1  0.5795090000000  0.4108940000000  0.5208800000000 1.0
C      1  0.5520980000000  0.4764260000000  0.5442480000000 1.0
C      1  0.4914280000000  0.4878880000000  0.4738300000000 1.0
C      1  0.4725110000000  0.6148430000000  0.5134050000000 1.0
C      1  0.5699230000000  0.4174010000000  0.5453610000000 1.0
C      1  0.5594100000000  0.5727820000000  0.5693310000000 1.0
C      1  0.4231340000000  0.4095060000000  0.4825990000000 1.0
C      1  0.4052860000000  0.5403080000000  0.4477390000000 1.0
C      1  0.5661050000000  0.5203250000000  0.5329340000000 1.0
C      1  0.4706670000000  0.5160470000000  0.5715650000000 1.0
C      1  0.4613450000000  0.4939810000000  0.4653430000000 1.0
C      1  0.4857540000000  0.5213110000000  0.5175270000000 1.0
C      1  0.4180270000000  0.4744320000000  0.5660360000000 1.0
C      1  0.4283830000000  0.5219330000000  0.6194360000000 1.0
C      1  0.5262920000000  0.5801840000000  0.4731000000000 1.0
C      1  0.4886000000000  0.5277120000000  0.4901220000000 1.0
C      1  0.4462930000000  0.5184060000000  0.4214610000000 1.0
C      1  0.4283700000000  0.4778530000000  0.5394890000000 1.0
C      1  0.5204130000000  0.6222930000000  0.5310400000000 1.0
C      1  0.4936030000000  0.5084670000000  0.3844250000000 1.0
C      1  0.3789550000000  0.5020460000000  0.5504240000000 1.0
C      1  0.5488150000000  0.4283940000000  0.5612510000000 1.0
C      1  0.4845620000000  0.4617360000000  0.5611440000000 1.0
C      1  0.6015910000000  0.5184020000000  0.4777090000000 1.0
C      1  0.5644290000000  0.5392950000000  0.4198550000000 1.0
C      1  0.4678360000000  0.5462040000000  0.5639730000000 1.0
C      1  0.5145230000000  0.5050480000000  0.5529150000000 1.0
C      1  0.5395930000000  0.4851010000000  0.3998780000000 1.0
C      1  0.5080680000000  0.5297610000000  0.4342100000000 1.0
C      1  0.4603610000000  0.3924900000000  0.4545050000000 1.0
C      1  0.5037250000000  0.4580260000000  0.6115980000000 1.0
C      1  0.5637330000000  0.4662770000000  0.5192330000000 1.0
C      1  0.3825070000000  0.4786130000000  0.5004300000000 1.0
C      1  0.5947860000000  0.5016130000000  0.5650020000000 1.0
C      1  0.4426020000000  0.5440710000000  0.4804950000000 1.0
C      1  0.5638950000000  0.5603630000000  0.4632640000000 1.0
C      1  0.4898500000000  0.4069290000000  0.4991790000000 1.0
C      1  0.5529770000000  0.5017010000000  0.4810500000000 1.0
C      1  0.3760190000000  0.4281840000000  0.4896250000000 1.0
C      1  0.4243600000000  0.5560580000000  0.4617170000000 1.0
C      1  0.4682160000000  0.4563180000000  0.4555990000000 1.0
C      1  0.5014590000000  0.6212500000000  0.5078760000000 1.0
C      1  0.5569000000000  0.5981550000000  0.5090370000000 1.0
C      1  0.4606460000000  0.5994060000000  0.5387010000000 1.0
C      1  0.4923780000000  0.5653290000000  0.3993680000000 1.0
C      1  0.5145940000000  0.5597180000000  0.5751320000000 1.0
C      1  0.4611630000000  0.5113780000000  0.5263520000000 1.0
C      1  0.4513000000000  0.4573950000000  0.6027490000000 1.0
C      1  0.4644620000000  0.4495160000000  0.5435300000000 1.0
C      1  0.5526720000000  0.5221630000000  0.5778720000000 1.0
C      1  0.5763370000000  0.5066440000000  0.5867050000000 1.0
C      1  0.5286520000000  0.5441340000000  0.5226080000000 1.0
C      1  0.4308250000000  0.4882100000000  0.4744930000000 1.0
C      1  0.4107960000000  0.4790240000000  0.4939510000000 1.0
C      1  0.5928980000000  0.5049220000000  0.5342890000000 1.0
C      1  0.5082810000000  0.5849180000000  0.5869500000000 1.0
C      1  0.4011270000000  0.5192160000000  0.4309420000000 1.0
C      1  0.4751210000000  0.5603880000000  0.4219880000000 1.0
C      1  0.5404820000000  0.5217510000000  0.4652240000000 1.0
C      1  0.5426310000000  0.5503320000000  0.5765880000000 1.0
C      1  0.4990520000000  0.4147080000000  0.4066390000000 1.0
C      1  0.5110350000000  0.5868880000000  0.4078290000000 1.0
C      1  0.4346670000000  0.5045380000000  0.5309450000000 1.0
C      1  0.4423380000000  0.6050560000000  0.4695740000000 1.0
C      1  0.5124540000000  0.4853580000000  0.3894990000000 1.0
C      1  0.4635570000000  0.6153730000000  0.4844460000000 1.0
C      1  0.4457250000000  0.4492800000000  0.5012630000000 1.0
C      1  0.4271640000000  0.4986140000000  0.6069150000000 1.0
C      1  0.4236090000000  0.5638490000000  0.5489070000000 1.0
C      1  0.5697490000000  0.4498820000000  0.4270150000000 1.0
C      1  0.4134130000000  0.5175840000000  0.5178800000000 1.0
C      1  0.4030080000000  0.5491940000000  0.5623880000000 1.0
C      1  0.5050720000000  0.6103120000000  0.5786610000000 1.0
C      1  0.4289610000000  0.4769870000000  0.4114180000000 1.0
C      1  0.5811330000000  0.4997230000000  0.4873390000000 1.0
C      1  0.5572980000000  0.5968240000000  0.5566460000000 1.0
C      1  0.5097850000000  0.4822950000000  0.4518860000000 1.0
C      1  0.4213910000000  0.5622170000000  0.5203020000000 1.0
C      1  0.4549000000000  0.4158370000000  0.4353270000000 1.0
C      1  0.4504640000000  0.5701970000000  0.5563320000000 1.0
C      1  0.5715790000000  0.4840010000000  0.6031190000000 1.0
C      1  0.5758970000000  0.4575540000000  0.5912620000000 1.0
C      1  0.4627290000000  0.5240190000000  0.4770470000000 1.0
C      1  0.5543160000000  0.5599120000000  0.4035610000000 1.0
C      1  0.4717780000000  0.4247280000000  0.4121890000000 1.0
C      1  0.5005100000000  0.4375720000000  0.5675840000000 1.0
C      1  0.5015120000000  0.5699910000000  0.4639450000000 1.0
C      1  0.4920950000000  0.5711050000000  0.5288300000000 1.0
C      1  0.3731090000000  0.4937240000000  0.5233030000000 1.0
C      1  0.5085140000000  0.6256910000000  0.5568300000000 1.0
C      1  0.4035090000000  0.5419430000000  0.5125710000000 1.0
END
