TITL C-612600-6631-500 10.040994713483 125000 -340.592565579069 0 0 58 (C1) n - 1
REM
REM in /home/nfs/bkarasulu/CARBON/AIRSS/Generating-Clusters/TERSOFF/Only-C1/FIRE-HFTN
REM
REM
REM
REM
REM
REM ./C.cell (11c1c37f851c82e70ff6c80c92926a4b)
REM AIRSS Version 0.9.1 bugfix July 2018 build 013d7b7c2542+ Fri, 06 Jul 2018 19:26:36 +0100
REM compiler GCC version 9.2.1 20190827 (Red Hat 9.2.1-1)
REM options -cpp -mtune=generic -march=x86-64 -g -O0 -fpre-include=/usr/include/finclude/math-vector-fortran.h
REM seed -410709040 -1399030428 -1175076207 1139228859 -2022935279 1655946471 -762289903 -1939118682 -168177231 -1227655214 348463958 1227102298 958068839 -1796986209 1690749002 1324817178 -209715803 1265243371 -1863763867 -519713072 205731358 825617051 -353989487 -890070725 -2050126514 138769067 -649949352 -215294078 -2141877966 1607250149 1880608829 -1458927808 -1952641675
REM
CELL 1.54180   50.00000   50.00000   50.00000   90.00000   90.00000   90.00000
LATT -1
SFAC C  
C      1  0.4627650000000  0.5122490000000  0.4905660000000 1.0
C      1  0.5247330000000  0.5391990000000  0.4487640000000 1.0
C      1  0.5546010000000  0.4721730000000  0.4395290000000 1.0
C      1  0.4275160000000  0.5462140000000  0.5360990000000 1.0
C      1  0.5021780000000  0.4600910000000  0.4392840000000 1.0
C      1  0.5302220000000  0.4615670000000  0.4379690000000 1.0
C      1  0.5546390000000  0.6108870000000  0.4860450000000 1.0
C      1  0.4924140000000  0.5801240000000  0.5124750000000 1.0
C      1  0.4335100000000  0.4377750000000  0.5406660000000 1.0
C      1  0.4529070000000  0.4221080000000  0.5541490000000 1.0
C      1  0.5649900000000  0.6325280000000  0.4758620000000 1.0
C      1  0.4500950000000  0.3936990000000  0.5551680000000 1.0
C      1  0.4898040000000  0.4141520000000  0.5848920000000 1.0
C      1  0.4892970000000  0.4458160000000  0.4598520000000 1.0
C      1  0.5085000000000  0.4425540000000  0.5033200000000 1.0
C      1  0.5742360000000  0.5404320000000  0.4937490000000 1.0
C      1  0.4072000000000  0.4379950000000  0.5501320000000 1.0
C      1  0.5868620000000  0.5344400000000  0.4688230000000 1.0
C      1  0.4403690000000  0.4525370000000  0.5173740000000 1.0
C      1  0.4171520000000  0.5216510000000  0.5387590000000 1.0
C      1  0.4755660000000  0.4328700000000  0.5687410000000 1.0
C      1  0.4652250000000  0.3769390000000  0.5703430000000 1.0
C      1  0.5229770000000  0.5189750000000  0.4658200000000 1.0
C      1  0.4416780000000  0.4935550000000  0.4918380000000 1.0
C      1  0.5598100000000  0.5642120000000  0.4973430000000 1.0
C      1  0.4753690000000  0.5018220000000  0.4235730000000 1.0
C      1  0.4660820000000  0.5260330000000  0.4665390000000 1.0
C      1  0.4871470000000  0.5356740000000  0.5288870000000 1.0
C      1  0.4845790000000  0.4590720000000  0.5660600000000 1.0
C      1  0.4175790000000  0.4955890000000  0.5322160000000 1.0
C      1  0.5791330000000  0.4856100000000  0.4423260000000 1.0
C      1  0.6047650000000  0.5520430000000  0.4579190000000 1.0
C      1  0.4852620000000  0.4416020000000  0.4873990000000 1.0
C      1  0.5015580000000  0.5063970000000  0.5663090000000 1.0
C      1  0.5417380000000  0.6059110000000  0.4103030000000 1.0
C      1  0.4843060000000  0.4881550000000  0.5269720000000 1.0
C      1  0.6018380000000  0.4743770000000  0.4318790000000 1.0
C      1  0.5808850000000  0.5103070000000  0.4556250000000 1.0
C      1  0.5166450000000  0.5866470000000  0.5035060000000 1.0
C      1  0.4479250000000  0.5622580000000  0.5292450000000 1.0
C      1  0.4795720000000  0.5127120000000  0.5134850000000 1.0
C      1  0.5729610000000  0.5200430000000  0.5130830000000 1.0
C      1  0.4599370000000  0.4423680000000  0.4996050000000 1.0
C      1  0.5436350000000  0.5870990000000  0.4958040000000 1.0
C      1  0.4911410000000  0.4831160000000  0.5539660000000 1.0
C      1  0.5388660000000  0.4843150000000  0.5037830000000 1.0
C      1  0.4306160000000  0.4791050000000  0.5133730000000 1.0
C      1  0.4852530000000  0.3873390000000  0.5855730000000 1.0
C      1  0.5004260000000  0.5303600000000  0.5534920000000 1.0
C      1  0.4681880000000  0.5213610000000  0.4403110000000 1.0
C      1  0.5599540000000  0.4969840000000  0.5172110000000 1.0
C      1  0.5290430000000  0.5606760000000  0.4338590000000 1.0
C      1  0.3827500000000  0.4379990000000  0.5591510000000 1.0
C      1  0.4872140000000  0.4779120000000  0.4235740000000 1.0
C      1  0.5351760000000  0.5832870000000  0.4214680000000 1.0
C      1  0.5266670000000  0.4995570000000  0.4835060000000 1.0
C      1  0.4754470000000  0.5608790000000  0.5235120000000 1.0
C      1  0.5290950000000  0.4586490000000  0.5089260000000 1.0
END
