TITL C-612605-9286-54 1.3845099939608 125000 -254.325825093011 0 0 43 (C1) n - 1
REM
REM in /home/nfs/bkarasulu/CARBON/AIRSS/Generating-Clusters/TERSOFF/Only-C1/FIRE-HFTN
REM
REM
REM
REM
REM
REM ./C.cell (11c1c37f851c82e70ff6c80c92926a4b)
REM AIRSS Version 0.9.1 bugfix July 2018 build 013d7b7c2542+ Fri, 06 Jul 2018 19:26:36 +0100
REM compiler GCC version 9.2.1 20190827 (Red Hat 9.2.1-1)
REM options -cpp -mtune=generic -march=x86-64 -g -O0 -fpre-include=/usr/include/finclude/math-vector-fortran.h
REM seed -1357214668 1958599013 -1305117035 316805436 -1497578749 -1305288887 1271040953 -299599521 1804877068 1885402164 1511009150 -1665190832 1716044666 -188616396 1736669811 -296256339 -414278708 2069156255 1634298572 -516466198 -902367319 896500771 413694892 441461056 1962070151 -1810515086 -1174745776 -1860469864 -342768756 1700611375 -787176226 -1873940957 2007536252
REM
CELL 1.54180   50.00000   50.00000   50.00000   90.00000   90.00000   90.00000
LATT -1
SFAC C  
C      1  0.5164040000000  0.5558360000000  0.6021340000000 1.0
C      1  0.4450610000000  0.3871830000000  0.3788730000000 1.0
C      1  0.5561820000000  0.5339410000000  0.5262380000000 1.0
C      1  0.4980200000000  0.4844460000000  0.4662730000000 1.0
C      1  0.4925510000000  0.4720460000000  0.6002250000000 1.0
C      1  0.5088540000000  0.4532410000000  0.5545450000000 1.0
C      1  0.4647370000000  0.4474770000000  0.4135120000000 1.0
C      1  0.4767740000000  0.5681160000000  0.4979920000000 1.0
C      1  0.5255720000000  0.5505160000000  0.4929110000000 1.0
C      1  0.5024190000000  0.5634060000000  0.4931470000000 1.0
C      1  0.4401540000000  0.5701700000000  0.5294900000000 1.0
C      1  0.4231010000000  0.3408110000000  0.3902950000000 1.0
C      1  0.4520700000000  0.4991400000000  0.4630460000000 1.0
C      1  0.4507690000000  0.5608370000000  0.5054220000000 1.0
C      1  0.5465720000000  0.5334860000000  0.4999800000000 1.0
C      1  0.5884680000000  0.5589640000000  0.5866890000000 1.0
C      1  0.5003840000000  0.4577430000000  0.5792820000000 1.0
C      1  0.5161870000000  0.4576470000000  0.5294420000000 1.0
C      1  0.4873190000000  0.4945010000000  0.6133900000000 1.0
C      1  0.4728750000000  0.4827130000000  0.4541550000000 1.0
C      1  0.4567260000000  0.4119220000000  0.3730600000000 1.0
C      1  0.5959080000000  0.5084800000000  0.4495550000000 1.0
C      1  0.5214960000000  0.4818820000000  0.4812270000000 1.0
C      1  0.5833160000000  0.5230970000000  0.4687350000000 1.0
C      1  0.4685880000000  0.4646700000000  0.4332900000000 1.0
C      1  0.4639830000000  0.4181100000000  0.3474240000000 1.0
C      1  0.4381390000000  0.5409090000000  0.4904080000000 1.0
C      1  0.4407710000000  0.5738680000000  0.5557820000000 1.0
C      1  0.5639090000000  0.5522980000000  0.5766730000000 1.0
C      1  0.5209270000000  0.4683650000000  0.5056770000000 1.0
C      1  0.4685270000000  0.5622710000000  0.5980200000000 1.0
C      1  0.4902620000000  0.5469810000000  0.6066730000000 1.0
C      1  0.4511160000000  0.5712630000000  0.5801040000000 1.0
C      1  0.5407440000000  0.5569350000000  0.5916820000000 1.0
C      1  0.4339930000000  0.3638070000000  0.3846190000000 1.0
C      1  0.4396040000000  0.5189990000000  0.4754620000000 1.0
C      1  0.5459330000000  0.4920040000000  0.4712710000000 1.0
C      1  0.4608890000000  0.4302620000000  0.3937520000000 1.0
C      1  0.5603460000000  0.4779080000000  0.4510710000000 1.0
C      1  0.5842470000000  0.4855740000000  0.4405800000000 1.0
C      1  0.4862520000000  0.5209030000000  0.6159690000000 1.0
C      1  0.5616160000000  0.5407470000000  0.5512740000000 1.0
C      1  0.5582320000000  0.5165240000000  0.4806480000000 1.0
END
