TITL C-612605-9286-715 -0.00257750623333717 125000 -1095.24113163489 0 0 177 (C1) n - 1
REM
REM in /home/nfs/bkarasulu/CARBON/AIRSS/Generating-Clusters/TERSOFF/Only-C1/FIRE-HFTN
REM
REM
REM
REM
REM
REM ./C.cell (11c1c37f851c82e70ff6c80c92926a4b)
REM AIRSS Version 0.9.1 bugfix July 2018 build 013d7b7c2542+ Fri, 06 Jul 2018 19:26:36 +0100
REM compiler GCC version 9.2.1 20190827 (Red Hat 9.2.1-1)
REM options -cpp -mtune=generic -march=x86-64 -g -O0 -fpre-include=/usr/include/finclude/math-vector-fortran.h
REM seed 539537137 203229451 694521091 -1549634770 -318142616 95922929 -311869790 767811821 2104984375 555288328 49788007 371705398 2107967435 -862638044 1462869203 1087604178 -782509377 21247504 242782363 1280384260 -407036837 1245741910 630414165 1323716320 373229283 789531356 -204437017 88976891 -1100239645 -629454522 -404167300 -1344968525 -413155841
REM
CELL 1.54180   50.00000   50.00000   50.00000   90.00000   90.00000   90.00000
LATT -1
SFAC C  
C      1  0.5968780000000  0.4809950000000  0.5576460000000 1.0
C      1  0.5662720000000  0.4659750000000  0.4329640000000 1.0
C      1  0.5990050000000  0.4656320000000  0.5323300000000 1.0
C      1  0.5013660000000  0.4048300000000  0.5515600000000 1.0
C      1  0.5424440000000  0.4655820000000  0.5999180000000 1.0
C      1  0.5573480000000  0.4881260000000  0.5894950000000 1.0
C      1  0.4726900000000  0.5703120000000  0.5137070000000 1.0
C      1  0.5988400000000  0.5386590000000  0.4591950000000 1.0
C      1  0.5256280000000  0.4371310000000  0.4549130000000 1.0
C      1  0.4736480000000  0.5171870000000  0.4754820000000 1.0
C      1  0.4882050000000  0.5170380000000  0.5324950000000 1.0
C      1  0.6222940000000  0.4737750000000  0.4677740000000 1.0
C      1  0.5633800000000  0.5331390000000  0.6091220000000 1.0
C      1  0.4990020000000  0.5225260000000  0.3762740000000 1.0
C      1  0.4187850000000  0.5505760000000  0.5524930000000 1.0
C      1  0.5917750000000  0.5127580000000  0.5215260000000 1.0
C      1  0.5535830000000  0.5215860000000  0.3648200000000 1.0
C      1  0.4123310000000  0.4825680000000  0.6243670000000 1.0
C      1  0.5693350000000  0.4448690000000  0.5646950000000 1.0
C      1  0.5575060000000  0.5048850000000  0.4665620000000 1.0
C      1  0.4078440000000  0.5216580000000  0.4712020000000 1.0
C      1  0.4608330000000  0.4111340000000  0.4355560000000 1.0
C      1  0.5213580000000  0.5350010000000  0.4445850000000 1.0
C      1  0.4506270000000  0.4848720000000  0.5936850000000 1.0
C      1  0.4704480000000  0.3775380000000  0.5251800000000 1.0
C      1  0.4729740000000  0.4948100000000  0.6087120000000 1.0
C      1  0.5219070000000  0.6102730000000  0.4961920000000 1.0
C      1  0.5668320000000  0.4613070000000  0.4815030000000 1.0
C      1  0.4455820000000  0.5584670000000  0.5974060000000 1.0
C      1  0.5407850000000  0.5112240000000  0.5406060000000 1.0
C      1  0.5337190000000  0.5261610000000  0.5679550000000 1.0
C      1  0.5790000000000  0.5583310000000  0.4064500000000 1.0
C      1  0.6698920000000  0.5006650000000  0.4891770000000 1.0
C      1  0.4004880000000  0.5256900000000  0.5534090000000 1.0
C      1  0.4031270000000  0.4491740000000  0.5348320000000 1.0
C      1  0.5611070000000  0.4779510000000  0.4592690000000 1.0
C      1  0.4384950000000  0.4191400000000  0.4774560000000 1.0
C      1  0.4747340000000  0.5835000000000  0.4152580000000 1.0
C      1  0.4161360000000  0.4781390000000  0.5003700000000 1.0
C      1  0.5618980000000  0.5493040000000  0.5116550000000 1.0
C      1  0.5543240000000  0.5469750000000  0.4091770000000 1.0
C      1  0.5198440000000  0.4698370000000  0.4134290000000 1.0
C      1  0.5276130000000  0.3902660000000  0.4607720000000 1.0
C      1  0.5286050000000  0.6130530000000  0.5247490000000 1.0
C      1  0.4033120000000  0.5613360000000  0.4389150000000 1.0
C      1  0.5170420000000  0.3859780000000  0.5089020000000 1.0
C      1  0.5456410000000  0.4804170000000  0.5430980000000 1.0
C      1  0.5551410000000  0.4406730000000  0.5897480000000 1.0
C      1  0.5190050000000  0.6202620000000  0.5509360000000 1.0
C      1  0.4408680000000  0.4267840000000  0.4490900000000 1.0
C      1  0.6228400000000  0.4865990000000  0.4926810000000 1.0
C      1  0.4445890000000  0.3815980000000  0.5138280000000 1.0
C      1  0.4759050000000  0.6287190000000  0.4948950000000 1.0
C      1  0.4621990000000  0.4788880000000  0.5408580000000 1.0
C      1  0.5423290000000  0.5910220000000  0.4868090000000 1.0
C      1  0.4009270000000  0.4733630000000  0.5531140000000 1.0
C      1  0.4988870000000  0.4507000000000  0.4092770000000 1.0
C      1  0.3877720000000  0.5149450000000  0.4511560000000 1.0
C      1  0.5142730000000  0.4697260000000  0.5052400000000 1.0
C      1  0.5559210000000  0.5763660000000  0.5079180000000 1.0
C      1  0.4730940000000  0.5554630000000  0.4100380000000 1.0
C      1  0.5650850000000  0.5238690000000  0.5244910000000 1.0
C      1  0.4220170000000  0.6010140000000  0.5412080000000 1.0
C      1  0.4087870000000  0.5788350000000  0.4831710000000 1.0
C      1  0.4927550000000  0.4271500000000  0.5669030000000 1.0
C      1  0.5061740000000  0.5170140000000  0.5805820000000 1.0
C      1  0.5190860000000  0.5160560000000  0.3960090000000 1.0
C      1  0.5030170000000  0.5539780000000  0.4832940000000 1.0
C      1  0.5135940000000  0.6012180000000  0.4342340000000 1.0
C      1  0.5462060000000  0.4752260000000  0.3594340000000 1.0
C      1  0.4481340000000  0.4679030000000  0.4183910000000 1.0
C      1  0.5372620000000  0.4306580000000  0.5254890000000 1.0
C      1  0.5148920000000  0.5125200000000  0.5248910000000 1.0
C      1  0.4677750000000  0.4452850000000  0.5084170000000 1.0
C      1  0.4015030000000  0.5736920000000  0.5084880000000 1.0
C      1  0.4496110000000  0.5755860000000  0.4561610000000 1.0
C      1  0.5779610000000  0.5231520000000  0.4609650000000 1.0
C      1  0.5410490000000  0.4146890000000  0.4574970000000 1.0
C      1  0.4829920000000  0.5350230000000  0.5763580000000 1.0
C      1  0.4475000000000  0.5199440000000  0.4331200000000 1.0
C      1  0.4918390000000  0.3731120000000  0.5079160000000 1.0
C      1  0.6102980000000  0.5495990000000  0.5494140000000 1.0
C      1  0.5014350000000  0.4228630000000  0.4127060000000 1.0
C      1  0.4474110000000  0.6094690000000  0.5319350000000 1.0
C      1  0.4045400000000  0.4253470000000  0.5510630000000 1.0
C      1  0.4974450000000  0.6155080000000  0.4816550000000 1.0
C      1  0.4299510000000  0.4513660000000  0.4349430000000 1.0
C      1  0.5825160000000  0.4407900000000  0.5377880000000 1.0
C      1  0.5445420000000  0.5282540000000  0.3908350000000 1.0
C      1  0.4032180000000  0.5000140000000  0.5133100000000 1.0
C      1  0.5202480000000  0.4071010000000  0.5290830000000 1.0
C      1  0.4391240000000  0.4858510000000  0.4860760000000 1.0
C      1  0.4177180000000  0.4351710000000  0.5749430000000 1.0
C      1  0.4557870000000  0.5075630000000  0.4982120000000 1.0
C      1  0.4720590000000  0.4589100000000  0.4069140000000 1.0
C      1  0.5494820000000  0.5920230000000  0.5313100000000 1.0
C      1  0.5141060000000  0.4672900000000  0.5968460000000 1.0
C      1  0.5226170000000  0.5376350000000  0.4729580000000 1.0
C      1  0.4984040000000  0.5987230000000  0.4096150000000 1.0
C      1  0.5321430000000  0.3795790000000  0.4862930000000 1.0
C      1  0.4663670000000  0.5402670000000  0.4327250000000 1.0
C      1  0.5144540000000  0.5585330000000  0.5332490000000 1.0
C      1  0.5531410000000  0.5163900000000  0.5894030000000 1.0
C      1  0.4217810000000  0.3818680000000  0.5301830000000 1.0
C      1  0.4412690000000  0.3924960000000  0.4874750000000 1.0
C      1  0.4668900000000  0.4351240000000  0.5588340000000 1.0
C      1  0.5301130000000  0.4592720000000  0.5272810000000 1.0
C      1  0.4663890000000  0.4517220000000  0.5361240000000 1.0
C      1  0.4719590000000  0.5338360000000  0.5499980000000 1.0
C      1  0.4535290000000  0.4710800000000  0.4671240000000 1.0
C      1  0.5681430000000  0.4762620000000  0.5640640000000 1.0
C      1  0.4176370000000  0.4519050000000  0.5103090000000 1.0
C      1  0.5346470000000  0.5128830000000  0.4818270000000 1.0
C      1  0.4543680000000  0.4866620000000  0.5660640000000 1.0
C      1  0.4102570000000  0.5752430000000  0.5353590000000 1.0
C      1  0.4252680000000  0.5597990000000  0.5800830000000 1.0
C      1  0.4408080000000  0.4379420000000  0.4987500000000 1.0
C      1  0.4660730000000  0.5885470000000  0.5333580000000 1.0
C      1  0.4717130000000  0.5470140000000  0.4691240000000 1.0
C      1  0.5467350000000  0.5815460000000  0.5609620000000 1.0
C      1  0.3865040000000  0.5396580000000  0.4358840000000 1.0
C      1  0.4104710000000  0.4632780000000  0.5793330000000 1.0
C      1  0.4557440000000  0.6288560000000  0.5130290000000 1.0
C      1  0.5290360000000  0.6040140000000  0.5713220000000 1.0
C      1  0.4806160000000  0.5419010000000  0.3858720000000 1.0
C      1  0.5965350000000  0.5654930000000  0.5657420000000 1.0
C      1  0.4046050000000  0.4647350000000  0.4400310000000 1.0
C      1  0.5863360000000  0.4233950000000  0.4449790000000 1.0
C      1  0.4809130000000  0.3837810000000  0.5511140000000 1.0
C      1  0.4686000000000  0.5210230000000  0.6192860000000 1.0
C      1  0.4451190000000  0.4291490000000  0.5755010000000 1.0
C      1  0.4700840000000  0.4979920000000  0.5221860000000 1.0
C      1  0.5337870000000  0.5818250000000  0.4364160000000 1.0
C      1  0.5734590000000  0.5773050000000  0.5722760000000 1.0
C      1  0.4904050000000  0.4583700000000  0.4931590000000 1.0
C      1  0.4454360000000  0.4962170000000  0.4183430000000 1.0
C      1  0.5365190000000  0.5543660000000  0.4300960000000 1.0
C      1  0.5373850000000  0.5013310000000  0.3520840000000 1.0
C      1  0.4443820000000  0.5383430000000  0.5392040000000 1.0
C      1  0.5309090000000  0.5557240000000  0.5569490000000 1.0
C      1  0.4928630000000  0.6044340000000  0.4554270000000 1.0
C      1  0.6446480000000  0.5042930000000  0.4987920000000 1.0
C      1  0.4114370000000  0.5239230000000  0.4994410000000 1.0
C      1  0.4678260000000  0.5417960000000  0.5998350000000 1.0
C      1  0.4685970000000  0.5913130000000  0.4434590000000 1.0
C      1  0.5481560000000  0.4647100000000  0.4102190000000 1.0
C      1  0.6134250000000  0.5305940000000  0.5292090000000 1.0
C      1  0.5074830000000  0.5093960000000  0.4404810000000 1.0
C      1  0.4240040000000  0.4771460000000  0.6003610000000 1.0
C      1  0.4212140000000  0.5735600000000  0.4581260000000 1.0
C      1  0.5679610000000  0.4178610000000  0.4659900000000 1.0
C      1  0.5654000000000  0.4294180000000  0.5174470000000 1.0
C      1  0.6163270000000  0.4915010000000  0.5732750000000 1.0
C      1  0.3989510000000  0.4996410000000  0.5415050000000 1.0
C      1  0.5905020000000  0.4497680000000  0.4349140000000 1.0
C      1  0.5700360000000  0.4343400000000  0.4895820000000 1.0
C      1  0.4997010000000  0.5629280000000  0.5097240000000 1.0
C      1  0.6133490000000  0.4630480000000  0.4449510000000 1.0
C      1  0.4878580000000  0.4047030000000  0.4298260000000 1.0
C      1  0.6016790000000  0.4862550000000  0.5122920000000 1.0
C      1  0.4819120000000  0.4717020000000  0.4686120000000 1.0
C      1  0.6377720000000  0.5255740000000  0.5159960000000 1.0
C      1  0.4735030000000  0.3702280000000  0.5736570000000 1.0
C      1  0.4395900000000  0.5325110000000  0.5084860000000 1.0
C      1  0.4901240000000  0.4984590000000  0.4606610000000 1.0
C      1  0.5201820000000  0.4976900000000  0.5008490000000 1.0
C      1  0.3894730000000  0.4874130000000  0.4428840000000 1.0
C      1  0.5092330000000  0.5095900000000  0.3521990000000 1.0
C      1  0.4556350000000  0.5553070000000  0.4962250000000 1.0
C      1  0.4996040000000  0.4923050000000  0.5961500000000 1.0
C      1  0.5136320000000  0.4973480000000  0.4161660000000 1.0
C      1  0.5041610000000  0.3872400000000  0.4451260000000 1.0
C      1  0.4055060000000  0.3989960000000  0.5425850000000 1.0
C      1  0.4311850000000  0.5217050000000  0.4555290000000 1.0
C      1  0.5717380000000  0.5464930000000  0.6298830000000 1.0
C      1  0.5032030000000  0.4431690000000  0.5871140000000 1.0
C      1  0.5552310000000  0.4640590000000  0.3825750000000 1.0
END
