TITL C-612600-6631-1121 3.16558792241024e-05 125000 -714.692124687438 0 0 119 (C1) n - 1
REM
REM in /home/nfs/bkarasulu/CARBON/AIRSS/Generating-Clusters/TERSOFF/Only-C1/FIRE-HFTN
REM
REM
REM
REM
REM
REM ./C.cell (11c1c37f851c82e70ff6c80c92926a4b)
REM AIRSS Version 0.9.1 bugfix July 2018 build 013d7b7c2542+ Fri, 06 Jul 2018 19:26:36 +0100
REM compiler GCC version 9.2.1 20190827 (Red Hat 9.2.1-1)
REM options -cpp -mtune=generic -march=x86-64 -g -O0 -fpre-include=/usr/include/finclude/math-vector-fortran.h
REM seed -1454508025 1792286020 575036694 -866186929 -281057360 464464031 -2053922048 -1192448928 -582339397 -639091935 1017607655 679646167 2023314476 -1085294159 1271957765 -889660926 -1563400810 -325185858 -1088674970 -374053713 -1960527228 1361704377 1877397928 1065685953 -110816516 -2053128765 -1907229016 1692559134 -1129651491 439502773 -1264239534 -1882050912 -1611620274
REM
CELL 1.54180   50.00000   50.00000   50.00000   90.00000   90.00000   90.00000
LATT -1
SFAC C  
C      1  0.4932300000000  0.4694100000000  0.4662670000000 1.0
C      1  0.4792720000000  0.4676640000000  0.5721060000000 1.0
C      1  0.5706900000000  0.5692130000000  0.4658100000000 1.0
C      1  0.5372380000000  0.5402070000000  0.4422340000000 1.0
C      1  0.4822390000000  0.5055650000000  0.5116370000000 1.0
C      1  0.4654740000000  0.4750460000000  0.4229980000000 1.0
C      1  0.6130530000000  0.5595550000000  0.4428480000000 1.0
C      1  0.5416050000000  0.4908050000000  0.5307010000000 1.0
C      1  0.6000530000000  0.4988390000000  0.4948050000000 1.0
C      1  0.4514250000000  0.3964660000000  0.5209290000000 1.0
C      1  0.5892780000000  0.5499330000000  0.4541760000000 1.0
C      1  0.4955810000000  0.4002260000000  0.5537480000000 1.0
C      1  0.5032330000000  0.5070250000000  0.5857400000000 1.0
C      1  0.5634560000000  0.5083580000000  0.5846570000000 1.0
C      1  0.5263050000000  0.6297110000000  0.5332310000000 1.0
C      1  0.4635560000000  0.5302590000000  0.5994300000000 1.0
C      1  0.4784990000000  0.5252680000000  0.4075770000000 1.0
C      1  0.4080430000000  0.4465210000000  0.5528600000000 1.0
C      1  0.5566380000000  0.4831250000000  0.4255980000000 1.0
C      1  0.4541190000000  0.5351460000000  0.5745660000000 1.0
C      1  0.4240050000000  0.4328580000000  0.4803270000000 1.0
C      1  0.4806120000000  0.4497010000000  0.4234720000000 1.0
C      1  0.6010390000000  0.4433220000000  0.5361950000000 1.0
C      1  0.5686770000000  0.5281970000000  0.5675480000000 1.0
C      1  0.4732080000000  0.4489210000000  0.5032730000000 1.0
C      1  0.4167730000000  0.4305670000000  0.5306680000000 1.0
C      1  0.5509490000000  0.5724550000000  0.5112300000000 1.0
C      1  0.5190730000000  0.4801390000000  0.5443530000000 1.0
C      1  0.4556940000000  0.4284480000000  0.5592640000000 1.0
C      1  0.4170650000000  0.5831630000000  0.5429800000000 1.0
C      1  0.5799270000000  0.5096490000000  0.4801030000000 1.0
C      1  0.6351000000000  0.5682130000000  0.4319840000000 1.0
C      1  0.4956280000000  0.4435900000000  0.5807560000000 1.0
C      1  0.4501310000000  0.5200750000000  0.4082230000000 1.0
C      1  0.4028670000000  0.5213700000000  0.5111720000000 1.0
C      1  0.4205930000000  0.4926500000000  0.4351210000000 1.0
C      1  0.5110810000000  0.4071920000000  0.5300660000000 1.0
C      1  0.5226480000000  0.6044140000000  0.5281790000000 1.0
C      1  0.4193060000000  0.4919860000000  0.5472320000000 1.0
C      1  0.4430590000000  0.4430160000000  0.4612690000000 1.0
C      1  0.5095040000000  0.5532170000000  0.5075010000000 1.0
C      1  0.4790290000000  0.5624630000000  0.5435690000000 1.0
C      1  0.4946110000000  0.5237270000000  0.4331940000000 1.0
C      1  0.5737650000000  0.5636660000000  0.5259460000000 1.0
C      1  0.5121830000000  0.4533670000000  0.4256190000000 1.0
C      1  0.4320180000000  0.5402210000000  0.4179180000000 1.0
C      1  0.5087610000000  0.5023410000000  0.4969470000000 1.0
C      1  0.5534490000000  0.4862910000000  0.5959530000000 1.0
C      1  0.6202150000000  0.4340850000000  0.5512320000000 1.0
C      1  0.4261940000000  0.5647190000000  0.4984560000000 1.0
C      1  0.5168580000000  0.5691900000000  0.5765680000000 1.0
C      1  0.4114510000000  0.5317560000000  0.4644120000000 1.0
C      1  0.4731470000000  0.3908960000000  0.5060730000000 1.0
C      1  0.5693970000000  0.5088760000000  0.4307820000000 1.0
C      1  0.4847040000000  0.4532300000000  0.5266000000000 1.0
C      1  0.5651810000000  0.4754300000000  0.5304750000000 1.0
C      1  0.5120140000000  0.5776250000000  0.4452870000000 1.0
C      1  0.4877570000000  0.5192050000000  0.6042450000000 1.0
C      1  0.4099870000000  0.5414220000000  0.4921400000000 1.0
C      1  0.5536930000000  0.5310570000000  0.4212240000000 1.0
C      1  0.4261350000000  0.4677830000000  0.5600640000000 1.0
C      1  0.4987600000000  0.4032200000000  0.5041190000000 1.0
C      1  0.5414000000000  0.5330000000000  0.4691520000000 1.0
C      1  0.5690760000000  0.4582760000000  0.4300210000000 1.0
C      1  0.4031230000000  0.4704830000000  0.5071350000000 1.0
C      1  0.4809350000000  0.5113640000000  0.5402780000000 1.0
C      1  0.5217710000000  0.5897580000000  0.4706920000000 1.0
C      1  0.4524310000000  0.4578390000000  0.5651700000000 1.0
C      1  0.5986220000000  0.5734520000000  0.5199170000000 1.0
C      1  0.5242780000000  0.4439160000000  0.5844660000000 1.0
C      1  0.4581480000000  0.5087710000000  0.4949140000000 1.0
C      1  0.5536050000000  0.5164950000000  0.4886720000000 1.0
C      1  0.5104120000000  0.4918220000000  0.4700020000000 1.0
C      1  0.5382560000000  0.4300170000000  0.5635240000000 1.0
C      1  0.4636640000000  0.5814490000000  0.5269380000000 1.0
C      1  0.5162110000000  0.4142110000000  0.4568420000000 1.0
C      1  0.5115250000000  0.4547250000000  0.5339130000000 1.0
C      1  0.5386180000000  0.4640710000000  0.5978130000000 1.0
C      1  0.5488340000000  0.5796830000000  0.4822410000000 1.0
C      1  0.4592700000000  0.4048890000000  0.4332180000000 1.0
C      1  0.4447480000000  0.5702430000000  0.4776880000000 1.0
C      1  0.5028410000000  0.4199560000000  0.4807630000000 1.0
C      1  0.4691300000000  0.5362240000000  0.5504910000000 1.0
C      1  0.4784060000000  0.5999500000000  0.5086520000000 1.0
C      1  0.4701890000000  0.4828850000000  0.4520150000000 1.0
C      1  0.4405240000000  0.4161600000000  0.5377000000000 1.0
C      1  0.4181210000000  0.5039520000000  0.4620710000000 1.0
C      1  0.4727230000000  0.5138250000000  0.4515180000000 1.0
C      1  0.4477540000000  0.4705280000000  0.4670420000000 1.0
C      1  0.4349600000000  0.5764060000000  0.5233830000000 1.0
C      1  0.5798460000000  0.4533440000000  0.5210160000000 1.0
C      1  0.5353660000000  0.5059360000000  0.5077220000000 1.0
C      1  0.4644680000000  0.5272430000000  0.4739480000000 1.0
C      1  0.4168150000000  0.5456620000000  0.4399470000000 1.0
C      1  0.5285820000000  0.4326750000000  0.4393660000000 1.0
C      1  0.4898450000000  0.4456190000000  0.4810590000000 1.0
C      1  0.5149120000000  0.5010480000000  0.4417590000000 1.0
C      1  0.5239570000000  0.5734780000000  0.5259490000000 1.0
C      1  0.5269540000000  0.5736220000000  0.6001810000000 1.0
C      1  0.4369380000000  0.4923620000000  0.4817860000000 1.0
C      1  0.5731710000000  0.4411510000000  0.4965430000000 1.0
C      1  0.5846780000000  0.5205040000000  0.4537510000000 1.0
C      1  0.5551090000000  0.5413410000000  0.3961310000000 1.0
C      1  0.4969000000000  0.5910490000000  0.4876110000000 1.0
C      1  0.5107480000000  0.5499420000000  0.4372530000000 1.0
C      1  0.5068770000000  0.5675380000000  0.5506890000000 1.0
C      1  0.4125790000000  0.4430620000000  0.5048530000000 1.0
C      1  0.4911940000000  0.5624310000000  0.4884810000000 1.0
C      1  0.4816050000000  0.4198510000000  0.5691040000000 1.0
C      1  0.4067280000000  0.4952720000000  0.5217840000000 1.0
C      1  0.4958710000000  0.4924410000000  0.5603620000000 1.0
C      1  0.5261060000000  0.4305390000000  0.5376770000000 1.0
C      1  0.5707790000000  0.5454240000000  0.5472720000000 1.0
C      1  0.5270230000000  0.4805780000000  0.4256430000000 1.0
C      1  0.5662010000000  0.4343760000000  0.4717280000000 1.0
C      1  0.4610250000000  0.4314730000000  0.4396820000000 1.0
C      1  0.4676850000000  0.5542510000000  0.4769140000000 1.0
C      1  0.4429750000000  0.4927980000000  0.4161740000000 1.0
C      1  0.5562520000000  0.4385890000000  0.4457240000000 1.0
END
