TITL C-612601-4209-597 1.91485640443172 125000 -251.982180966587 0 0 42 (C1) n - 1
REM
REM in /home/nfs/bkarasulu/CARBON/AIRSS/Generating-Clusters/TERSOFF/Only-C1/FIRE-HFTN
REM
REM
REM
REM
REM
REM ./C.cell (11c1c37f851c82e70ff6c80c92926a4b)
REM AIRSS Version 0.9.1 bugfix July 2018 build 013d7b7c2542+ Fri, 06 Jul 2018 19:26:36 +0100
REM compiler GCC version 9.2.1 20190827 (Red Hat 9.2.1-1)
REM options -cpp -mtune=generic -march=x86-64 -g -O0 -fpre-include=/usr/include/finclude/math-vector-fortran.h
REM seed 1476958559 276986834 1180866187 602302441 2082106988 -1815019487 1043650990 -1502256710 2016491942 -565755097 741976868 828003875 1912550342 -1699375654 1839843064 -324156866 -1824322044 69242329 1467414483 985836153 1122881243 -1491892594 -560998039 -1003271796 -1196638590 1303648859 -1677430297 2067243616 1462107855 -1821354365 -1037127335 -2034751199 1625493910
REM
CELL 1.54180   50.00000   50.00000   50.00000   90.00000   90.00000   90.00000
LATT -1
SFAC C  
C      1  0.4743730000000  0.4412550000000  0.4542870000000 1.0
C      1  0.5682340000000  0.5024420000000  0.5403830000000 1.0
C      1  0.5523450000000  0.4692870000000  0.5088220000000 1.0
C      1  0.4454340000000  0.5069160000000  0.4968520000000 1.0
C      1  0.3140910000000  0.4937880000000  0.4854630000000 1.0
C      1  0.4902870000000  0.4609480000000  0.4646310000000 1.0
C      1  0.5898140000000  0.5146980000000  0.5298230000000 1.0
C      1  0.5817600000000  0.5461560000000  0.4696610000000 1.0
C      1  0.5359510000000  0.4669340000000  0.4847810000000 1.0
C      1  0.6002810000000  0.5399560000000  0.4885910000000 1.0
C      1  0.3403640000000  0.4964510000000  0.4877500000000 1.0
C      1  0.5802790000000  0.4700190000000  0.5015080000000 1.0
C      1  0.5607610000000  0.5280840000000  0.4635910000000 1.0
C      1  0.4895340000000  0.5942750000000  0.5878140000000 1.0
C      1  0.4733070000000  0.5080760000000  0.4988790000000 1.0
C      1  0.4857260000000  0.5527750000000  0.5557610000000 1.0
C      1  0.4876150000000  0.5737250000000  0.5718860000000 1.0
C      1  0.4852500000000  0.5080020000000  0.5248770000000 1.0
C      1  0.5099240000000  0.4551550000000  0.4845030000000 1.0
C      1  0.5253920000000  0.4917580000000  0.6018150000000 1.0
C      1  0.4844570000000  0.5314330000000  0.5401300000000 1.0
C      1  0.5336790000000  0.5352290000000  0.4644460000000 1.0
C      1  0.5246800000000  0.4885350000000  0.5759650000000 1.0
C      1  0.4955250000000  0.4922610000000  0.4290280000000 1.0
C      1  0.4191620000000  0.5044360000000  0.4946080000000 1.0
C      1  0.2882500000000  0.4911680000000  0.4832140000000 1.0
C      1  0.4992700000000  0.4444040000000  0.5083010000000 1.0
C      1  0.5232840000000  0.4862760000000  0.5481440000000 1.0
C      1  0.4978730000000  0.4848470000000  0.5355630000000 1.0
C      1  0.4895630000000  0.4588460000000  0.5288000000000 1.0
C      1  0.3928960000000  0.5017760000000  0.4923220000000 1.0
C      1  0.5197100000000  0.4846110000000  0.4196580000000 1.0
C      1  0.4888900000000  0.5091800000000  0.4750690000000 1.0
C      1  0.4877400000000  0.4879980000000  0.4559140000000 1.0
C      1  0.5086370000000  0.5288120000000  0.4710860000000 1.0
C      1  0.5876430000000  0.4935530000000  0.4871460000000 1.0
C      1  0.5980800000000  0.5155580000000  0.5027990000000 1.0
C      1  0.5470270000000  0.4849420000000  0.5326870000000 1.0
C      1  0.3666300000000  0.4991140000000  0.4900360000000 1.0
C      1  0.5482730000000  0.4796980000000  0.4614840000000 1.0
C      1  0.5675800000000  0.5003070000000  0.4671990000000 1.0
C      1  0.5404280000000  0.4763180000000  0.4347230000000 1.0
END
