TITL C-612604-1799-312 95.1494839389585 125000 -1026.85476245182 0 0 167 (C1) n - 1
REM
REM in /home/nfs/bkarasulu/CARBON/AIRSS/Generating-Clusters/TERSOFF/Only-C1/FIRE-HFTN
REM
REM
REM
REM
REM
REM ./C.cell (11c1c37f851c82e70ff6c80c92926a4b)
REM AIRSS Version 0.9.1 bugfix July 2018 build 013d7b7c2542+ Fri, 06 Jul 2018 19:26:36 +0100
REM compiler GCC version 9.2.1 20190827 (Red Hat 9.2.1-1)
REM options -cpp -mtune=generic -march=x86-64 -g -O0 -fpre-include=/usr/include/finclude/math-vector-fortran.h
REM seed 1341362054 2007292967 -1649520604 841984913 -1644667946 1754937517 -1734784345 2061945109 1433045242 -1548658675 -454949259 166946711 1550141586 -235941891 -764003195 506146505 -1929268349 -2047578873 -811600529 882459847 2050233192 579492367 -1692303719 -1123782514 -98584961 1125869170 1728890622 488819557 -242931273 -548729515 -1032695157 1465436752 -1073775784
REM
CELL 1.54180   50.00000   50.00000   50.00000   90.00000   90.00000   90.00000
LATT -1
SFAC C  
C      1  0.4895500000000  0.6029310000000  0.5108480000000 1.0
C      1  0.5862110000000  0.4278870000000  0.4177650000000 1.0
C      1  0.5205470000000  0.4563400000000  0.5248070000000 1.0
C      1  0.3945120000000  0.4347170000000  0.4925760000000 1.0
C      1  0.5711390000000  0.5037870000000  0.5719980000000 1.0
C      1  0.3791690000000  0.5438100000000  0.5031100000000 1.0
C      1  0.5392160000000  0.5107850000000  0.3801980000000 1.0
C      1  0.5110650000000  0.5606670000000  0.5319220000000 1.0
C      1  0.5299720000000  0.5975030000000  0.4976460000000 1.0
C      1  0.4433640000000  0.5043460000000  0.5637750000000 1.0
C      1  0.4486080000000  0.5740790000000  0.4341430000000 1.0
C      1  0.4866090000000  0.4365560000000  0.5545920000000 1.0
C      1  0.5789440000000  0.4567120000000  0.5173230000000 1.0
C      1  0.5641900000000  0.5853920000000  0.5505220000000 1.0
C      1  0.5253710000000  0.5120000000000  0.6294110000000 1.0
C      1  0.5203220000000  0.4085310000000  0.5726790000000 1.0
C      1  0.5033360000000  0.5875850000000  0.4423230000000 1.0
C      1  0.4164390000000  0.5346960000000  0.4401380000000 1.0
C      1  0.3939920000000  0.4749590000000  0.5147170000000 1.0
C      1  0.5738240000000  0.6022060000000  0.5068400000000 1.0
C      1  0.4664170000000  0.5405850000000  0.4714490000000 1.0
C      1  0.4087960000000  0.4784290000000  0.4912280000000 1.0
C      1  0.4639120000000  0.6178840000000  0.5443780000000 1.0
C      1  0.5310090000000  0.5968370000000  0.4451600000000 1.0
C      1  0.4293890000000  0.5790250000000  0.4568460000000 1.0
C      1  0.5230670000000  0.5710680000000  0.5079840000000 1.0
C      1  0.5427260000000  0.5983860000000  0.4713340000000 1.0
C      1  0.4812990000000  0.5861670000000  0.4916290000000 1.0
C      1  0.4359400000000  0.4855740000000  0.4886950000000 1.0
C      1  0.5556160000000  0.4229530000000  0.4834660000000 1.0
C      1  0.4856360000000  0.5738180000000  0.4018110000000 1.0
C      1  0.4921010000000  0.4134550000000  0.5698130000000 1.0
C      1  0.4810690000000  0.4875170000000  0.5856100000000 1.0
C      1  0.5612790000000  0.4304240000000  0.5836230000000 1.0
C      1  0.5111030000000  0.3906060000000  0.5039080000000 1.0
C      1  0.5027440000000  0.5019670000000  0.6398400000000 1.0
C      1  0.5403480000000  0.4986280000000  0.5373260000000 1.0
C      1  0.4739240000000  0.4726820000000  0.4580630000000 1.0
C      1  0.6107470000000  0.4605800000000  0.4809130000000 1.0
C      1  0.4784720000000  0.4799790000000  0.5060420000000 1.0
C      1  0.5828360000000  0.4751520000000  0.4265270000000 1.0
C      1  0.5722070000000  0.4792490000000  0.3987620000000 1.0
C      1  0.4645790000000  0.4348220000000  0.4316330000000 1.0
C      1  0.4726110000000  0.5066770000000  0.5656200000000 1.0
C      1  0.5638820000000  0.5238220000000  0.5925620000000 1.0
C      1  0.5542760000000  0.5349390000000  0.5071100000000 1.0
C      1  0.3833160000000  0.4987300000000  0.5247530000000 1.0
C      1  0.5822240000000  0.5792030000000  0.5252040000000 1.0
C      1  0.3914160000000  0.5534440000000  0.4795650000000 1.0
C      1  0.5383700000000  0.4647180000000  0.4242460000000 1.0
C      1  0.5909620000000  0.4004660000000  0.4251740000000 1.0
C      1  0.4389470000000  0.5370340000000  0.3946180000000 1.0
C      1  0.5298470000000  0.4830080000000  0.5134770000000 1.0
C      1  0.5039530000000  0.4912870000000  0.4990680000000 1.0
C      1  0.5620760000000  0.5192100000000  0.5284780000000 1.0
C      1  0.4329740000000  0.6083850000000  0.5029460000000 1.0
C      1  0.4673330000000  0.4729600000000  0.5307330000000 1.0
C      1  0.4191050000000  0.4597050000000  0.5640130000000 1.0
C      1  0.5716610000000  0.5252650000000  0.4459410000000 1.0
C      1  0.5836710000000  0.5665240000000  0.4769340000000 1.0
C      1  0.5062710000000  0.4760930000000  0.5909710000000 1.0
C      1  0.4012430000000  0.4747470000000  0.4634570000000 1.0
C      1  0.4129150000000  0.5396650000000  0.5772380000000 1.0
C      1  0.5474500000000  0.6117760000000  0.5158730000000 1.0
C      1  0.5608540000000  0.4108750000000  0.3794780000000 1.0
C      1  0.5605620000000  0.5742830000000  0.5774430000000 1.0
C      1  0.5427100000000  0.6053760000000  0.5429520000000 1.0
C      1  0.4608620000000  0.5528040000000  0.5266720000000 1.0
C      1  0.4618900000000  0.5231390000000  0.3847770000000 1.0
C      1  0.5824630000000  0.5206270000000  0.5492710000000 1.0
C      1  0.5137730000000  0.3834430000000  0.5311620000000 1.0
C      1  0.5706270000000  0.5708580000000  0.4311240000000 1.0
C      1  0.6026140000000  0.5023720000000  0.5050290000000 1.0
C      1  0.4097110000000  0.5570880000000  0.4585600000000 1.0
C      1  0.5713930000000  0.5929360000000  0.4791150000000 1.0
C      1  0.5932530000000  0.5430970000000  0.5629620000000 1.0
C      1  0.6109200000000  0.4504710000000  0.4561540000000 1.0
C      1  0.6030940000000  0.5300140000000  0.5053880000000 1.0
C      1  0.5745250000000  0.5505200000000  0.5839490000000 1.0
C      1  0.3785430000000  0.5835380000000  0.6333080000000 1.0
C      1  0.5114470000000  0.4375490000000  0.5062010000000 1.0
C      1  0.5376420000000  0.5841030000000  0.5912360000000 1.0
C      1  0.5730260000000  0.4599090000000  0.5460430000000 1.0
C      1  0.4709570000000  0.4179640000000  0.4911290000000 1.0
C      1  0.4451040000000  0.5319470000000  0.4866140000000 1.0
C      1  0.5326210000000  0.3995510000000  0.5469500000000 1.0
C      1  0.5105030000000  0.4388570000000  0.4537640000000 1.0
C      1  0.4757790000000  0.5240780000000  0.4489490000000 1.0
C      1  0.4377800000000  0.4322320000000  0.4328120000000 1.0
C      1  0.5281950000000  0.5164680000000  0.4627420000000 1.0
C      1  0.5207330000000  0.4558200000000  0.5781700000000 1.0
C      1  0.4432280000000  0.3950280000000  0.5460400000000 1.0
C      1  0.3998210000000  0.4446270000000  0.4639670000000 1.0
C      1  0.4859140000000  0.5464230000000  0.5362820000000 1.0
C      1  0.5885870000000  0.3816740000000  0.4040350000000 1.0
C      1  0.5717920000000  0.4027800000000  0.4722540000000 1.0
C      1  0.5286120000000  0.5453540000000  0.5492670000000 1.0
C      1  0.4366580000000  0.5475520000000  0.4214050000000 1.0
C      1  0.4897480000000  0.5270460000000  0.3872900000000 1.0
C      1  0.5201080000000  0.5173430000000  0.5505640000000 1.0
C      1  0.5865580000000  0.3939000000000  0.4519510000000 1.0
C      1  0.4566610000000  0.4766180000000  0.5981400000000 1.0
C      1  0.4941900000000  0.5403210000000  0.4335960000000 1.0
C      1  0.4609090000000  0.3760590000000  0.5344610000000 1.0
C      1  0.5127450000000  0.5144090000000  0.3772870000000 1.0
C      1  0.5698830000000  0.5221910000000  0.4171300000000 1.0
C      1  0.4352280000000  0.4791490000000  0.5775700000000 1.0
C      1  0.4601140000000  0.4687910000000  0.4844800000000 1.0
C      1  0.4886670000000  0.3733450000000  0.5411230000000 1.0
C      1  0.5625700000000  0.5058390000000  0.3952380000000 1.0
C      1  0.5976030000000  0.4735780000000  0.5024290000000 1.0
C      1  0.4399400000000  0.5400360000000  0.5132370000000 1.0
C      1  0.5514260000000  0.4867730000000  0.4896060000000 1.0
C      1  0.4979310000000  0.4145570000000  0.4976860000000 1.0
C      1  0.4249940000000  0.5246850000000  0.5569580000000 1.0
C      1  0.5071630000000  0.5009410000000  0.4726090000000 1.0
C      1  0.4309150000000  0.5977120000000  0.4781960000000 1.0
C      1  0.5266820000000  0.5441790000000  0.4679290000000 1.0
C      1  0.4149960000000  0.4257140000000  0.4482120000000 1.0
C      1  0.4909870000000  0.5208860000000  0.5500300000000 1.0
C      1  0.4427590000000  0.6155540000000  0.5271640000000 1.0
C      1  0.3926560000000  0.5251770000000  0.5200010000000 1.0
C      1  0.5632420000000  0.4311390000000  0.5102510000000 1.0
C      1  0.5692490000000  0.4334470000000  0.5568570000000 1.0
C      1  0.5572190000000  0.4788300000000  0.4420930000000 1.0
C      1  0.5046330000000  0.5597420000000  0.4552830000000 1.0
C      1  0.5649350000000  0.4321210000000  0.3976550000000 1.0
C      1  0.3968550000000  0.4466310000000  0.5200230000000 1.0
C      1  0.5780100000000  0.5527490000000  0.4525190000000 1.0
C      1  0.5458800000000  0.5189820000000  0.6136030000000 1.0
C      1  0.4336530000000  0.5099170000000  0.4747090000000 1.0
C      1  0.5338370000000  0.4325790000000  0.4667380000000 1.0
C      1  0.5111340000000  0.4522260000000  0.5511550000000 1.0
C      1  0.4848970000000  0.4982900000000  0.4555380000000 1.0
C      1  0.4789200000000  0.4894550000000  0.6405280000000 1.0
C      1  0.5360670000000  0.5507620000000  0.4934060000000 1.0
C      1  0.4827060000000  0.5631270000000  0.4759620000000 1.0
C      1  0.5546730000000  0.5022310000000  0.4616720000000 1.0
C      1  0.5521780000000  0.4574340000000  0.3990700000000 1.0
C      1  0.4178450000000  0.5409250000000  0.3774340000000 1.0
C      1  0.4153370000000  0.5072800000000  0.4524020000000 1.0
C      1  0.4845770000000  0.4489210000000  0.4458380000000 1.0
C      1  0.5964760000000  0.4506910000000  0.4321190000000 1.0
C      1  0.5730320000000  0.3867290000000  0.3822950000000 1.0
C      1  0.5927600000000  0.5574640000000  0.5042800000000 1.0
C      1  0.5333050000000  0.4309000000000  0.5865080000000 1.0
C      1  0.4119640000000  0.4397420000000  0.5439500000000 1.0
C      1  0.4912670000000  0.6110120000000  0.5384370000000 1.0
C      1  0.5163870000000  0.5979960000000  0.5812430000000 1.0
C      1  0.3898700000000  0.5690240000000  0.6148500000000 1.0
C      1  0.4508740000000  0.3636130000000  0.5111680000000 1.0
C      1  0.3541760000000  0.5526600000000  0.5099930000000 1.0
C      1  0.4946970000000  0.5472690000000  0.4062140000000 1.0
C      1  0.5502660000000  0.5880570000000  0.4260860000000 1.0
C      1  0.4648320000000  0.4502510000000  0.5446930000000 1.0
C      1  0.4554360000000  0.4397400000000  0.4888720000000 1.0
C      1  0.4130890000000  0.3984590000000  0.4557140000000 1.0
C      1  0.5585720000000  0.4823860000000  0.5566640000000 1.0
C      1  0.4361250000000  0.3654150000000  0.4889930000000 1.0
C      1  0.4762990000000  0.5858500000000  0.4268070000000 1.0
C      1  0.4589090000000  0.4780060000000  0.6262260000000 1.0
C      1  0.4245730000000  0.4143510000000  0.5461530000000 1.0
C      1  0.5157420000000  0.6073760000000  0.5543060000000 1.0
C      1  0.4187890000000  0.5307020000000  0.5297070000000 1.0
C      1  0.4013920000000  0.5542720000000  0.5960840000000 1.0
C      1  0.4219770000000  0.3778140000000  0.4700960000000 1.0
C      1  0.5556180000000  0.4163330000000  0.5363560000000 1.0
END
