TITL C-612607-4507-730 0.00361162132962557 125000 -1197.36122827081 0 0 193 (C1) n - 1
REM
REM in /home/nfs/bkarasulu/CARBON/AIRSS/Generating-Clusters/TERSOFF/Only-C1/FIRE-HFTN
REM
REM
REM
REM
REM
REM ./C.cell (11c1c37f851c82e70ff6c80c92926a4b)
REM AIRSS Version 0.9.1 bugfix July 2018 build 013d7b7c2542+ Fri, 06 Jul 2018 19:26:36 +0100
REM compiler GCC version 9.2.1 20190827 (Red Hat 9.2.1-1)
REM options -cpp -mtune=generic -march=x86-64 -g -O0 -fpre-include=/usr/include/finclude/math-vector-fortran.h
REM seed 523093410 1620001959 -462861761 -486233581 -1174126784 -2130989876 -1425327793 1209638433 -624574296 2043734891 -1031010339 1272996524 1290876115 -1233759855 1232591117 972871390 -690221317 690691317 1439065105 1529721838 2084813554 182597611 -928588897 -269399421 -1726617768 2124982249 2109802114 865607569 1917420486 1507434300 416163349 -1859333534 929575239
REM
CELL 1.54180   50.00000   50.00000   50.00000   90.00000   90.00000   90.00000
LATT -1
SFAC C  
C      1  0.5115080000000  0.5271970000000  0.4627870000000 1.0
C      1  0.5871830000000  0.5414440000000  0.4310570000000 1.0
C      1  0.5197010000000  0.6102280000000  0.4527470000000 1.0
C      1  0.5299150000000  0.4848170000000  0.4939310000000 1.0
C      1  0.4438770000000  0.3923540000000  0.5679760000000 1.0
C      1  0.5817390000000  0.4939860000000  0.4770880000000 1.0
C      1  0.4533350000000  0.5975590000000  0.5414190000000 1.0
C      1  0.5084010000000  0.5682090000000  0.4329070000000 1.0
C      1  0.4468000000000  0.4151340000000  0.4228550000000 1.0
C      1  0.4282160000000  0.5228490000000  0.6154100000000 1.0
C      1  0.4589030000000  0.4704580000000  0.6037190000000 1.0
C      1  0.3975830000000  0.4684900000000  0.5475970000000 1.0
C      1  0.5543350000000  0.4114570000000  0.5747830000000 1.0
C      1  0.5598990000000  0.5924680000000  0.5497850000000 1.0
C      1  0.3882930000000  0.5083100000000  0.5121400000000 1.0
C      1  0.4501330000000  0.4929010000000  0.4747550000000 1.0
C      1  0.4083540000000  0.5328060000000  0.5569080000000 1.0
C      1  0.5711000000000  0.5445870000000  0.4754960000000 1.0
C      1  0.5359790000000  0.6135260000000  0.5298910000000 1.0
C      1  0.5614700000000  0.4231980000000  0.4995590000000 1.0
C      1  0.5618940000000  0.6040670000000  0.4669120000000 1.0
C      1  0.5140460000000  0.5910740000000  0.5648540000000 1.0
C      1  0.4492170000000  0.5454930000000  0.5781370000000 1.0
C      1  0.4144450000000  0.4450060000000  0.5392270000000 1.0
C      1  0.5729220000000  0.5483970000000  0.5691400000000 1.0
C      1  0.5283750000000  0.4621380000000  0.6215660000000 1.0
C      1  0.4941340000000  0.4060490000000  0.5585090000000 1.0
C      1  0.4716080000000  0.4554530000000  0.5824990000000 1.0
C      1  0.5979700000000  0.4887600000000  0.4174450000000 1.0
C      1  0.4919420000000  0.6222360000000  0.5018510000000 1.0
C      1  0.6043950000000  0.4694950000000  0.5071640000000 1.0
C      1  0.5818300000000  0.5704930000000  0.5514550000000 1.0
C      1  0.4676870000000  0.6094720000000  0.5183520000000 1.0
C      1  0.4139740000000  0.5779530000000  0.5192920000000 1.0
C      1  0.5536290000000  0.5349120000000  0.5301120000000 1.0
C      1  0.4092920000000  0.4946860000000  0.4381340000000 1.0
C      1  0.5025540000000  0.4836840000000  0.4819880000000 1.0
C      1  0.4927860000000  0.6174770000000  0.4490060000000 1.0
C      1  0.3932460000000  0.5116800000000  0.4824600000000 1.0
C      1  0.4568010000000  0.4557870000000  0.5570940000000 1.0
C      1  0.5171630000000  0.5371330000000  0.4879160000000 1.0
C      1  0.5574520000000  0.5813510000000  0.4475000000000 1.0
C      1  0.5587270000000  0.5134620000000  0.5135060000000 1.0
C      1  0.3806200000000  0.4639860000000  0.4656830000000 1.0
C      1  0.5144260000000  0.5533450000000  0.3826140000000 1.0
C      1  0.4298640000000  0.4733510000000  0.6035310000000 1.0
C      1  0.4309970000000  0.5777370000000  0.5427900000000 1.0
C      1  0.5286720000000  0.5300510000000  0.3826790000000 1.0
C      1  0.5557340000000  0.3849610000000  0.4696460000000 1.0
C      1  0.4893820000000  0.5665170000000  0.3899420000000 1.0
C      1  0.4497200000000  0.5958530000000  0.4467640000000 1.0
C      1  0.4191870000000  0.5009730000000  0.6001260000000 1.0
C      1  0.4873530000000  0.4900640000000  0.5073370000000 1.0
C      1  0.4405130000000  0.4990450000000  0.5005120000000 1.0
C      1  0.4816570000000  0.5049170000000  0.3814490000000 1.0
C      1  0.5043450000000  0.4898590000000  0.3738260000000 1.0
C      1  0.5989850000000  0.4830730000000  0.5337120000000 1.0
C      1  0.4935730000000  0.4952590000000  0.4300890000000 1.0
C      1  0.4434450000000  0.4339390000000  0.5425230000000 1.0
C      1  0.4747090000000  0.4857260000000  0.6210820000000 1.0
C      1  0.5006530000000  0.4531860000000  0.4779730000000 1.0
C      1  0.4660260000000  0.5222850000000  0.5367580000000 1.0
C      1  0.4094620000000  0.5742190000000  0.4927950000000 1.0
C      1  0.5289120000000  0.5010820000000  0.3834680000000 1.0
C      1  0.5931930000000  0.5760320000000  0.5061670000000 1.0
C      1  0.5261830000000  0.4516530000000  0.5484100000000 1.0
C      1  0.5054760000000  0.5339490000000  0.5138040000000 1.0
C      1  0.4180020000000  0.4860510000000  0.5573720000000 1.0
C      1  0.5454970000000  0.4992040000000  0.5957540000000 1.0
C      1  0.4674150000000  0.5124930000000  0.4638360000000 1.0
C      1  0.4696490000000  0.5388930000000  0.4525860000000 1.0
C      1  0.4142730000000  0.5615870000000  0.4674980000000 1.0
C      1  0.5454540000000  0.5549740000000  0.5789560000000 1.0
C      1  0.5211070000000  0.4412190000000  0.6044660000000 1.0
C      1  0.4175210000000  0.4038320000000  0.5673830000000 1.0
C      1  0.4939650000000  0.5747650000000  0.4872570000000 1.0
C      1  0.4972380000000  0.4202170000000  0.4191900000000 1.0
C      1  0.5747310000000  0.5269500000000  0.4096440000000 1.0
C      1  0.4536240000000  0.5958790000000  0.4957660000000 1.0
C      1  0.5500120000000  0.4673330000000  0.5380820000000 1.0
C      1  0.4347170000000  0.4761250000000  0.5154120000000 1.0
C      1  0.4121380000000  0.4245990000000  0.5868140000000 1.0
C      1  0.5117670000000  0.5561670000000  0.5309480000000 1.0
C      1  0.5555070000000  0.4051220000000  0.5471740000000 1.0
C      1  0.6106230000000  0.5293010000000  0.4439890000000 1.0
C      1  0.4163770000000  0.4525860000000  0.5108170000000 1.0
C      1  0.5055450000000  0.4716890000000  0.5455970000000 1.0
C      1  0.6079550000000  0.4887830000000  0.4652800000000 1.0
C      1  0.4364000000000  0.4226460000000  0.4463380000000 1.0
C      1  0.5366130000000  0.6164470000000  0.4761460000000 1.0
C      1  0.4561690000000  0.4211820000000  0.5186260000000 1.0
C      1  0.4155890000000  0.4487530000000  0.5988700000000 1.0
C      1  0.5706990000000  0.5558500000000  0.4488660000000 1.0
C      1  0.5780580000000  0.4692890000000  0.4931520000000 1.0
C      1  0.4124020000000  0.5083770000000  0.5729440000000 1.0
C      1  0.6211590000000  0.4443480000000  0.4656580000000 1.0
C      1  0.5395860000000  0.4567860000000  0.4094330000000 1.0
C      1  0.4706270000000  0.3937610000000  0.5641440000000 1.0
C      1  0.4888470000000  0.5095870000000  0.6262500000000 1.0
C      1  0.4665070000000  0.5706030000000  0.4932200000000 1.0
C      1  0.4502490000000  0.4660010000000  0.4625590000000 1.0
C      1  0.5209010000000  0.5661900000000  0.4871230000000 1.0
C      1  0.5254110000000  0.5095000000000  0.5784450000000 1.0
C      1  0.4706330000000  0.4168430000000  0.4107420000000 1.0
C      1  0.4750850000000  0.6007190000000  0.4310930000000 1.0
C      1  0.5619530000000  0.4474780000000  0.4845580000000 1.0
C      1  0.5106590000000  0.3970830000000  0.4293800000000 1.0
C      1  0.4555790000000  0.4684670000000  0.4336310000000 1.0
C      1  0.4776690000000  0.5115530000000  0.4103160000000 1.0
C      1  0.4467940000000  0.5241780000000  0.5145490000000 1.0
C      1  0.4585670000000  0.5360580000000  0.4102760000000 1.0
C      1  0.5696330000000  0.4199890000000  0.5270160000000 1.0
C      1  0.5217700000000  0.5373250000000  0.5794920000000 1.0
C      1  0.4684670000000  0.3637290000000  0.4812490000000 1.0
C      1  0.5356980000000  0.3882820000000  0.5350500000000 1.0
C      1  0.5234910000000  0.6191130000000  0.5028490000000 1.0
C      1  0.5995700000000  0.5625680000000  0.5303010000000 1.0
C      1  0.4746480000000  0.5333840000000  0.6197200000000 1.0
C      1  0.4664750000000  0.5497770000000  0.3852370000000 1.0
C      1  0.5260840000000  0.3920290000000  0.5084820000000 1.0
C      1  0.6004940000000  0.5126010000000  0.5425380000000 1.0
C      1  0.5088380000000  0.4933070000000  0.5628870000000 1.0
C      1  0.5295040000000  0.5854200000000  0.4403530000000 1.0
C      1  0.3975470000000  0.4328780000000  0.5002650000000 1.0
C      1  0.4906800000000  0.4665110000000  0.5225380000000 1.0
C      1  0.4957870000000  0.5018390000000  0.4597600000000 1.0
C      1  0.5702510000000  0.5671520000000  0.4929150000000 1.0
C      1  0.4427730000000  0.4387870000000  0.4687610000000 1.0
C      1  0.5351740000000  0.3919540000000  0.4167700000000 1.0
C      1  0.4519270000000  0.5476000000000  0.4995850000000 1.0
C      1  0.6212670000000  0.4679860000000  0.4821320000000 1.0
C      1  0.5030230000000  0.4674830000000  0.3583650000000 1.0
C      1  0.5259320000000  0.5227170000000  0.6551650000000 1.0
C      1  0.4015310000000  0.4010790000000  0.5431950000000 1.0
C      1  0.4842590000000  0.4185380000000  0.5115100000000 1.0
C      1  0.4957940000000  0.5464690000000  0.5703510000000 1.0
C      1  0.5603310000000  0.4363890000000  0.4128650000000 1.0
C      1  0.4975520000000  0.5464720000000  0.4469740000000 1.0
C      1  0.5444830000000  0.5721100000000  0.5022660000000 1.0
C      1  0.4894900000000  0.5809970000000  0.4149370000000 1.0
C      1  0.5336250000000  0.4896920000000  0.6200130000000 1.0
C      1  0.4793180000000  0.6252420000000  0.4735050000000 1.0
C      1  0.5480740000000  0.4841140000000  0.3980200000000 1.0
C      1  0.5395520000000  0.5588380000000  0.5268740000000 1.0
C      1  0.3818100000000  0.4407360000000  0.4787180000000 1.0
C      1  0.5734450000000  0.4980980000000  0.4054130000000 1.0
C      1  0.4848240000000  0.4676930000000  0.4267520000000 1.0
C      1  0.6112800000000  0.5005400000000  0.4399710000000 1.0
C      1  0.4305650000000  0.4807250000000  0.4244850000000 1.0
C      1  0.4067790000000  0.5232790000000  0.4379200000000 1.0
C      1  0.5720800000000  0.5032520000000  0.5862560000000 1.0
C      1  0.4274930000000  0.5546660000000  0.5614040000000 1.0
C      1  0.4027020000000  0.5350660000000  0.4644570000000 1.0
C      1  0.5181010000000  0.4449610000000  0.4569110000000 1.0
C      1  0.5452360000000  0.4535660000000  0.4617690000000 1.0
C      1  0.4707270000000  0.5345800000000  0.5629540000000 1.0
C      1  0.3950740000000  0.5288740000000  0.5315140000000 1.0
C      1  0.5082790000000  0.4472060000000  0.4271030000000 1.0
C      1  0.3943200000000  0.4102310000000  0.5182710000000 1.0
C      1  0.5157600000000  0.6150550000000  0.5500460000000 1.0
C      1  0.4502490000000  0.5487130000000  0.4347590000000 1.0
C      1  0.4704410000000  0.5273620000000  0.3671210000000 1.0
C      1  0.4438580000000  0.4257720000000  0.4933690000000 1.0
C      1  0.4349400000000  0.5702950000000  0.4469300000000 1.0
C      1  0.3823270000000  0.4829270000000  0.5265140000000 1.0
C      1  0.4531140000000  0.6109030000000  0.4717110000000 1.0
C      1  0.4982960000000  0.4432160000000  0.5862480000000 1.0
C      1  0.5530050000000  0.4096410000000  0.4072920000000 1.0
C      1  0.6208050000000  0.5367080000000  0.4706250000000 1.0
C      1  0.5416440000000  0.4229750000000  0.5957460000000 1.0
C      1  0.5772160000000  0.4684770000000  0.5470480000000 1.0
C      1  0.5345340000000  0.4969270000000  0.4367420000000 1.0
C      1  0.5487930000000  0.4786690000000  0.4488750000000 1.0
C      1  0.5093110000000  0.4301840000000  0.5615300000000 1.0
C      1  0.5163120000000  0.5077960000000  0.6343480000000 1.0
C      1  0.6054320000000  0.4368520000000  0.4446830000000 1.0
C      1  0.4987670000000  0.3959510000000  0.5011400000000 1.0
C      1  0.5451680000000  0.4882880000000  0.5173060000000 1.0
C      1  0.5851420000000  0.4389880000000  0.4269230000000 1.0
C      1  0.5840990000000  0.5212540000000  0.5671240000000 1.0
C      1  0.5010360000000  0.3852450000000  0.4529720000000 1.0
C      1  0.5467710000000  0.4004050000000  0.4902430000000 1.0
C      1  0.4428340000000  0.4786920000000  0.5447290000000 1.0
C      1  0.5005830000000  0.5689040000000  0.5535800000000 1.0
C      1  0.4891190000000  0.3814780000000  0.4783280000000 1.0
C      1  0.6209730000000  0.5328610000000  0.4979770000000 1.0
C      1  0.5409320000000  0.5830110000000  0.5715660000000 1.0
C      1  0.4943600000000  0.4439570000000  0.5047920000000 1.0
C      1  0.5704250000000  0.5179640000000  0.4871170000000 1.0
C      1  0.3941640000000  0.4881700000000  0.4628780000000 1.0
C      1  0.4500050000000  0.5386770000000  0.6063020000000 1.0
C      1  0.4887880000000  0.5138490000000  0.5218020000000 1.0
C      1  0.6098720000000  0.5352210000000  0.5250450000000 1.0
END
