TITL C-612606-7351-1264 0.33731771334623 125000 -788.895072523059 0 0 128 (C1) n - 1
REM
REM in /home/nfs/bkarasulu/CARBON/AIRSS/Generating-Clusters/TERSOFF/Only-C1/FIRE-HFTN
REM
REM
REM
REM
REM
REM ./C.cell (11c1c37f851c82e70ff6c80c92926a4b)
REM AIRSS Version 0.9.1 bugfix July 2018 build 013d7b7c2542+ Fri, 06 Jul 2018 19:26:36 +0100
REM compiler GCC version 9.2.1 20190827 (Red Hat 9.2.1-1)
REM options -cpp -mtune=generic -march=x86-64 -g -O0 -fpre-include=/usr/include/finclude/math-vector-fortran.h
REM seed 265778321 -250920124 -1419179599 -320464816 -130048117 470697471 -1962143763 62858968 1361923565 -1551742058 -2066406228 -203389512 -151044460 1390906404 -494614932 -1439077028 1617843823 1653975661 -722605589 -1165873563 -878987387 -1181332049 857225675 -737100785 -1394784119 1897098593 1835633862 -1680192839 -1553515479 -1880595018 532430016 -867149734 -1917997920
REM
CELL 1.54180   50.00000   50.00000   50.00000   90.00000   90.00000   90.00000
LATT -1
SFAC C  
C      1  0.4827900000000  0.4700560000000  0.5965010000000 1.0
C      1  0.6273540000000  0.5040680000000  0.5317430000000 1.0
C      1  0.5368190000000  0.4510740000000  0.4083270000000 1.0
C      1  0.4863460000000  0.5856410000000  0.4830640000000 1.0
C      1  0.4115400000000  0.4938990000000  0.5551660000000 1.0
C      1  0.4368180000000  0.4539270000000  0.4222030000000 1.0
C      1  0.4175910000000  0.5636380000000  0.4967570000000 1.0
C      1  0.4847880000000  0.5935870000000  0.5117380000000 1.0
C      1  0.3926710000000  0.5076210000000  0.5396770000000 1.0
C      1  0.5213390000000  0.5206660000000  0.5230000000000 1.0
C      1  0.5450760000000  0.4150170000000  0.5147850000000 1.0
C      1  0.4823990000000  0.4036300000000  0.5475370000000 1.0
C      1  0.5248870000000  0.5530290000000  0.4873310000000 1.0
C      1  0.5092830000000  0.5711300000000  0.4705620000000 1.0
C      1  0.5278610000000  0.4664770000000  0.4597300000000 1.0
C      1  0.5994590000000  0.5152420000000  0.4473540000000 1.0
C      1  0.4696700000000  0.5074320000000  0.4003580000000 1.0
C      1  0.5068000000000  0.4444180000000  0.5060100000000 1.0
C      1  0.5004820000000  0.6935360000000  0.5474870000000 1.0
C      1  0.5466500000000  0.5342170000000  0.4815090000000 1.0
C      1  0.5225000000000  0.3944510000000  0.5141520000000 1.0
C      1  0.5115850000000  0.4416840000000  0.4209240000000 1.0
C      1  0.4441110000000  0.5638300000000  0.4881790000000 1.0
C      1  0.5041970000000  0.7180730000000  0.5567990000000 1.0
C      1  0.5026010000000  0.4717890000000  0.5449370000000 1.0
C      1  0.4383970000000  0.4576740000000  0.5728060000000 1.0
C      1  0.6755660000000  0.5413220000000  0.4406290000000 1.0
C      1  0.4778540000000  0.5014290000000  0.4725960000000 1.0
C      1  0.5159330000000  0.4927470000000  0.4147960000000 1.0
C      1  0.4346900000000  0.5169070000000  0.4581630000000 1.0
C      1  0.4669240000000  0.5904800000000  0.5732520000000 1.0
C      1  0.5110630000000  0.5446410000000  0.5109200000000 1.0
C      1  0.5618460000000  0.4452760000000  0.4205020000000 1.0
C      1  0.5078520000000  0.7422070000000  0.5659570000000 1.0
C      1  0.5019110000000  0.5020250000000  0.5133880000000 1.0
C      1  0.5333820000000  0.4780660000000  0.4003080000000 1.0
C      1  0.5194390000000  0.5071490000000  0.6027990000000 1.0
C      1  0.5375140000000  0.5273960000000  0.6104450000000 1.0
C      1  0.3471760000000  0.4197490000000  0.5669270000000 1.0
C      1  0.4909520000000  0.4548470000000  0.5272550000000 1.0
C      1  0.5496520000000  0.5163450000000  0.5267270000000 1.0
C      1  0.4930350000000  0.6444570000000  0.5289220000000 1.0
C      1  0.5156220000000  0.5965610000000  0.4295580000000 1.0
C      1  0.4562890000000  0.5188530000000  0.4777570000000 1.0
C      1  0.3896230000000  0.4507440000000  0.5664170000000 1.0
C      1  0.5922710000000  0.4968870000000  0.4681820000000 1.0
C      1  0.4804760000000  0.4815940000000  0.3922790000000 1.0
C      1  0.5686620000000  0.5294800000000  0.5708260000000 1.0
C      1  0.5026300000000  0.4984680000000  0.4856270000000 1.0
C      1  0.5782780000000  0.4536590000000  0.4401670000000 1.0
C      1  0.5195910000000  0.4399110000000  0.4503490000000 1.0
C      1  0.5495780000000  0.4569330000000  0.5684000000000 1.0
C      1  0.4891680000000  0.6198020000000  0.5200580000000 1.0
C      1  0.4296670000000  0.4822410000000  0.4231060000000 1.0
C      1  0.4829250000000  0.4541860000000  0.4041690000000 1.0
C      1  0.4390620000000  0.4437220000000  0.4489930000000 1.0
C      1  0.3986410000000  0.5493780000000  0.5091510000000 1.0
C      1  0.4728310000000  0.5194310000000  0.5905420000000 1.0
C      1  0.5243540000000  0.4398330000000  0.5746190000000 1.0
C      1  0.4762940000000  0.4262590000000  0.5664700000000 1.0
C      1  0.5289390000000  0.4153930000000  0.5576270000000 1.0
C      1  0.5503920000000  0.5234030000000  0.4347730000000 1.0
C      1  0.4434260000000  0.5062160000000  0.4124860000000 1.0
C      1  0.4567520000000  0.4418810000000  0.4048720000000 1.0
C      1  0.4824710000000  0.5382190000000  0.4143590000000 1.0
C      1  0.6254480000000  0.5244390000000  0.4439820000000 1.0
C      1  0.5504980000000  0.4854580000000  0.5672650000000 1.0
C      1  0.5947500000000  0.4461000000000  0.5496060000000 1.0
C      1  0.5334870000000  0.4353060000000  0.4974140000000 1.0
C      1  0.4842230000000  0.4059000000000  0.4861450000000 1.0
C      1  0.5682370000000  0.4413720000000  0.5525960000000 1.0
C      1  0.4866720000000  0.4343430000000  0.4883600000000 1.0
C      1  0.4662120000000  0.4521780000000  0.4847960000000 1.0
C      1  0.4611410000000  0.4600150000000  0.4589010000000 1.0
C      1  0.5582280000000  0.5363060000000  0.5950600000000 1.0
C      1  0.5611860000000  0.5086410000000  0.5524660000000 1.0
C      1  0.4618390000000  0.4515470000000  0.5301020000000 1.0
C      1  0.5408440000000  0.5156230000000  0.4604710000000 1.0
C      1  0.4531540000000  0.5098400000000  0.5364520000000 1.0
C      1  0.4472170000000  0.4537060000000  0.5062150000000 1.0
C      1  0.4269820000000  0.4278900000000  0.4711780000000 1.0
C      1  0.5195450000000  0.6199120000000  0.4186770000000 1.0
C      1  0.4509880000000  0.4198240000000  0.3897680000000 1.0
C      1  0.5867580000000  0.4705780000000  0.4592770000000 1.0
C      1  0.4746060000000  0.5679380000000  0.5591940000000 1.0
C      1  0.3895730000000  0.5287060000000  0.5234600000000 1.0
C      1  0.4226110000000  0.4446070000000  0.4950260000000 1.0
C      1  0.5780920000000  0.5230280000000  0.4308660000000 1.0
C      1  0.5104410000000  0.5716430000000  0.4415170000000 1.0
C      1  0.5637990000000  0.5217790000000  0.5019990000000 1.0
C      1  0.4540010000000  0.4750470000000  0.5893410000000 1.0
C      1  0.5533090000000  0.4200920000000  0.5414670000000 1.0
C      1  0.4760170000000  0.5027440000000  0.5249470000000 1.0
C      1  0.4604590000000  0.5410510000000  0.4956380000000 1.0
C      1  0.4544050000000  0.4420500000000  0.5557310000000 1.0
C      1  0.6083280000000  0.5050980000000  0.5133380000000 1.0
C      1  0.5102320000000  0.3994020000000  0.5415940000000 1.0
C      1  0.4499570000000  0.5032410000000  0.5833030000000 1.0
C      1  0.5266900000000  0.4959800000000  0.5780400000000 1.0
C      1  0.4967670000000  0.6690040000000  0.5381790000000 1.0
C      1  0.4774600000000  0.5436540000000  0.5751750000000 1.0
C      1  0.4604260000000  0.5797360000000  0.4706870000000 1.0
C      1  0.4373120000000  0.4023260000000  0.4812090000000 1.0
C      1  0.5076110000000  0.5488920000000  0.4233670000000 1.0
C      1  0.6504820000000  0.5329050000000  0.4422130000000 1.0
C      1  0.4956870000000  0.4888400000000  0.4321560000000 1.0
C      1  0.4957710000000  0.4441720000000  0.5828420000000 1.0
C      1  0.5058650000000  0.4926600000000  0.5603750000000 1.0
C      1  0.4602610000000  0.3964230000000  0.4980180000000 1.0
C      1  0.4593120000000  0.5491870000000  0.4278020000000 1.0
C      1  0.4584020000000  0.5728460000000  0.4432060000000 1.0
C      1  0.4784500000000  0.5715200000000  0.5305650000000 1.0
C      1  0.5259130000000  0.4201600000000  0.4717160000000 1.0
C      1  0.4403970000000  0.5285750000000  0.4318660000000 1.0
C      1  0.5254410000000  0.4929510000000  0.4690640000000 1.0
C      1  0.4825910000000  0.5484800000000  0.5137970000000 1.0
C      1  0.7002390000000  0.5495990000000  0.4390740000000 1.0
C      1  0.5116190000000  0.3967000000000  0.4859050000000 1.0
C      1  0.5877660000000  0.5076580000000  0.4945090000000 1.0
C      1  0.4758060000000  0.4830830000000  0.4511230000000 1.0
C      1  0.5321110000000  0.5362370000000  0.4179290000000 1.0
C      1  0.4365170000000  0.5072490000000  0.5586970000000 1.0
C      1  0.3682310000000  0.4351200000000  0.5667250000000 1.0
C      1  0.4915910000000  0.4997670000000  0.6039460000000 1.0
C      1  0.6451520000000  0.5029150000000  0.5507540000000 1.0
C      1  0.4121740000000  0.4668800000000  0.5648570000000 1.0
C      1  0.4206680000000  0.4924290000000  0.4500620000000 1.0
C      1  0.4633030000000  0.3947440000000  0.5269800000000 1.0
END
