TITL C-612605-9286-1292 0.0393897725866315 125000 -373.567363095496 0 0 63 (C1) n - 1
REM
REM in /home/nfs/bkarasulu/CARBON/AIRSS/Generating-Clusters/TERSOFF/Only-C1/FIRE-HFTN
REM
REM
REM
REM
REM
REM ./C.cell (11c1c37f851c82e70ff6c80c92926a4b)
REM AIRSS Version 0.9.1 bugfix July 2018 build 013d7b7c2542+ Fri, 06 Jul 2018 19:26:36 +0100
REM compiler GCC version 9.2.1 20190827 (Red Hat 9.2.1-1)
REM options -cpp -mtune=generic -march=x86-64 -g -O0 -fpre-include=/usr/include/finclude/math-vector-fortran.h
REM seed 30082736 -580615337 1761969049 -1564325060 -1625111300 1723041776 -137953827 1437254277 -668921941 1344358185 1550072868 2095383018 945933338 -1216195184 1263567008 564521266 -1578495422 -1488317745 2140011766 -1909447204 817092199 -935195141 918088086 592970439 384165982 177012624 -393416734 829993591 1081143263 1033600395 -1101145606 1774987218 -1252589791
REM
CELL 1.54180   50.00000   50.00000   50.00000   90.00000   90.00000   90.00000
LATT -1
SFAC C  
C      1  0.5404580000000  0.5214760000000  0.4219710000000 1.0
C      1  0.4910290000000  0.5897510000000  0.4794870000000 1.0
C      1  0.5193000000000  0.4516680000000  0.4405710000000 1.0
C      1  0.5249520000000  0.4733180000000  0.5007130000000 1.0
C      1  0.4967570000000  0.4783210000000  0.4973000000000 1.0
C      1  0.4196760000000  0.4534150000000  0.5060030000000 1.0
C      1  0.5624860000000  0.5667840000000  0.5036240000000 1.0
C      1  0.5337220000000  0.4539190000000  0.5187960000000 1.0
C      1  0.4510580000000  0.4121830000000  0.5112910000000 1.0
C      1  0.5615900000000  0.5057370000000  0.5015160000000 1.0
C      1  0.4802780000000  0.4131310000000  0.5489980000000 1.0
C      1  0.5021550000000  0.5856210000000  0.5048490000000 1.0
C      1  0.5424170000000  0.4893520000000  0.4587210000000 1.0
C      1  0.4915890000000  0.5391640000000  0.5292550000000 1.0
C      1  0.4848380000000  0.4907240000000  0.5203350000000 1.0
C      1  0.4981870000000  0.5123250000000  0.5339250000000 1.0
C      1  0.5524800000000  0.5908830000000  0.5165240000000 1.0
C      1  0.5454270000000  0.5152080000000  0.5452150000000 1.0
C      1  0.5301280000000  0.5118880000000  0.4460800000000 1.0
C      1  0.4931460000000  0.5643520000000  0.5208400000000 1.0
C      1  0.5096880000000  0.4677790000000  0.5868580000000 1.0
C      1  0.5442710000000  0.4631780000000  0.4470460000000 1.0
C      1  0.4234540000000  0.4779200000000  0.4928850000000 1.0
C      1  0.4621610000000  0.4801700000000  0.4585080000000 1.0
C      1  0.5666460000000  0.5902290000000  0.5418400000000 1.0
C      1  0.5627230000000  0.5221400000000  0.5242150000000 1.0
C      1  0.4856880000000  0.5406310000000  0.4654620000000 1.0
C      1  0.5196640000000  0.5066290000000  0.5521590000000 1.0
C      1  0.5493880000000  0.5302550000000  0.3991170000000 1.0
C      1  0.4680920000000  0.5013290000000  0.4091870000000 1.0
C      1  0.5633890000000  0.4441990000000  0.4555170000000 1.0
C      1  0.4850010000000  0.6145640000000  0.4655910000000 1.0
C      1  0.3717170000000  0.5234570000000  0.5626690000000 1.0
C      1  0.4762160000000  0.4055880000000  0.5221070000000 1.0
C      1  0.4305360000000  0.4291490000000  0.5091020000000 1.0
C      1  0.5160820000000  0.4907130000000  0.5748830000000 1.0
C      1  0.5731090000000  0.5481870000000  0.5231710000000 1.0
C      1  0.4657260000000  0.4919690000000  0.4333970000000 1.0
C      1  0.5262010000000  0.5984690000000  0.5117510000000 1.0
C      1  0.5214880000000  0.3970460000000  0.4940000000000 1.0
C      1  0.4956720000000  0.4452050000000  0.5835450000000 1.0
C      1  0.4229740000000  0.5042480000000  0.5038490000000 1.0
C      1  0.4617890000000  0.4570580000000  0.5523840000000 1.0
C      1  0.5798590000000  0.5647910000000  0.5464140000000 1.0
C      1  0.4981490000000  0.4501850000000  0.4570150000000 1.0
C      1  0.5453440000000  0.4395380000000  0.5371690000000 1.0
C      1  0.5953990000000  0.5579280000000  0.5675460000000 1.0
C      1  0.4858910000000  0.5681420000000  0.4596830000000 1.0
C      1  0.4843610000000  0.4692470000000  0.4726750000000 1.0
C      1  0.5439890000000  0.4895890000000  0.4870740000000 1.0
C      1  0.4364020000000  0.4761510000000  0.4681260000000 1.0
C      1  0.4420030000000  0.5225460000000  0.4935350000000 1.0
C      1  0.4978820000000  0.3972170000000  0.5064050000000 1.0
C      1  0.4048490000000  0.5116130000000  0.5236200000000 1.0
C      1  0.5441810000000  0.4047610000000  0.4822560000000 1.0
C      1  0.3881240000000  0.5176480000000  0.5432600000000 1.0
C      1  0.4775940000000  0.6092210000000  0.4393600000000 1.0
C      1  0.4781160000000  0.5817650000000  0.4351950000000 1.0
C      1  0.4775240000000  0.4366830000000  0.5639360000000 1.0
C      1  0.4632730000000  0.5308310000000  0.4795880000000 1.0
C      1  0.4652730000000  0.4768950000000  0.5348830000000 1.0
C      1  0.5607730000000  0.4212440000000  0.4692930000000 1.0
C      1  0.5076660000000  0.5246750000000  0.4577110000000 1.0
END
