TITL C-612602-9376-411 0.609594392150991 125000 -1093.75023753568 0 0 180 (C1) n - 1
REM
REM in /home/nfs/bkarasulu/CARBON/AIRSS/Generating-Clusters/TERSOFF/Only-C1/FIRE-HFTN
REM
REM
REM
REM
REM
REM ./C.cell (11c1c37f851c82e70ff6c80c92926a4b)
REM AIRSS Version 0.9.1 bugfix July 2018 build 013d7b7c2542+ Fri, 06 Jul 2018 19:26:36 +0100
REM compiler GCC version 9.2.1 20190827 (Red Hat 9.2.1-1)
REM options -cpp -mtune=generic -march=x86-64 -g -O0 -fpre-include=/usr/include/finclude/math-vector-fortran.h
REM seed -15627235 -1305749870 -838020368 -1368638973 1668961617 -2125846065 1788522483 -1274502239 -71858449 638245843 -1547477213 868354702 -1918729820 -80708371 -358457816 156225412 -1285623054 1892736797 245437339 -1142078248 427044547 596829492 549985192 -327205162 -378919041 -1390192975 -977223047 65712104 -996960405 -736725058 1741241810 1204783941 -71758808
REM
CELL 1.54180   50.00000   50.00000   50.00000   90.00000   90.00000   90.00000
LATT -1
SFAC C  
C      1  0.5900370000000  0.5171920000000  0.6434750000000 1.0
C      1  0.5944000000000  0.5222780000000  0.6160210000000 1.0
C      1  0.4327620000000  0.4943350000000  0.5242230000000 1.0
C      1  0.4352650000000  0.4183670000000  0.4707090000000 1.0
C      1  0.5836070000000  0.4389520000000  0.5216230000000 1.0
C      1  0.5151780000000  0.5500130000000  0.3752320000000 1.0
C      1  0.4268280000000  0.5615060000000  0.6264630000000 1.0
C      1  0.4737910000000  0.5078730000000  0.6075980000000 1.0
C      1  0.6179940000000  0.4975570000000  0.5402430000000 1.0
C      1  0.4438620000000  0.5772640000000  0.5797440000000 1.0
C      1  0.4014840000000  0.4841330000000  0.4583980000000 1.0
C      1  0.5980710000000  0.4431570000000  0.4977040000000 1.0
C      1  0.5373900000000  0.4389410000000  0.4736460000000 1.0
C      1  0.5430470000000  0.5305140000000  0.6433700000000 1.0
C      1  0.4814130000000  0.4902810000000  0.5861520000000 1.0
C      1  0.4445250000000  0.5305480000000  0.6666580000000 1.0
C      1  0.4994110000000  0.4238540000000  0.5941740000000 1.0
C      1  0.4639680000000  0.6161720000000  0.4610150000000 1.0
C      1  0.4751230000000  0.4675770000000  0.3736130000000 1.0
C      1  0.4779560000000  0.5041990000000  0.4120930000000 1.0
C      1  0.5057540000000  0.4914320000000  0.4058140000000 1.0
C      1  0.4217510000000  0.5020260000000  0.4990920000000 1.0
C      1  0.5198460000000  0.6037250000000  0.4904430000000 1.0
C      1  0.4357920000000  0.5270300000000  0.6922890000000 1.0
C      1  0.6190080000000  0.5199790000000  0.6045290000000 1.0
C      1  0.4585880000000  0.5054400000000  0.5305260000000 1.0
C      1  0.6330420000000  0.6083140000000  0.4538660000000 1.0
C      1  0.5196970000000  0.5846340000000  0.4683500000000 1.0
C      1  0.5336520000000  0.3789350000000  0.5157770000000 1.0
C      1  0.4859620000000  0.3967500000000  0.4788620000000 1.0
C      1  0.5664950000000  0.5210690000000  0.6560990000000 1.0
C      1  0.4463380000000  0.6129930000000  0.4831410000000 1.0
C      1  0.4589770000000  0.5318160000000  0.5408630000000 1.0
C      1  0.5595990000000  0.4967750000000  0.4132630000000 1.0
C      1  0.5956240000000  0.5033930000000  0.4511000000000 1.0
C      1  0.5575470000000  0.5557950000000  0.5621400000000 1.0
C      1  0.4072730000000  0.4233090000000  0.4717930000000 1.0
C      1  0.3470970000000  0.5456440000000  0.4806200000000 1.0
C      1  0.4980310000000  0.4193810000000  0.4925940000000 1.0
C      1  0.5115150000000  0.4153750000000  0.4081560000000 1.0
C      1  0.5482460000000  0.5385590000000  0.4643820000000 1.0
C      1  0.4643400000000  0.3917260000000  0.4320610000000 1.0
C      1  0.4796540000000  0.4434250000000  0.5994230000000 1.0
C      1  0.4751910000000  0.4630980000000  0.5785830000000 1.0
C      1  0.4826030000000  0.4459440000000  0.5001680000000 1.0
C      1  0.4539930000000  0.5095300000000  0.3678270000000 1.0
C      1  0.3247220000000  0.5331820000000  0.4854860000000 1.0
C      1  0.5175620000000  0.5886330000000  0.5675560000000 1.0
C      1  0.5303810000000  0.4249600000000  0.5570620000000 1.0
C      1  0.4646810000000  0.3855700000000  0.4614600000000 1.0
C      1  0.3975470000000  0.4406860000000  0.4255460000000 1.0
C      1  0.5361800000000  0.5040830000000  0.5248440000000 1.0
C      1  0.6689270000000  0.5497660000000  0.4317940000000 1.0
C      1  0.6255230000000  0.5083100000000  0.5165520000000 1.0
C      1  0.5518370000000  0.4450870000000  0.4495170000000 1.0
C      1  0.5449730000000  0.4035350000000  0.5067370000000 1.0
C      1  0.5297150000000  0.5567080000000  0.6025060000000 1.0
C      1  0.5626790000000  0.4681760000000  0.4093710000000 1.0
C      1  0.5701690000000  0.5313960000000  0.5729230000000 1.0
C      1  0.5175800000000  0.4923330000000  0.4523070000000 1.0
C      1  0.4608250000000  0.3748150000000  0.5230480000000 1.0
C      1  0.5070680000000  0.5181620000000  0.4509310000000 1.0
C      1  0.4935450000000  0.5784430000000  0.5837290000000 1.0
C      1  0.4181140000000  0.4830860000000  0.4352120000000 1.0
C      1  0.5236520000000  0.5547520000000  0.5260440000000 1.0
C      1  0.4569270000000  0.5722100000000  0.5016240000000 1.0
C      1  0.3929510000000  0.4265440000000  0.4478580000000 1.0
C      1  0.4631510000000  0.4967580000000  0.4365910000000 1.0
C      1  0.3948280000000  0.5664700000000  0.4712460000000 1.0
C      1  0.5639250000000  0.5389850000000  0.4404860000000 1.0
C      1  0.3766290000000  0.4832080000000  0.5005410000000 1.0
C      1  0.5277730000000  0.3645010000000  0.4466500000000 1.0
C      1  0.5711020000000  0.5306410000000  0.6016940000000 1.0
C      1  0.4853960000000  0.3810270000000  0.5358190000000 1.0
C      1  0.4193460000000  0.4787370000000  0.5421830000000 1.0
C      1  0.5821970000000  0.5237420000000  0.5085100000000 1.0
C      1  0.4463150000000  0.4110780000000  0.4181540000000 1.0
C      1  0.5648250000000  0.4165920000000  0.5245610000000 1.0
C      1  0.5145060000000  0.5273070000000  0.3606700000000 1.0
C      1  0.5304260000000  0.5585210000000  0.4759050000000 1.0
C      1  0.3671130000000  0.4610420000000  0.5121720000000 1.0
C      1  0.5020040000000  0.5022350000000  0.5715960000000 1.0
C      1  0.5385350000000  0.4240220000000  0.4045050000000 1.0
C      1  0.5402220000000  0.4862160000000  0.4705240000000 1.0
C      1  0.4674840000000  0.4572380000000  0.4769370000000 1.0
C      1  0.5028640000000  0.5398620000000  0.4365140000000 1.0
C      1  0.5272300000000  0.4182610000000  0.4896820000000 1.0
C      1  0.4590850000000  0.4341970000000  0.4611500000000 1.0
C      1  0.5720250000000  0.5057290000000  0.5586600000000 1.0
C      1  0.4860210000000  0.4036030000000  0.5530850000000 1.0
C      1  0.5005830000000  0.4810090000000  0.3778100000000 1.0
C      1  0.4417280000000  0.3909420000000  0.4777220000000 1.0
C      1  0.5183430000000  0.5291910000000  0.6563890000000 1.0
C      1  0.4574850000000  0.4843020000000  0.3588090000000 1.0
C      1  0.5102070000000  0.3711260000000  0.5265400000000 1.0
C      1  0.4590580000000  0.5313960000000  0.4770550000000 1.0
C      1  0.5097770000000  0.4759350000000  0.4309400000000 1.0
C      1  0.5501580000000  0.5584330000000  0.5350910000000 1.0
C      1  0.5007370000000  0.5572420000000  0.6021280000000 1.0
C      1  0.5328340000000  0.4634520000000  0.4901880000000 1.0
C      1  0.4679990000000  0.4813220000000  0.4609990000000 1.0
C      1  0.5699600000000  0.5625470000000  0.4269500000000 1.0
C      1  0.4427850000000  0.3798850000000  0.5036490000000 1.0
C      1  0.4378090000000  0.5854340000000  0.4857130000000 1.0
C      1  0.4430030000000  0.4397630000000  0.4102100000000 1.0
C      1  0.5131570000000  0.5649080000000  0.3976450000000 1.0
C      1  0.4489370000000  0.4385640000000  0.6433440000000 1.0
C      1  0.4550410000000  0.5791380000000  0.4311020000000 1.0
C      1  0.5071710000000  0.5651360000000  0.4252810000000 1.0
C      1  0.5108740000000  0.5251460000000  0.5618540000000 1.0
C      1  0.4659160000000  0.4235030000000  0.5507570000000 1.0
C      1  0.5104290000000  0.5004890000000  0.3589840000000 1.0
C      1  0.6468850000000  0.5566260000000  0.4464580000000 1.0
C      1  0.4495700000000  0.6261320000000  0.5081560000000 1.0
C      1  0.4620680000000  0.4498050000000  0.3914270000000 1.0
C      1  0.5364780000000  0.4726130000000  0.5614710000000 1.0
C      1  0.4566020000000  0.5686290000000  0.4044140000000 1.0
C      1  0.5396310000000  0.5713590000000  0.5788960000000 1.0
C      1  0.6034490000000  0.4595810000000  0.4771690000000 1.0
C      1  0.4752360000000  0.6041360000000  0.5489170000000 1.0
C      1  0.5933730000000  0.4873640000000  0.5499780000000 1.0
C      1  0.4924410000000  0.4045570000000  0.4295590000000 1.0
C      1  0.4366890000000  0.5211930000000  0.4855050000000 1.0
C      1  0.5103760000000  0.3831600000000  0.4413310000000 1.0
C      1  0.5754280000000  0.5136880000000  0.4321110000000 1.0
C      1  0.4837880000000  0.4301970000000  0.4435600000000 1.0
C      1  0.5334410000000  0.5056500000000  0.4046380000000 1.0
C      1  0.5074120000000  0.5035100000000  0.5162840000000 1.0
C      1  0.6076910000000  0.5188010000000  0.4972830000000 1.0
C      1  0.4986290000000  0.4517840000000  0.4355510000000 1.0
C      1  0.5530350000000  0.4124830000000  0.3842060000000 1.0
C      1  0.5466220000000  0.4960080000000  0.5500520000000 1.0
C      1  0.4316750000000  0.5482880000000  0.6490340000000 1.0
C      1  0.6400970000000  0.5835100000000  0.4500950000000 1.0
C      1  0.4625070000000  0.5198930000000  0.3926460000000 1.0
C      1  0.5078330000000  0.4130310000000  0.5693660000000 1.0
C      1  0.5897180000000  0.4771870000000  0.4601960000000 1.0
C      1  0.5484680000000  0.5133370000000  0.4792830000000 1.0
C      1  0.5021460000000  0.5859770000000  0.4447000000000 1.0
C      1  0.4829170000000  0.4902880000000  0.5244270000000 1.0
C      1  0.5046080000000  0.5960780000000  0.5136850000000 1.0
C      1  0.4587650000000  0.6207250000000  0.5330280000000 1.0
C      1  0.4745980000000  0.5956730000000  0.4443480000000 1.0
C      1  0.3929500000000  0.4224540000000  0.4958450000000 1.0
C      1  0.5335770000000  0.6272910000000  0.4890170000000 1.0
C      1  0.5472010000000  0.5392710000000  0.6162610000000 1.0
C      1  0.4219760000000  0.5709250000000  0.4670510000000 1.0
C      1  0.3703780000000  0.5573640000000  0.4758080000000 1.0
C      1  0.4353380000000  0.5606650000000  0.4440570000000 1.0
C      1  0.4799570000000  0.4617250000000  0.5254190000000 1.0
C      1  0.5288500000000  0.4510340000000  0.5454130000000 1.0
C      1  0.5038120000000  0.5467150000000  0.5454800000000 1.0
C      1  0.4669240000000  0.5162440000000  0.6565800000000 1.0
C      1  0.4636900000000  0.5011070000000  0.6328550000000 1.0
C      1  0.4208380000000  0.4566860000000  0.4211280000000 1.0
C      1  0.4357470000000  0.5056870000000  0.4338580000000 1.0
C      1  0.5176050000000  0.5482290000000  0.4992940000000 1.0
C      1  0.5049890000000  0.6012300000000  0.5428860000000 1.0
C      1  0.5560130000000  0.5143340000000  0.5062570000000 1.0
C      1  0.4933590000000  0.5230540000000  0.6634060000000 1.0
C      1  0.4639340000000  0.4423390000000  0.6223640000000 1.0
C      1  0.5869120000000  0.4602310000000  0.5412620000000 1.0
C      1  0.6116470000000  0.5197050000000  0.4687340000000 1.0
C      1  0.5551030000000  0.4126820000000  0.5513830000000 1.0
C      1  0.4756850000000  0.5532780000000  0.5481010000000 1.0
C      1  0.4715630000000  0.4514420000000  0.5513330000000 1.0
C      1  0.5026180000000  0.5245610000000  0.4978000000000 1.0
C      1  0.4338850000000  0.5345500000000  0.4286430000000 1.0
C      1  0.4821700000000  0.5795440000000  0.5066930000000 1.0
C      1  0.4691690000000  0.5782950000000  0.5650240000000 1.0
C      1  0.6308440000000  0.5368540000000  0.4579670000000 1.0
C      1  0.3993190000000  0.4905930000000  0.4858440000000 1.0
C      1  0.4304580000000  0.5712290000000  0.6019580000000 1.0
C      1  0.4840490000000  0.5348890000000  0.6063330000000 1.0
C      1  0.5626290000000  0.4712370000000  0.4567620000000 1.0
C      1  0.3752850000000  0.4355420000000  0.5110160000000 1.0
C      1  0.4482590000000  0.5414980000000  0.4035970000000 1.0
C      1  0.5764610000000  0.5849350000000  0.4153080000000 1.0
C      1  0.5288640000000  0.4574980000000  0.5176070000000 1.0
C      1  0.5514960000000  0.4437290000000  0.4208710000000 1.0
END
