TITL C-612604-1799-741 0.00183337140978477 125000 -966.023178725463 0 0 158 (C1) n - 1
REM
REM in /home/nfs/bkarasulu/CARBON/AIRSS/Generating-Clusters/TERSOFF/Only-C1/FIRE-HFTN
REM
REM
REM
REM
REM
REM ./C.cell (11c1c37f851c82e70ff6c80c92926a4b)
REM AIRSS Version 0.9.1 bugfix July 2018 build 013d7b7c2542+ Fri, 06 Jul 2018 19:26:36 +0100
REM compiler GCC version 9.2.1 20190827 (Red Hat 9.2.1-1)
REM options -cpp -mtune=generic -march=x86-64 -g -O0 -fpre-include=/usr/include/finclude/math-vector-fortran.h
REM seed 13200241 -268573711 151667882 80897378 -1281082757 834947634 -555618412 -2021186667 608852688 1880808259 319388650 -1058765725 -1057870528 -2042736796 -1676881286 433728490 829444550 736429057 -69089148 -1970805443 -310433897 -1665482735 -351249911 -297893963 545624488 -23239197 938193870 -347217095 1134160820 -893349679 -308512492 -1362043126 -1804912525
REM
CELL 1.54180   50.00000   50.00000   50.00000   90.00000   90.00000   90.00000
LATT -1
SFAC C  
C      1  0.4087910000000  0.4265350000000  0.5558340000000 1.0
C      1  0.4470860000000  0.4398940000000  0.6358180000000 1.0
C      1  0.5405860000000  0.5078390000000  0.6477510000000 1.0
C      1  0.5298860000000  0.6178570000000  0.4480080000000 1.0
C      1  0.6009950000000  0.4795370000000  0.4769650000000 1.0
C      1  0.5602820000000  0.4560390000000  0.4126480000000 1.0
C      1  0.4955630000000  0.5305330000000  0.4038840000000 1.0
C      1  0.4451890000000  0.4687150000000  0.4522030000000 1.0
C      1  0.4300260000000  0.4335640000000  0.5392610000000 1.0
C      1  0.4304090000000  0.4581400000000  0.5254170000000 1.0
C      1  0.4693740000000  0.5878650000000  0.5721970000000 1.0
C      1  0.5442760000000  0.5329040000000  0.5087590000000 1.0
C      1  0.5939030000000  0.4746490000000  0.4491410000000 1.0
C      1  0.4776770000000  0.4130790000000  0.5247820000000 1.0
C      1  0.4070170000000  0.5686590000000  0.4600150000000 1.0
C      1  0.5754350000000  0.5054940000000  0.4136610000000 1.0
C      1  0.5169980000000  0.5002680000000  0.3711120000000 1.0
C      1  0.4046990000000  0.4543310000000  0.4358610000000 1.0
C      1  0.5554020000000  0.4529800000000  0.4726200000000 1.0
C      1  0.4490930000000  0.5826170000000  0.5185010000000 1.0
C      1  0.4558700000000  0.5820690000000  0.4568700000000 1.0
C      1  0.4689730000000  0.6036610000000  0.5243420000000 1.0
C      1  0.4423940000000  0.4942520000000  0.4651390000000 1.0
C      1  0.4997260000000  0.4792340000000  0.4318080000000 1.0
C      1  0.5804710000000  0.4540120000000  0.5463480000000 1.0
C      1  0.4299290000000  0.4876170000000  0.4896220000000 1.0
C      1  0.5299410000000  0.4154610000000  0.4302210000000 1.0
C      1  0.4373800000000  0.5401010000000  0.4797510000000 1.0
C      1  0.5260580000000  0.5326530000000  0.5611880000000 1.0
C      1  0.4867960000000  0.4433110000000  0.4821770000000 1.0
C      1  0.5421770000000  0.4627970000000  0.3905850000000 1.0
C      1  0.4864270000000  0.4726200000000  0.4078440000000 1.0
C      1  0.5769200000000  0.5561520000000  0.4354130000000 1.0
C      1  0.6046630000000  0.4611660000000  0.4990930000000 1.0
C      1  0.5427550000000  0.5935320000000  0.4571200000000 1.0
C      1  0.5511440000000  0.5880740000000  0.5290550000000 1.0
C      1  0.5219620000000  0.4656870000000  0.4412700000000 1.0
C      1  0.4999970000000  0.4676010000000  0.4866980000000 1.0
C      1  0.5106590000000  0.6033590000000  0.5519960000000 1.0
C      1  0.5414120000000  0.5998650000000  0.5052840000000 1.0
C      1  0.4821900000000  0.4225080000000  0.4986250000000 1.0
C      1  0.4905360000000  0.5527710000000  0.6041940000000 1.0
C      1  0.4003420000000  0.5187180000000  0.5322520000000 1.0
C      1  0.4990580000000  0.5869830000000  0.4810160000000 1.0
C      1  0.5645040000000  0.4049480000000  0.4915050000000 1.0
C      1  0.5410530000000  0.5191120000000  0.6210420000000 1.0
C      1  0.4808300000000  0.4785190000000  0.5580760000000 1.0
C      1  0.5047220000000  0.4034270000000  0.4367090000000 1.0
C      1  0.4661370000000  0.4889910000000  0.5359460000000 1.0
C      1  0.5253030000000  0.4027310000000  0.5502770000000 1.0
C      1  0.4560240000000  0.5277010000000  0.4342880000000 1.0
C      1  0.4310980000000  0.4598940000000  0.4973170000000 1.0
C      1  0.5557590000000  0.4454680000000  0.5346660000000 1.0
C      1  0.4290680000000  0.5828380000000  0.4522190000000 1.0
C      1  0.5788660000000  0.5154250000000  0.5921180000000 1.0
C      1  0.5170730000000  0.5039970000000  0.6077790000000 1.0
C      1  0.5509380000000  0.5426850000000  0.4838780000000 1.0
C      1  0.5437470000000  0.3884200000000  0.5347240000000 1.0
C      1  0.5605730000000  0.5089030000000  0.3891800000000 1.0
C      1  0.4717250000000  0.4303380000000  0.4093520000000 1.0
C      1  0.4841330000000  0.5238070000000  0.4307240000000 1.0
C      1  0.5639110000000  0.5780880000000  0.4453730000000 1.0
C      1  0.4850270000000  0.4683750000000  0.5827920000000 1.0
C      1  0.5435530000000  0.5748870000000  0.5750790000000 1.0
C      1  0.4375990000000  0.4831830000000  0.5376090000000 1.0
C      1  0.3906460000000  0.5126260000000  0.5064050000000 1.0
C      1  0.3894960000000  0.4209150000000  0.5724270000000 1.0
C      1  0.4989390000000  0.4045300000000  0.5408550000000 1.0
C      1  0.6089850000000  0.5032440000000  0.5575040000000 1.0
C      1  0.5213530000000  0.4880060000000  0.6508350000000 1.0
C      1  0.4787830000000  0.5423400000000  0.5441830000000 1.0
C      1  0.4939000000000  0.5019750000000  0.4478610000000 1.0
C      1  0.4828080000000  0.3677490000000  0.4625670000000 1.0
C      1  0.4735900000000  0.5085740000000  0.5155940000000 1.0
C      1  0.5348100000000  0.4410100000000  0.5888230000000 1.0
C      1  0.3937670000000  0.5449590000000  0.5407600000000 1.0
C      1  0.4476930000000  0.5710440000000  0.5641180000000 1.0
C      1  0.4403500000000  0.5204530000000  0.4117390000000 1.0
C      1  0.4742200000000  0.5723360000000  0.4775450000000 1.0
C      1  0.4462340000000  0.4435550000000  0.4096220000000 1.0
C      1  0.4245370000000  0.4301650000000  0.6445650000000 1.0
C      1  0.3927450000000  0.5205990000000  0.4790250000000 1.0
C      1  0.4696490000000  0.4495810000000  0.6258970000000 1.0
C      1  0.4772550000000  0.4133670000000  0.4316530000000 1.0
C      1  0.4835210000000  0.5769480000000  0.5943980000000 1.0
C      1  0.4090370000000  0.5444400000000  0.4748110000000 1.0
C      1  0.5636590000000  0.5149660000000  0.5182310000000 1.0
C      1  0.5763980000000  0.5775010000000  0.5297740000000 1.0
C      1  0.6006570000000  0.4562260000000  0.5257890000000 1.0
C      1  0.4926450000000  0.4464660000000  0.3979270000000 1.0
C      1  0.5172690000000  0.4647950000000  0.5088090000000 1.0
C      1  0.5159500000000  0.4393530000000  0.6103370000000 1.0
C      1  0.5289020000000  0.5868590000000  0.4826050000000 1.0
C      1  0.4330400000000  0.4227710000000  0.4590380000000 1.0
C      1  0.4773930000000  0.6218880000000  0.5040530000000 1.0
C      1  0.5079720000000  0.6290000000000  0.4606110000000 1.0
C      1  0.4223960000000  0.5060190000000  0.5461730000000 1.0
C      1  0.4564740000000  0.5437660000000  0.5629080000000 1.0
C      1  0.5414160000000  0.4894620000000  0.3808330000000 1.0
C      1  0.5782080000000  0.4777580000000  0.4244910000000 1.0
C      1  0.4478510000000  0.5016990000000  0.3935570000000 1.0
C      1  0.5300130000000  0.5050020000000  0.5619930000000 1.0
C      1  0.4973150000000  0.5267110000000  0.6040080000000 1.0
C      1  0.5424130000000  0.4735640000000  0.4588520000000 1.0
C      1  0.5482430000000  0.4660410000000  0.5837120000000 1.0
C      1  0.4319830000000  0.5778150000000  0.5410930000000 1.0
C      1  0.4055160000000  0.5690430000000  0.5402660000000 1.0
C      1  0.4565590000000  0.5575750000000  0.4989770000000 1.0
C      1  0.6093160000000  0.5154040000000  0.5336100000000 1.0
C      1  0.4546760000000  0.4056140000000  0.4498130000000 1.0
C      1  0.5048120000000  0.3787390000000  0.4510800000000 1.0
C      1  0.5514230000000  0.6531070000000  0.5046930000000 1.0
C      1  0.5567500000000  0.5312750000000  0.6001510000000 1.0
C      1  0.4372260000000  0.5230150000000  0.5641620000000 1.0
C      1  0.5135410000000  0.5521950000000  0.4006950000000 1.0
C      1  0.4068670000000  0.4268720000000  0.4463670000000 1.0
C      1  0.5343840000000  0.4191830000000  0.5711320000000 1.0
C      1  0.5915110000000  0.5162400000000  0.5118770000000 1.0
C      1  0.5198910000000  0.5623380000000  0.4258020000000 1.0
C      1  0.5063520000000  0.4829490000000  0.6266630000000 1.0
C      1  0.5751500000000  0.4696400000000  0.5710320000000 1.0
C      1  0.4933300000000  0.4599210000000  0.6114380000000 1.0
C      1  0.5996450000000  0.5063950000000  0.4865680000000 1.0
C      1  0.4740400000000  0.4914980000000  0.3906910000000 1.0
C      1  0.5458830000000  0.6276750000000  0.5033340000000 1.0
C      1  0.4938940000000  0.5105520000000  0.3836040000000 1.0
C      1  0.5182660000000  0.4203040000000  0.6298830000000 1.0
C      1  0.4657630000000  0.5361710000000  0.5189190000000 1.0
C      1  0.5312010000000  0.4894220000000  0.5848860000000 1.0
C      1  0.5815420000000  0.5304950000000  0.4271050000000 1.0
C      1  0.5517540000000  0.4309510000000  0.4245440000000 1.0
C      1  0.5263100000000  0.5451590000000  0.4452070000000 1.0
C      1  0.4929970000000  0.6160290000000  0.4812020000000 1.0
C      1  0.5164020000000  0.5297880000000  0.5145820000000 1.0
C      1  0.5631080000000  0.4283310000000  0.4789840000000 1.0
C      1  0.4974390000000  0.4954020000000  0.4767260000000 1.0
C      1  0.4402440000000  0.4470960000000  0.4727400000000 1.0
C      1  0.3872850000000  0.5004520000000  0.4590570000000 1.0
C      1  0.5344120000000  0.5515330000000  0.3817160000000 1.0
C      1  0.5357140000000  0.5905990000000  0.5529080000000 1.0
C      1  0.5405530000000  0.4657960000000  0.5230590000000 1.0
C      1  0.3873120000000  0.4080030000000  0.4445870000000 1.0
C      1  0.4323490000000  0.4605690000000  0.4275150000000 1.0
C      1  0.4586070000000  0.3800480000000  0.4618320000000 1.0
C      1  0.4521800000000  0.4167520000000  0.5357850000000 1.0
C      1  0.5532640000000  0.4903560000000  0.5247580000000 1.0
C      1  0.5426480000000  0.5472520000000  0.5798550000000 1.0
C      1  0.5073330000000  0.5396020000000  0.5410900000000 1.0
C      1  0.5892280000000  0.4947240000000  0.5757420000000 1.0
C      1  0.4472140000000  0.5213860000000  0.4603380000000 1.0
C      1  0.5556720000000  0.5350500000000  0.3791930000000 1.0
C      1  0.5578640000000  0.3895320000000  0.5121540000000 1.0
C      1  0.5466870000000  0.5014280000000  0.4603030000000 1.0
C      1  0.5188510000000  0.4458170000000  0.3868780000000 1.0
C      1  0.4979200000000  0.5118630000000  0.5002290000000 1.0
C      1  0.3897770000000  0.4766920000000  0.4458960000000 1.0
C      1  0.4825820000000  0.6014640000000  0.5502080000000 1.0
C      1  0.5421270000000  0.5291930000000  0.4611770000000 1.0
END
