TITL C-612606-7351-1003 900899.880618687 125000 -1023.81010560419 0 0 170 (C1) n - 1
REM
REM in /home/nfs/bkarasulu/CARBON/AIRSS/Generating-Clusters/TERSOFF/Only-C1/FIRE-HFTN
REM
REM
REM
REM
REM
REM ./C.cell (11c1c37f851c82e70ff6c80c92926a4b)
REM AIRSS Version 0.9.1 bugfix July 2018 build 013d7b7c2542+ Fri, 06 Jul 2018 19:26:36 +0100
REM compiler GCC version 9.2.1 20190827 (Red Hat 9.2.1-1)
REM options -cpp -mtune=generic -march=x86-64 -g -O0 -fpre-include=/usr/include/finclude/math-vector-fortran.h
REM seed -1298868743 -1860275825 1604973056 145787026 -1382475301 1319927842 -649477961 -152039700 1036552908 816243336 -1553676551 646343624 1320081691 626195531 346460880 1381263908 -1492624646 1733453508 -1939709166 -249473232 825349689 -1558433753 -1830514016 596712561 -418918656 2063975921 1143528656 -1233101662 1050048855 -1703683031 1323539307 1399533759 687383643
REM
CELL 1.54180   50.00000   50.00000   50.00000   90.00000   90.00000   90.00000
LATT -1
SFAC C  
C      1  0.4584400000000  0.4376280000000  0.4386640000000 1.0
C      1  0.4994440000000  0.5881420000000  0.4091960000000 1.0
C      1  0.6085590000000  0.5424050000000  0.4704850000000 1.0
C      1  0.4637030000000  0.5055790000000  0.4224870000000 1.0
C      1  0.4126790000000  0.5490520000000  0.5037090000000 1.0
C      1  0.5246750000000  0.3495180000000  0.5128660000000 1.0
C      1  0.5643400000000  0.4050510000000  0.5477500000000 1.0
C      1  0.5707210000000  0.4182310000000  0.5728000000000 1.0
C      1  0.5227820000000  0.6725790000000  0.5193630000000 1.0
C      1  0.5659630000000  0.5457400000000  0.4179960000000 1.0
C      1  0.4843570000000  0.3757850000000  0.4619580000000 1.0
C      1  0.4714010000000  0.4517020000000  0.5096980000000 1.0
C      1  0.4441100000000  0.4712180000000  0.5522910000000 1.0
C      1  0.4076750000000  0.5564540000000  0.4325900000000 1.0
C      1  0.4199360000000  0.5016400000000  0.5900070000000 1.0
C      1  0.5075460000000  0.5465450000000  0.4221180000000 1.0
C      1  0.5803550000000  0.4232370000000  0.4774200000000 1.0
C      1  0.4915550000000  0.5118370000000  0.4704320000000 1.0
C      1  0.3951480000000  0.4836190000000  0.4906610000000 1.0
C      1  0.4928030000000  0.4112580000000  0.4216520000000 1.0
C      1  0.5902380000000  0.5386230000000  0.5328920000000 1.0
C      1  0.3851550000000  0.5571190000000  0.4468980000000 1.0
C      1  0.5030420000000  0.4378370000000  0.4199820000000 1.0
C      1  0.4622810000000  0.5458160000000  0.5210270000000 1.0
C      1  0.5356270000000  0.5552100000000  0.5678100000000 1.0
C      1  0.4351200000000  0.4912470000000  0.3922340000000 1.0
C      1  0.5252530000000  0.5956760000000  0.5432770000000 1.0
C      1  0.4293200000000  0.5513140000000  0.5740990000000 1.0
C      1  0.5793450000000  0.4670400000000  0.5985400000000 1.0
C      1  0.4797790000000  0.4636170000000  0.6188250000000 1.0
C      1  0.5136910000000  0.4683280000000  0.5263370000000 1.0
C      1  0.4277210000000  0.5839460000000  0.4765250000000 1.0
C      1  0.6156150000000  0.4669510000000  0.5025190000000 1.0
C      1  0.5238830000000  0.5801380000000  0.4690130000000 1.0
C      1  0.5091480000000  0.5665210000000  0.5794090000000 1.0
C      1  0.4485580000000  0.4237480000000  0.5393120000000 1.0
C      1  0.3846470000000  0.5094030000000  0.4957430000000 1.0
C      1  0.5302030000000  0.5085630000000  0.4381930000000 1.0
C      1  0.3895570000000  0.5367450000000  0.4928480000000 1.0
C      1  0.4991530000000  0.3503810000000  0.4659270000000 1.0
C      1  0.4961420000000  0.4519850000000  0.5731130000000 1.0
C      1  0.4149110000000  0.4525930000000  0.4542740000000 1.0
C      1  0.5193880000000  0.5033600000000  0.3913780000000 1.0
C      1  0.4378670000000  0.5535530000000  0.4322470000000 1.0
C      1  0.5461230000000  0.4337460000000  0.5089320000000 1.0
C      1  0.5683190000000  0.5213520000000  0.5260940000000 1.0
C      1  0.5741160000000  0.4699940000000  0.5417820000000 1.0
C      1  0.5240560000000  0.5419590000000  0.6508010000000 1.0
C      1  0.5981370000000  0.4722180000000  0.4811400000000 1.0
C      1  0.5482740000000  0.5347020000000  0.5085600000000 1.0
C      1  0.4811410000000  0.4891750000000  0.6262710000000 1.0
C      1  0.4892960000000  0.3856900000000  0.4336160000000 1.0
C      1  0.5518480000000  0.5699850000000  0.4251930000000 1.0
C      1  0.5211540000000  0.4391900000000  0.5203520000000 1.0
C      1  0.4701630000000  0.5712710000000  0.3987300000000 1.0
C      1  0.5792870000000  0.4940770000000  0.5854970000000 1.0
C      1  0.6187030000000  0.4955560000000  0.5471600000000 1.0
C      1  0.4717090000000  0.4979080000000  0.5257200000000 1.0
C      1  0.4434320000000  0.4947600000000  0.5157570000000 1.0
C      1  0.4813240000000  0.5881650000000  0.4830660000000 1.0
C      1  0.4187220000000  0.4744330000000  0.5929880000000 1.0
C      1  0.6240740000000  0.4871200000000  0.5215950000000 1.0
C      1  0.4528230000000  0.3922350000000  0.5000810000000 1.0
C      1  0.4270340000000  0.5187760000000  0.3983510000000 1.0
C      1  0.3999710000000  0.4978760000000  0.4413020000000 1.0
C      1  0.4144630000000  0.4305010000000  0.4729430000000 1.0
C      1  0.5989550000000  0.5628000000000  0.4871930000000 1.0
C      1  0.4243660000000  0.4485510000000  0.5845120000000 1.0
C      1  0.4154380000000  0.5671850000000  0.5538640000000 1.0
C      1  0.4145330000000  0.4237200000000  0.5009160000000 1.0
C      1  0.4563130000000  0.5591550000000  0.5813660000000 1.0
C      1  0.5669440000000  0.4182000000000  0.5223870000000 1.0
C      1  0.5590480000000  0.5020230000000  0.4405570000000 1.0
C      1  0.5593540000000  0.4963980000000  0.4699740000000 1.0
C      1  0.4885730000000  0.4764280000000  0.5127200000000 1.0
C      1  0.4886950000000  0.5828730000000  0.5100970000000 1.0
C      1  0.6075080000000  0.4425850000000  0.5159500000000 1.0
C      1  0.4355250000000  0.4099010000000  0.5154700000000 1.0
C      1  0.5825370000000  0.5837680000000  0.4738880000000 1.0
C      1  0.5300340000000  0.4420250000000  0.4322220000000 1.0
C      1  0.4730150000000  0.5752840000000  0.4583660000000 1.0
C      1  0.4392960000000  0.5387390000000  0.5043640000000 1.0
C      1  0.5229560000000  0.5703250000000  0.4147600000000 1.0
C      1  0.5630820000000  0.4925700000000  0.5275450000000 1.0
C      1  0.5769790000000  0.5246990000000  0.4332870000000 1.0
C      1  0.5132500000000  0.5770600000000  0.5225870000000 1.0
C      1  0.4979640000000  0.4089300000000  0.4923120000000 1.0
C      1  0.4486400000000  0.5924510000000  0.5338060000000 1.0
C      1  0.4037870000000  0.4693550000000  0.5150550000000 1.0
C      1  0.4962530000000  0.4657170000000  0.4118350000000 1.0
C      1  0.4447260000000  0.5223890000000  0.4824390000000 1.0
C      1  0.5011410000000  0.6067060000000  0.4309300000000 1.0
C      1  0.5282970000000  0.6484290000000  0.5273940000000 1.0
C      1  0.4999970000000  0.4199010000000  0.5186910000000 1.0
C      1  0.5297820000000  0.4369260000000  0.4606760000000 1.0
C      1  0.5022680000000  0.5326510000000  0.4894120000000 1.0
C      1  0.4903360000000  0.5146130000000  0.6190490000000 1.0
C      1  0.5101830000000  0.5538030000000  0.4704590000000 1.0
C      1  0.5058980000000  0.5293690000000  0.6369660000000 1.0
C      1  0.4858420000000  0.4487510000000  0.5974980000000 1.0
C      1  0.5967820000000  0.4533220000000  0.5399450000000 1.0
C      1  0.5170220000000  0.6049600000000  0.4549940000000 1.0
C      1  0.4774200000000  0.3900990000000  0.4855350000000 1.0
C      1  0.4543450000000  0.5270970000000  0.4386290000000 1.0
C      1  0.5895080000000  0.4112410000000  0.4550500000000 1.0
C      1  0.5697560000000  0.4711890000000  0.4772240000000 1.0
C      1  0.5042030000000  0.5018170000000  0.4451420000000 1.0
C      1  0.4858400000000  0.4884680000000  0.4268690000000 1.0
C      1  0.4395050000000  0.4436270000000  0.5602490000000 1.0
C      1  0.5002770000000  0.3618280000000  0.4208120000000 1.0
C      1  0.5054760000000  0.5220140000000  0.5490570000000 1.0
C      1  0.5688510000000  0.4451300000000  0.5821860000000 1.0
C      1  0.5094710000000  0.5262830000000  0.4021180000000 1.0
C      1  0.4619510000000  0.4500270000000  0.4828530000000 1.0
C      1  0.5416860000000  0.5794610000000  0.4899430000000 1.0
C      1  0.5639100000000  0.4778450000000  0.4240960000000 1.0
C      1  0.4929420000000  0.5556860000000  0.4470990000000 1.0
C      1  0.3926640000000  0.5386810000000  0.6023600000000 1.0
C      1  0.5467730000000  0.5042280000000  0.5744060000000 1.0
C      1  0.5423530000000  0.4622760000000  0.4150960000000 1.0
C      1  0.4873200000000  0.5256170000000  0.5221390000000 1.0
C      1  0.4336410000000  0.4683300000000  0.4078350000000 1.0
C      1  0.4449930000000  0.5736980000000  0.4545140000000 1.0
C      1  0.4018220000000  0.4775630000000  0.4620730000000 1.0
C      1  0.5303360000000  0.6230570000000  0.5350430000000 1.0
C      1  0.4411780000000  0.4952280000000  0.4879400000000 1.0
C      1  0.5684890000000  0.5828590000000  0.4472200000000 1.0
C      1  0.3769700000000  0.5499950000000  0.4713740000000 1.0
C      1  0.4643960000000  0.5253410000000  0.4638870000000 1.0
C      1  0.6014360000000  0.5418470000000  0.5577560000000 1.0
C      1  0.5493360000000  0.5182000000000  0.4850530000000 1.0
C      1  0.4746510000000  0.4302780000000  0.5279190000000 1.0
C      1  0.5733170000000  0.5822100000000  0.5238790000000 1.0
C      1  0.6027760000000  0.4986540000000  0.5692840000000 1.0
C      1  0.4754010000000  0.4363250000000  0.4618550000000 1.0
C      1  0.5117980000000  0.4685240000000  0.5568370000000 1.0
C      1  0.5264160000000  0.6287310000000  0.4653090000000 1.0
C      1  0.5926160000000  0.5612640000000  0.5159390000000 1.0
C      1  0.4441990000000  0.5519540000000  0.4020450000000 1.0
C      1  0.4067160000000  0.5133390000000  0.4196780000000 1.0
C      1  0.5905310000000  0.4222470000000  0.5052110000000 1.0
C      1  0.4839070000000  0.5525410000000  0.5869430000000 1.0
C      1  0.4216660000000  0.5845430000000  0.5312720000000 1.0
C      1  0.5088610000000  0.5930900000000  0.5684410000000 1.0
C      1  0.5029720000000  0.4276430000000  0.4702570000000 1.0
C      1  0.5115350000000  0.3443780000000  0.4901950000000 1.0
C      1  0.4668180000000  0.4909440000000  0.5555950000000 1.0
C      1  0.5335820000000  0.5604160000000  0.5098070000000 1.0
C      1  0.5657780000000  0.5922680000000  0.4965700000000 1.0
C      1  0.4857780000000  0.5090530000000  0.5687150000000 1.0
C      1  0.5366630000000  0.4856720000000  0.5183450000000 1.0
C      1  0.5509170000000  0.5775460000000  0.5495020000000 1.0
C      1  0.4155510000000  0.5778140000000  0.5031150000000 1.0
C      1  0.4344180000000  0.4521200000000  0.4319930000000 1.0
C      1  0.4673500000000  0.5735030000000  0.5252680000000 1.0
C      1  0.5059640000000  0.3420200000000  0.4392310000000 1.0
C      1  0.5379700000000  0.3615720000000  0.5326330000000 1.0
C      1  0.5545020000000  0.4420150000000  0.4795990000000 1.0
C      1  0.4864590000000  0.4867050000000  0.4838420000000 1.0
C      1  0.4859520000000  0.5242580000000  0.5928780000000 1.0
C      1  0.4258930000000  0.4792770000000  0.5308690000000 1.0
C      1  0.5357150000000  0.4784070000000  0.5682130000000 1.0
C      1  0.4592920000000  0.4774240000000  0.4761940000000 1.0
C      1  0.5517300000000  0.3798610000000  0.5464430000000 1.0
C      1  0.5564800000000  0.4606730000000  0.5618300000000 1.0
C      1  0.5322310000000  0.5269470000000  0.5622310000000 1.0
C      1  0.3988060000000  0.4416670000000  0.5161000000000 1.0
C      1  0.6001450000000  0.5290620000000  0.4488440000000 1.0
C      1  0.4149640000000  0.5300370000000  0.5883050000000 1.0
C      1  0.5215110000000  0.4761050000000  0.3992750000000 1.0
END
