TITL C-612604-1799-1388 0.0226474532863986 125000 -116.207316742009 0 0 21 (C1) n - 1
REM
REM in /home/nfs/bkarasulu/CARBON/AIRSS/Generating-Clusters/TERSOFF/Only-C1/FIRE-HFTN
REM
REM
REM
REM
REM
REM ./C.cell (11c1c37f851c82e70ff6c80c92926a4b)
REM AIRSS Version 0.9.1 bugfix July 2018 build 013d7b7c2542+ Fri, 06 Jul 2018 19:26:36 +0100
REM compiler GCC version 9.2.1 20190827 (Red Hat 9.2.1-1)
REM options -cpp -mtune=generic -march=x86-64 -g -O0 -fpre-include=/usr/include/finclude/math-vector-fortran.h
REM seed -1292774563 174762700 1212703320 1233721129 1450051982 -1344703297 -1445095756 -1158323030 -1942435611 2133052674 965651767 -1807222280 -1236323774 -564289540 -394641232 -584305534 611132294 -896073001 -2145690818 674134855 781643033 1227847792 1711266610 392992784 -1668514100 -602594874 1186580042 -1213843921 -2045310344 1717367316 1112761414 -1968130828 1704892613
REM
CELL 1.54180   50.00000   50.00000   50.00000   90.00000   90.00000   90.00000
LATT -1
SFAC C  
C      1  0.4564570000000  0.5104840000000  0.5312610000000 1.0
C      1  0.4842950000000  0.4746650000000  0.5494690000000 1.0
C      1  0.4968170000000  0.4520260000000  0.4946740000000 1.0
C      1  0.5397560000000  0.5645010000000  0.4339190000000 1.0
C      1  0.5008670000000  0.4091400000000  0.5171660000000 1.0
C      1  0.4417640000000  0.5103080000000  0.5087000000000 1.0
C      1  0.4818650000000  0.5000110000000  0.5375520000000 1.0
C      1  0.4959990000000  0.4359380000000  0.5178030000000 1.0
C      1  0.5324120000000  0.5078830000000  0.4820220000000 1.0
C      1  0.5203260000000  0.5301040000000  0.5339260000000 1.0
C      1  0.4685540000000  0.4867860000000  0.4750510000000 1.0
C      1  0.5208890000000  0.5503390000000  0.4478110000000 1.0
C      1  0.5355050000000  0.5491130000000  0.5432720000000 1.0
C      1  0.4470630000000  0.5000070000000  0.4843890000000 1.0
C      1  0.4943180000000  0.5566380000000  0.4457710000000 1.0
C      1  0.5102020000000  0.4988250000000  0.4971850000000 1.0
C      1  0.4930300000000  0.4785940000000  0.4863800000000 1.0
C      1  0.5288190000000  0.5291790000000  0.4643000000000 1.0
C      1  0.5044510000000  0.5099420000000  0.5229900000000 1.0
C      1  0.5568330000000  0.4958750000000  0.4847340000000 1.0
C      1  0.4897770000000  0.4496440000000  0.5416250000000 1.0
END
