TITL C-612607-4507-529 0.0362312268714601 125000 -738.390557416328 0 0 122 (C1) n - 1
REM
REM in /home/nfs/bkarasulu/CARBON/AIRSS/Generating-Clusters/TERSOFF/Only-C1/FIRE-HFTN
REM
REM
REM
REM
REM
REM ./C.cell (11c1c37f851c82e70ff6c80c92926a4b)
REM AIRSS Version 0.9.1 bugfix July 2018 build 013d7b7c2542+ Fri, 06 Jul 2018 19:26:36 +0100
REM compiler GCC version 9.2.1 20190827 (Red Hat 9.2.1-1)
REM options -cpp -mtune=generic -march=x86-64 -g -O0 -fpre-include=/usr/include/finclude/math-vector-fortran.h
REM seed 54830709 1498826305 1378709708 -286655892 345807741 -1590385350 -538058067 -1810268505 1562872037 1187794755 789578485 1505102833 172737357 -2106183783 995301713 -1819900981 1906709801 542938932 -1263762254 -1102348020 -1779309729 1379208189 1079988264 483757235 -880123212 1626978407 -1949610647 1070805618 1215461886 -730095134 967294362 -77328912 2061268894
REM
CELL 1.54180   50.00000   50.00000   50.00000   90.00000   90.00000   90.00000
LATT -1
SFAC C  
C      1  0.4911350000000  0.4626380000000  0.4579770000000 1.0
C      1  0.4662390000000  0.5012960000000  0.5951870000000 1.0
C      1  0.4278860000000  0.5064060000000  0.4081070000000 1.0
C      1  0.4482300000000  0.5995380000000  0.4640020000000 1.0
C      1  0.5274260000000  0.5628490000000  0.4846980000000 1.0
C      1  0.4772290000000  0.5616220000000  0.4096950000000 1.0
C      1  0.4302340000000  0.4594900000000  0.4570000000000 1.0
C      1  0.5347640000000  0.5194970000000  0.5076380000000 1.0
C      1  0.4349540000000  0.4331290000000  0.5224780000000 1.0
C      1  0.3682570000000  0.5271370000000  0.4747840000000 1.0
C      1  0.5758250000000  0.3834570000000  0.4210590000000 1.0
C      1  0.4850790000000  0.4999220000000  0.4923940000000 1.0
C      1  0.5365670000000  0.4891350000000  0.5923850000000 1.0
C      1  0.4805330000000  0.4875190000000  0.5206950000000 1.0
C      1  0.4837210000000  0.5674620000000  0.5635990000000 1.0
C      1  0.5407600000000  0.5887350000000  0.5981000000000 1.0
C      1  0.4748090000000  0.4944860000000  0.3999660000000 1.0
C      1  0.5012170000000  0.5041080000000  0.4010660000000 1.0
C      1  0.3970320000000  0.4594830000000  0.4881260000000 1.0
C      1  0.4486000000000  0.4515110000000  0.5419070000000 1.0
C      1  0.5191680000000  0.5294420000000  0.5698070000000 1.0
C      1  0.4724410000000  0.5027990000000  0.6218930000000 1.0
C      1  0.4212350000000  0.5068590000000  0.5136600000000 1.0
C      1  0.6396880000000  0.5499090000000  0.4811630000000 1.0
C      1  0.5612850000000  0.4792270000000  0.5876100000000 1.0
C      1  0.6006830000000  0.4690650000000  0.4312430000000 1.0
C      1  0.5235740000000  0.4594420000000  0.5324270000000 1.0
C      1  0.5394690000000  0.5089160000000  0.5335360000000 1.0
C      1  0.4149700000000  0.5694080000000  0.5249020000000 1.0
C      1  0.4543060000000  0.4511520000000  0.5694440000000 1.0
C      1  0.5802840000000  0.4815240000000  0.5056100000000 1.0
C      1  0.5412890000000  0.5004970000000  0.4874070000000 1.0
C      1  0.4377320000000  0.5269980000000  0.5077170000000 1.0
C      1  0.4603750000000  0.5410470000000  0.4009960000000 1.0
C      1  0.4530820000000  0.5738120000000  0.4532610000000 1.0
C      1  0.4393870000000  0.5523310000000  0.4670040000000 1.0
C      1  0.4468590000000  0.6039910000000  0.5138560000000 1.0
C      1  0.5137190000000  0.5040780000000  0.5837260000000 1.0
C      1  0.4188080000000  0.5218650000000  0.5794270000000 1.0
C      1  0.5437750000000  0.5486160000000  0.4172950000000 1.0
C      1  0.5430830000000  0.5774090000000  0.5397760000000 1.0
C      1  0.5438270000000  0.5256960000000  0.5555330000000 1.0
C      1  0.4912390000000  0.5832620000000  0.5858870000000 1.0
C      1  0.5445070000000  0.4490550000000  0.4847200000000 1.0
C      1  0.5872080000000  0.5248210000000  0.5396190000000 1.0
C      1  0.4480300000000  0.6110590000000  0.4881290000000 1.0
C      1  0.4871250000000  0.4906460000000  0.5758900000000 1.0
C      1  0.6190220000000  0.4768050000000  0.4783930000000 1.0
C      1  0.5837690000000  0.4845250000000  0.4176820000000 1.0
C      1  0.5359790000000  0.4353810000000  0.5364910000000 1.0
C      1  0.5376200000000  0.4820710000000  0.5388170000000 1.0
C      1  0.4599810000000  0.5721850000000  0.5486720000000 1.0
C      1  0.5681980000000  0.5402130000000  0.5542710000000 1.0
C      1  0.4983090000000  0.4880320000000  0.4675520000000 1.0
C      1  0.4765330000000  0.4478190000000  0.4770520000000 1.0
C      1  0.4785960000000  0.5266350000000  0.4830920000000 1.0
C      1  0.4830870000000  0.4122620000000  0.5603150000000 1.0
C      1  0.4821390000000  0.4594660000000  0.5751070000000 1.0
C      1  0.5049650000000  0.5505030000000  0.5545300000000 1.0
C      1  0.5096850000000  0.4069200000000  0.4887340000000 1.0
C      1  0.4497510000000  0.4453790000000  0.4690250000000 1.0
C      1  0.4455680000000  0.4276670000000  0.5833740000000 1.0
C      1  0.4527360000000  0.4098810000000  0.5163540000000 1.0
C      1  0.4036570000000  0.5011580000000  0.4550720000000 1.0
C      1  0.3950450000000  0.5258350000000  0.4679910000000 1.0
C      1  0.5211900000000  0.5605290000000  0.5321180000000 1.0
C      1  0.4408690000000  0.5087880000000  0.5861090000000 1.0
C      1  0.4019270000000  0.5574200000000  0.5466310000000 1.0
C      1  0.4973890000000  0.4188110000000  0.5117700000000 1.0
C      1  0.5747780000000  0.5557590000000  0.4540940000000 1.0
C      1  0.5658790000000  0.5037910000000  0.4137430000000 1.0
C      1  0.5211080000000  0.4306950000000  0.5867740000000 1.0
C      1  0.4533690000000  0.4752490000000  0.5262630000000 1.0
C      1  0.4891250000000  0.3754680000000  0.4550580000000 1.0
C      1  0.4111490000000  0.5495990000000  0.4741540000000 1.0
C      1  0.5496690000000  0.5610430000000  0.4422790000000 1.0
C      1  0.4053400000000  0.5644340000000  0.4983460000000 1.0
C      1  0.4605770000000  0.4055510000000  0.5770490000000 1.0
C      1  0.4991360000000  0.4642170000000  0.5190000000000 1.0
C      1  0.4102430000000  0.5038470000000  0.4277580000000 1.0
C      1  0.5435950000000  0.5200740000000  0.4175650000000 1.0
C      1  0.5272340000000  0.5702130000000  0.4577600000000 1.0
C      1  0.5022450000000  0.5786030000000  0.4471940000000 1.0
C      1  0.5862680000000  0.4977450000000  0.5306060000000 1.0
C      1  0.5490130000000  0.4073060000000  0.4594600000000 1.0
C      1  0.4608030000000  0.3963600000000  0.4911720000000 1.0
C      1  0.5973740000000  0.4767690000000  0.5486890000000 1.0
C      1  0.5337400000000  0.4216260000000  0.4785040000000 1.0
C      1  0.4938630000000  0.5318640000000  0.4597670000000 1.0
C      1  0.4980310000000  0.4348780000000  0.5726400000000 1.0
C      1  0.6200220000000  0.5321870000000  0.4740210000000 1.0
C      1  0.5274890000000  0.5618350000000  0.3984660000000 1.0
C      1  0.5011900000000  0.5664330000000  0.3953450000000 1.0
C      1  0.6145570000000  0.4643790000000  0.4535940000000 1.0
C      1  0.4535490000000  0.5373650000000  0.4870300000000 1.0
C      1  0.4728430000000  0.4681840000000  0.4098610000000 1.0
C      1  0.4072140000000  0.4742450000000  0.4654790000000 1.0
C      1  0.6128970000000  0.4609340000000  0.5294990000000 1.0
C      1  0.5833760000000  0.4737140000000  0.5730140000000 1.0
C      1  0.4153950000000  0.4536930000000  0.5093440000000 1.0
C      1  0.6059550000000  0.4675010000000  0.5017560000000 1.0
C      1  0.4856420000000  0.4573460000000  0.4309120000000 1.0
C      1  0.5633180000000  0.5682120000000  0.5579310000000 1.0
C      1  0.4276900000000  0.4801090000000  0.5156350000000 1.0
C      1  0.5066560000000  0.5088250000000  0.4487900000000 1.0
C      1  0.4843820000000  0.5013000000000  0.5468950000000 1.0
C      1  0.6247460000000  0.5045780000000  0.4772530000000 1.0
C      1  0.4866850000000  0.3920300000000  0.4773040000000 1.0
C      1  0.5139600000000  0.5902770000000  0.5984530000000 1.0
C      1  0.5256560000000  0.5467070000000  0.5072920000000 1.0
C      1  0.5956870000000  0.5422070000000  0.4637960000000 1.0
C      1  0.5560650000000  0.4759850000000  0.4907700000000 1.0
C      1  0.4537630000000  0.5136700000000  0.4006190000000 1.0
C      1  0.5626080000000  0.3951530000000  0.4402450000000 1.0
C      1  0.4405320000000  0.5820190000000  0.5302500000000 1.0
C      1  0.4764900000000  0.5718380000000  0.4364730000000 1.0
C      1  0.4789830000000  0.4096230000000  0.5319900000000 1.0
C      1  0.5617150000000  0.5802110000000  0.5834410000000 1.0
C      1  0.4896030000000  0.4443380000000  0.5021000000000 1.0
C      1  0.4040850000000  0.5395940000000  0.5662430000000 1.0
C      1  0.4928950000000  0.3609450000000  0.4337520000000 1.0
C      1  0.5181510000000  0.5088400000000  0.4230190000000 1.0
END
