TITL C-612601-4209-834 0.0151416725996935 125000 -1056.91206928387 0 0 170 (C1) n - 1
REM
REM in /home/nfs/bkarasulu/CARBON/AIRSS/Generating-Clusters/TERSOFF/Only-C1/FIRE-HFTN
REM
REM
REM
REM
REM
REM ./C.cell (11c1c37f851c82e70ff6c80c92926a4b)
REM AIRSS Version 0.9.1 bugfix July 2018 build 013d7b7c2542+ Fri, 06 Jul 2018 19:26:36 +0100
REM compiler GCC version 9.2.1 20190827 (Red Hat 9.2.1-1)
REM options -cpp -mtune=generic -march=x86-64 -g -O0 -fpre-include=/usr/include/finclude/math-vector-fortran.h
REM seed -1208274138 -627014833 -1747947921 -2087262615 160809338 700156939 1984870229 2027876719 1075482888 -1360756613 1623858510 349135235 -1254900308 -1899527877 -280428468 -696678824 -680993158 1276820110 -585856151 1140785833 837511670 -1516113599 619240970 -912007477 626322978 -797346657 893651008 49128581 872895857 592568734 978183191 -1644708057 -506878641
REM
CELL 1.54180   50.00000   50.00000   50.00000   90.00000   90.00000   90.00000
LATT -1
SFAC C  
C      1  0.3933760000000  0.5499600000000  0.4423010000000 1.0
C      1  0.5502880000000  0.5048460000000  0.6117770000000 1.0
C      1  0.5457780000000  0.4989950000000  0.4366220000000 1.0
C      1  0.4282670000000  0.5834220000000  0.4334210000000 1.0
C      1  0.4814890000000  0.5550060000000  0.4443880000000 1.0
C      1  0.4019350000000  0.4876780000000  0.4008440000000 1.0
C      1  0.5713190000000  0.4193620000000  0.5001540000000 1.0
C      1  0.4748060000000  0.5855330000000  0.5670320000000 1.0
C      1  0.4670530000000  0.5028830000000  0.4891430000000 1.0
C      1  0.6284600000000  0.4191260000000  0.5408370000000 1.0
C      1  0.4339810000000  0.6129050000000  0.4732870000000 1.0
C      1  0.4057770000000  0.4646170000000  0.4434910000000 1.0
C      1  0.5253720000000  0.4744070000000  0.3786170000000 1.0
C      1  0.4384650000000  0.5690480000000  0.5298510000000 1.0
C      1  0.4965730000000  0.5407720000000  0.5894390000000 1.0
C      1  0.4712170000000  0.4351200000000  0.4793760000000 1.0
C      1  0.4846920000000  0.4714470000000  0.5588120000000 1.0
C      1  0.4386530000000  0.5196650000000  0.3883360000000 1.0
C      1  0.6021770000000  0.4944650000000  0.5960230000000 1.0
C      1  0.4704990000000  0.5294810000000  0.5857360000000 1.0
C      1  0.4048320000000  0.4465100000000  0.4667860000000 1.0
C      1  0.5596920000000  0.5885010000000  0.4865590000000 1.0
C      1  0.3701530000000  0.5373840000000  0.4402220000000 1.0
C      1  0.4883200000000  0.6050530000000  0.4422440000000 1.0
C      1  0.5192120000000  0.5143570000000  0.5324070000000 1.0
C      1  0.4218930000000  0.4360850000000  0.5278400000000 1.0
C      1  0.4859230000000  0.4960820000000  0.4385780000000 1.0
C      1  0.5746600000000  0.5422480000000  0.5748330000000 1.0
C      1  0.5675250000000  0.5680160000000  0.4667080000000 1.0
C      1  0.5959030000000  0.4980070000000  0.4609530000000 1.0
C      1  0.5948500000000  0.5263030000000  0.4536400000000 1.0
C      1  0.4135780000000  0.5107370000000  0.3931970000000 1.0
C      1  0.4684190000000  0.3728940000000  0.4436290000000 1.0
C      1  0.6103940000000  0.4283650000000  0.4471940000000 1.0
C      1  0.4080360000000  0.4638670000000  0.4149110000000 1.0
C      1  0.3872320000000  0.4715350000000  0.5346600000000 1.0
C      1  0.5427400000000  0.4539120000000  0.4214060000000 1.0
C      1  0.4675310000000  0.5832230000000  0.5949230000000 1.0
C      1  0.4808060000000  0.5815600000000  0.4539310000000 1.0
C      1  0.4947220000000  0.5725310000000  0.4975600000000 1.0
C      1  0.4681410000000  0.4220240000000  0.4528760000000 1.0
C      1  0.4528590000000  0.6007920000000  0.4881760000000 1.0
C      1  0.4385190000000  0.4610690000000  0.5942830000000 1.0
C      1  0.5651250000000  0.5582430000000  0.5216290000000 1.0
C      1  0.4813680000000  0.3947820000000  0.4538970000000 1.0
C      1  0.6140600000000  0.4537260000000  0.4400280000000 1.0
C      1  0.3827110000000  0.5224730000000  0.5371960000000 1.0
C      1  0.4729430000000  0.4088540000000  0.5627650000000 1.0
C      1  0.4577190000000  0.4680720000000  0.5481330000000 1.0
C      1  0.5474280000000  0.5646250000000  0.4445350000000 1.0
C      1  0.5390830000000  0.4676640000000  0.4712130000000 1.0
C      1  0.4649740000000  0.5692780000000  0.6181560000000 1.0
C      1  0.5834830000000  0.3737050000000  0.4905620000000 1.0
C      1  0.4887850000000  0.5088780000000  0.3920980000000 1.0
C      1  0.5028840000000  0.5410120000000  0.4317670000000 1.0
C      1  0.5007570000000  0.5295200000000  0.5463640000000 1.0
C      1  0.4733970000000  0.5242560000000  0.5381180000000 1.0
C      1  0.3485010000000  0.5229680000000  0.4385040000000 1.0
C      1  0.4385990000000  0.4187310000000  0.4460550000000 1.0
C      1  0.3979370000000  0.5423960000000  0.5281960000000 1.0
C      1  0.4360350000000  0.4325550000000  0.5887780000000 1.0
C      1  0.5849460000000  0.4003340000000  0.4847030000000 1.0
C      1  0.4964140000000  0.5869320000000  0.3964070000000 1.0
C      1  0.4267290000000  0.4837750000000  0.5825950000000 1.0
C      1  0.5632520000000  0.4986640000000  0.5474250000000 1.0
C      1  0.5584860000000  0.5529190000000  0.5958130000000 1.0
C      1  0.5703810000000  0.5143930000000  0.5709070000000 1.0
C      1  0.4663390000000  0.4630800000000  0.6021770000000 1.0
C      1  0.4770170000000  0.5256560000000  0.5086620000000 1.0
C      1  0.5079490000000  0.4088890000000  0.4033960000000 1.0
C      1  0.4897040000000  0.4782330000000  0.4914490000000 1.0
C      1  0.4265160000000  0.4449940000000  0.4037080000000 1.0
C      1  0.4684590000000  0.5478510000000  0.6346260000000 1.0
C      1  0.5264410000000  0.5942520000000  0.5576530000000 1.0
C      1  0.5036090000000  0.4570120000000  0.5423830000000 1.0
C      1  0.5373890000000  0.4571750000000  0.3952490000000 1.0
C      1  0.5697470000000  0.5118770000000  0.5216590000000 1.0
C      1  0.4340010000000  0.5049830000000  0.5673960000000 1.0
C      1  0.5297720000000  0.4653140000000  0.5392970000000 1.0
C      1  0.5023450000000  0.5783620000000  0.5601010000000 1.0
C      1  0.5048620000000  0.5136640000000  0.6277300000000 1.0
C      1  0.6164190000000  0.4421020000000  0.5433240000000 1.0
C      1  0.6159390000000  0.5073660000000  0.5223260000000 1.0
C      1  0.5301390000000  0.3986020000000  0.5956040000000 1.0
C      1  0.4457190000000  0.5830250000000  0.4109980000000 1.0
C      1  0.4697790000000  0.4331260000000  0.3862290000000 1.0
C      1  0.4482510000000  0.4514110000000  0.3859930000000 1.0
C      1  0.4567720000000  0.5207380000000  0.5618100000000 1.0
C      1  0.6198790000000  0.4985120000000  0.5751180000000 1.0
C      1  0.5577700000000  0.5076590000000  0.4127070000000 1.0
C      1  0.5415760000000  0.5828900000000  0.4233910000000 1.0
C      1  0.4994660000000  0.5444740000000  0.5016140000000 1.0
C      1  0.5218530000000  0.5879010000000  0.4054880000000 1.0
C      1  0.6093200000000  0.4795630000000  0.4444490000000 1.0
C      1  0.5339210000000  0.4932770000000  0.5434610000000 1.0
C      1  0.4898740000000  0.4394400000000  0.5244900000000 1.0
C      1  0.4948490000000  0.5157540000000  0.4192750000000 1.0
C      1  0.4822210000000  0.4397470000000  0.4320320000000 1.0
C      1  0.4190170000000  0.5598260000000  0.4471310000000 1.0
C      1  0.4402940000000  0.4988360000000  0.4444040000000 1.0
C      1  0.4064890000000  0.4628600000000  0.4912910000000 1.0
C      1  0.4039270000000  0.4560210000000  0.5185160000000 1.0
C      1  0.4174540000000  0.4050980000000  0.4890200000000 1.0
C      1  0.5116560000000  0.4704030000000  0.6040660000000 1.0
C      1  0.5139510000000  0.5931090000000  0.4963030000000 1.0
C      1  0.5364260000000  0.5181470000000  0.4557630000000 1.0
C      1  0.6226070000000  0.5332830000000  0.5115840000000 1.0
C      1  0.5350960000000  0.6019070000000  0.4821500000000 1.0
C      1  0.5737850000000  0.4994560000000  0.5960030000000 1.0
C      1  0.4356400000000  0.5068970000000  0.4946710000000 1.0
C      1  0.5956890000000  0.5560790000000  0.5643560000000 1.0
C      1  0.6183170000000  0.4917860000000  0.5471110000000 1.0
C      1  0.5267230000000  0.4215550000000  0.6090620000000 1.0
C      1  0.4615910000000  0.5037220000000  0.3842210000000 1.0
C      1  0.5262740000000  0.5106260000000  0.4812750000000 1.0
C      1  0.5160390000000  0.3852050000000  0.5771170000000 1.0
C      1  0.5400700000000  0.5979800000000  0.5822430000000 1.0
C      1  0.4622210000000  0.4191290000000  0.5876340000000 1.0
C      1  0.5964260000000  0.5317710000000  0.4258690000000 1.0
C      1  0.4878190000000  0.4269730000000  0.4068770000000 1.0
C      1  0.5429150000000  0.5974850000000  0.5344330000000 1.0
C      1  0.5237060000000  0.4918050000000  0.6188400000000 1.0
C      1  0.6035810000000  0.4666610000000  0.5451970000000 1.0
C      1  0.5550130000000  0.5341600000000  0.5129740000000 1.0
C      1  0.5288140000000  0.5426660000000  0.4445110000000 1.0
C      1  0.4294580000000  0.5360370000000  0.4923110000000 1.0
C      1  0.5425390000000  0.5336680000000  0.6090100000000 1.0
C      1  0.6001310000000  0.4096420000000  0.4630320000000 1.0
C      1  0.5090840000000  0.4956400000000  0.3775770000000 1.0
C      1  0.4250520000000  0.6071980000000  0.4484950000000 1.0
C      1  0.5142540000000  0.5353130000000  0.6103280000000 1.0
C      1  0.4301890000000  0.4216080000000  0.4192720000000 1.0
C      1  0.4813730000000  0.5242310000000  0.6400700000000 1.0
C      1  0.4695500000000  0.5847830000000  0.3984210000000 1.0
C      1  0.5913330000000  0.5003100000000  0.5083260000000 1.0
C      1  0.4218930000000  0.5506400000000  0.5158840000000 1.0
C      1  0.4170650000000  0.4885030000000  0.4550420000000 1.0
C      1  0.4547110000000  0.5818130000000  0.5471430000000 1.0
C      1  0.5553350000000  0.4535160000000  0.5326880000000 1.0
C      1  0.5533930000000  0.5803830000000  0.5975120000000 1.0
C      1  0.5635170000000  0.4656270000000  0.4864550000000 1.0
C      1  0.4659360000000  0.5082120000000  0.4574170000000 1.0
C      1  0.4465630000000  0.4431100000000  0.5393210000000 1.0
C      1  0.5630360000000  0.4451570000000  0.5066460000000 1.0
C      1  0.5601970000000  0.5846440000000  0.5154440000000 1.0
C      1  0.4734540000000  0.5829370000000  0.4816280000000 1.0
C      1  0.5059620000000  0.5503100000000  0.5644470000000 1.0
C      1  0.4791640000000  0.4355470000000  0.6056970000000 1.0
C      1  0.3789540000000  0.4962640000000  0.5402170000000 1.0
C      1  0.5075380000000  0.4418140000000  0.6098080000000 1.0
C      1  0.5171980000000  0.4834360000000  0.4830580000000 1.0
C      1  0.4877440000000  0.4763120000000  0.5868780000000 1.0
C      1  0.5754010000000  0.4700840000000  0.5458860000000 1.0
C      1  0.4835810000000  0.4509630000000  0.4986690000000 1.0
C      1  0.4548240000000  0.4771280000000  0.3771430000000 1.0
C      1  0.5905510000000  0.5489460000000  0.4714000000000 1.0
C      1  0.4360950000000  0.5468940000000  0.4661010000000 1.0
C      1  0.4690260000000  0.4243770000000  0.5388630000000 1.0
C      1  0.4185690000000  0.4214590000000  0.4661990000000 1.0
C      1  0.4189930000000  0.4108740000000  0.5152800000000 1.0
C      1  0.5427520000000  0.4714620000000  0.4432030000000 1.0
C      1  0.4928810000000  0.3891200000000  0.5641820000000 1.0
C      1  0.5794300000000  0.5225240000000  0.4071260000000 1.0
C      1  0.5062310000000  0.3925920000000  0.4653810000000 1.0
C      1  0.4615730000000  0.5382630000000  0.4556720000000 1.0
C      1  0.5265130000000  0.5279550000000  0.5058790000000 1.0
C      1  0.5843610000000  0.4865270000000  0.4846790000000 1.0
C      1  0.4171120000000  0.4884310000000  0.4838810000000 1.0
C      1  0.4865320000000  0.4677320000000  0.4356920000000 1.0
C      1  0.6094040000000  0.5490900000000  0.4933700000000 1.0
END
