TITL C-612603-7354-117 63.3387706486578 125000 -675.380935245571 0 0 109 (C1) n - 1
REM
REM in /home/nfs/bkarasulu/CARBON/AIRSS/Generating-Clusters/TERSOFF/Only-C1/FIRE-HFTN
REM
REM
REM
REM
REM
REM ./C.cell (11c1c37f851c82e70ff6c80c92926a4b)
REM AIRSS Version 0.9.1 bugfix July 2018 build 013d7b7c2542+ Fri, 06 Jul 2018 19:26:36 +0100
REM compiler GCC version 9.2.1 20190827 (Red Hat 9.2.1-1)
REM options -cpp -mtune=generic -march=x86-64 -g -O0 -fpre-include=/usr/include/finclude/math-vector-fortran.h
REM seed 672772772 212559306 -156077680 -768538398 -1808109481 -901963108 1328809999 1802414719 -1866413411 557729759 1556356753 -902253557 782298349 1552476153 -1304919538 1552779551 -1155987803 1443958904 -293857787 1015656106 -705047184 -1016975688 -1677345277 -746424846 347926975 -226714375 2047438467 1798255079 536138303 992479040 -580360166 44794007 -1696375185
REM
CELL 1.54180   50.00000   50.00000   50.00000   90.00000   90.00000   90.00000
LATT -1
SFAC C  
C      1  0.5791040000000  0.4742330000000  0.5003900000000 1.0
C      1  0.4388810000000  0.4850280000000  0.4139910000000 1.0
C      1  0.4560570000000  0.4686620000000  0.4728610000000 1.0
C      1  0.4865940000000  0.5091790000000  0.5396750000000 1.0
C      1  0.4733500000000  0.4924690000000  0.5210370000000 1.0
C      1  0.5642550000000  0.5719320000000  0.4868350000000 1.0
C      1  0.5363330000000  0.4633540000000  0.5661380000000 1.0
C      1  0.4577990000000  0.5060630000000  0.5010650000000 1.0
C      1  0.4757930000000  0.4642930000000  0.5259650000000 1.0
C      1  0.4616090000000  0.5411600000000  0.5635370000000 1.0
C      1  0.5277060000000  0.5702130000000  0.5209230000000 1.0
C      1  0.4598000000000  0.5693520000000  0.4477030000000 1.0
C      1  0.5088230000000  0.5205590000000  0.4110160000000 1.0
C      1  0.4903540000000  0.4531970000000  0.5725450000000 1.0
C      1  0.4881530000000  0.5493480000000  0.4990490000000 1.0
C      1  0.4169830000000  0.4807520000000  0.5114780000000 1.0
C      1  0.4162740000000  0.5292570000000  0.4130210000000 1.0
C      1  0.5925210000000  0.4759020000000  0.4750770000000 1.0
C      1  0.5634290000000  0.4717270000000  0.4329720000000 1.0
C      1  0.4547050000000  0.5703360000000  0.5248450000000 1.0
C      1  0.4169140000000  0.5072130000000  0.5235630000000 1.0
C      1  0.4139090000000  0.5432850000000  0.4563400000000 1.0
C      1  0.4701450000000  0.5141210000000  0.5623090000000 1.0
C      1  0.5575190000000  0.5238420000000  0.5129700000000 1.0
C      1  0.4655940000000  0.5660790000000  0.4987960000000 1.0
C      1  0.4850390000000  0.4490350000000  0.5043300000000 1.0
C      1  0.4857690000000  0.4766640000000  0.5888240000000 1.0
C      1  0.5160940000000  0.4924030000000  0.4068750000000 1.0
C      1  0.5508680000000  0.4720800000000  0.4970170000000 1.0
C      1  0.4644800000000  0.4172370000000  0.4757470000000 1.0
C      1  0.5198860000000  0.4292410000000  0.4780460000000 1.0
C      1  0.4754700000000  0.4897910000000  0.4622670000000 1.0
C      1  0.5514240000000  0.5280200000000  0.4326660000000 1.0
C      1  0.4140320000000  0.4886680000000  0.6004400000000 1.0
C      1  0.5411470000000  0.4752610000000  0.4711330000000 1.0
C      1  0.5317160000000  0.4700620000000  0.5393070000000 1.0
C      1  0.5467470000000  0.4294850000000  0.4678140000000 1.0
C      1  0.5615950000000  0.4160120000000  0.4890470000000 1.0
C      1  0.4872620000000  0.5299910000000  0.4287090000000 1.0
C      1  0.5276870000000  0.5335260000000  0.5861990000000 1.0
C      1  0.5908400000000  0.4483430000000  0.5391290000000 1.0
C      1  0.4217020000000  0.4423610000000  0.5452480000000 1.0
C      1  0.4392190000000  0.5712010000000  0.4277790000000 1.0
C      1  0.5792820000000  0.4246550000000  0.5337570000000 1.0
C      1  0.4401750000000  0.4449560000000  0.3835840000000 1.0
C      1  0.5552070000000  0.4800800000000  0.5784130000000 1.0
C      1  0.5231500000000  0.5796440000000  0.5684770000000 1.0
C      1  0.5243390000000  0.4182750000000  0.5557540000000 1.0
C      1  0.5091900000000  0.5250130000000  0.5319840000000 1.0
C      1  0.5336050000000  0.5156590000000  0.5220600000000 1.0
C      1  0.4915000000000  0.4768930000000  0.4023180000000 1.0
C      1  0.4881220000000  0.4543560000000  0.3859030000000 1.0
C      1  0.5821280000000  0.5574290000000  0.4728980000000 1.0
C      1  0.5101320000000  0.5568000000000  0.5803740000000 1.0
C      1  0.5668120000000  0.5036160000000  0.5668780000000 1.0
C      1  0.5093840000000  0.5663120000000  0.4545860000000 1.0
C      1  0.5378490000000  0.5791660000000  0.4949460000000 1.0
C      1  0.4640440000000  0.4938870000000  0.5811780000000 1.0
C      1  0.4254820000000  0.5160860000000  0.4565830000000 1.0
C      1  0.5596340000000  0.5529440000000  0.5555670000000 1.0
C      1  0.4985270000000  0.5010050000000  0.4753900000000 1.0
C      1  0.5511650000000  0.4545560000000  0.4534810000000 1.0
C      1  0.5355110000000  0.5214040000000  0.4536030000000 1.0
C      1  0.4739930000000  0.5047610000000  0.4372130000000 1.0
C      1  0.5587720000000  0.4130650000000  0.5179970000000 1.0
C      1  0.5186940000000  0.5127860000000  0.6030040000000 1.0
C      1  0.4284880000000  0.4637970000000  0.3989110000000 1.0
C      1  0.5196480000000  0.6057360000000  0.5772120000000 1.0
C      1  0.5927210000000  0.5375280000000  0.4582050000000 1.0
C      1  0.4173100000000  0.5532670000000  0.4289120000000 1.0
C      1  0.5314810000000  0.4610570000000  0.5135930000000 1.0
C      1  0.5837500000000  0.4991130000000  0.5428830000000 1.0
C      1  0.5153800000000  0.3888650000000  0.5179260000000 1.0
C      1  0.5121650000000  0.4446070000000  0.5006480000000 1.0
C      1  0.4440350000000  0.5494020000000  0.5416360000000 1.0
C      1  0.5817760000000  0.5206230000000  0.5243540000000 1.0
C      1  0.4222640000000  0.5587900000000  0.4786570000000 1.0
C      1  0.4680960000000  0.4443570000000  0.4820490000000 1.0
C      1  0.4662220000000  0.4408170000000  0.3779280000000 1.0
C      1  0.5429010000000  0.4817850000000  0.4138540000000 1.0
C      1  0.4851480000000  0.5578760000000  0.4400740000000 1.0
C      1  0.4465580000000  0.4382760000000  0.5543380000000 1.0
C      1  0.4979580000000  0.5297540000000  0.4812380000000 1.0
C      1  0.5199750000000  0.5857520000000  0.4727910000000 1.0
C      1  0.4129000000000  0.5514780000000  0.5045410000000 1.0
C      1  0.5531150000000  0.5297480000000  0.5713870000000 1.0
C      1  0.4753790000000  0.3946050000000  0.4854930000000 1.0
C      1  0.5172110000000  0.4421410000000  0.5702540000000 1.0
C      1  0.5879940000000  0.4741780000000  0.5283020000000 1.0
C      1  0.5337660000000  0.4056030000000  0.5314930000000 1.0
C      1  0.5404140000000  0.5722490000000  0.5467630000000 1.0
C      1  0.5935050000000  0.5134970000000  0.4458670000000 1.0
C      1  0.5252170000000  0.4966610000000  0.4644500000000 1.0
C      1  0.4245900000000  0.5055390000000  0.4281640000000 1.0
C      1  0.5159070000000  0.6302500000000  0.5852210000000 1.0
C      1  0.5185040000000  0.5410590000000  0.4642440000000 1.0
C      1  0.4386030000000  0.4910080000000  0.5920860000000 1.0
C      1  0.5858440000000  0.4861490000000  0.4483030000000 1.0
C      1  0.4943500000000  0.3849630000000  0.5018200000000 1.0
C      1  0.4674960000000  0.4876620000000  0.4154350000000 1.0
C      1  0.4496700000000  0.5686320000000  0.4753780000000 1.0
C      1  0.4430610000000  0.5133380000000  0.4791860000000 1.0
C      1  0.4716300000000  0.4504770000000  0.5509070000000 1.0
C      1  0.5053320000000  0.4895940000000  0.6043550000000 1.0
C      1  0.4096760000000  0.4593700000000  0.5284360000000 1.0
C      1  0.4814670000000  0.5563110000000  0.5776160000000 1.0
C      1  0.4302550000000  0.4729380000000  0.4866350000000 1.0
C      1  0.4225320000000  0.5353250000000  0.5266170000000 1.0
C      1  0.5054290000000  0.5515380000000  0.5212090000000 1.0
END
