TITL C-612606-7351-1324 -0.0181593605058858 125000 -604.414770228907 0 0 98 (C1) n - 1
REM
REM in /home/nfs/bkarasulu/CARBON/AIRSS/Generating-Clusters/TERSOFF/Only-C1/FIRE-HFTN
REM
REM
REM
REM
REM
REM ./C.cell (11c1c37f851c82e70ff6c80c92926a4b)
REM AIRSS Version 0.9.1 bugfix July 2018 build 013d7b7c2542+ Fri, 06 Jul 2018 19:26:36 +0100
REM compiler GCC version 9.2.1 20190827 (Red Hat 9.2.1-1)
REM options -cpp -mtune=generic -march=x86-64 -g -O0 -fpre-include=/usr/include/finclude/math-vector-fortran.h
REM seed -1694663904 327186735 -1885787531 -332079499 439799639 -431639924 -998247244 -1246489936 -2051814160 -162766869 57073248 -858640440 -1570142718 -2104629263 -442873971 1670694807 296654808 1748862885 -1108612098 1077624887 988072620 -186336210 1103122688 666099186 -1927790121 993609194 757879307 691451864 1836555880 -467387592 -214492163 -1080456610 -769786579
REM
CELL 1.54180   50.00000   50.00000   50.00000   90.00000   90.00000   90.00000
LATT -1
SFAC C  
C      1  0.5145940000000  0.6031400000000  0.4645130000000 1.0
C      1  0.5959920000000  0.4600480000000  0.4814880000000 1.0
C      1  0.5160950000000  0.5160070000000  0.4208170000000 1.0
C      1  0.5665380000000  0.5811170000000  0.5077450000000 1.0
C      1  0.5244040000000  0.5176300000000  0.5755080000000 1.0
C      1  0.5275500000000  0.4482230000000  0.5878040000000 1.0
C      1  0.5193470000000  0.4906360000000  0.6128060000000 1.0
C      1  0.4993700000000  0.6170210000000  0.4448280000000 1.0
C      1  0.5288230000000  0.5388880000000  0.4318020000000 1.0
C      1  0.5309320000000  0.4410700000000  0.4826720000000 1.0
C      1  0.4428840000000  0.4768670000000  0.5721360000000 1.0
C      1  0.4835510000000  0.4886280000000  0.4571000000000 1.0
C      1  0.5275810000000  0.4226100000000  0.5471340000000 1.0
C      1  0.5160530000000  0.5650380000000  0.4329190000000 1.0
C      1  0.4881570000000  0.6029810000000  0.4243300000000 1.0
C      1  0.3891300000000  0.4722690000000  0.5240350000000 1.0
C      1  0.5019340000000  0.4849900000000  0.5408990000000 1.0
C      1  0.5052460000000  0.4221570000000  0.4459820000000 1.0
C      1  0.4215880000000  0.4120360000000  0.5005900000000 1.0
C      1  0.5623910000000  0.4739490000000  0.5130090000000 1.0
C      1  0.5054250000000  0.5933030000000  0.5162090000000 1.0
C      1  0.5759940000000  0.4962950000000  0.4541620000000 1.0
C      1  0.5252000000000  0.5162000000000  0.6044010000000 1.0
C      1  0.5168560000000  0.4641900000000  0.4969370000000 1.0
C      1  0.4255190000000  0.5487450000000  0.4006330000000 1.0
C      1  0.3865180000000  0.4480510000000  0.5125920000000 1.0
C      1  0.4178610000000  0.5139730000000  0.5258040000000 1.0
C      1  0.5035400000000  0.4350240000000  0.5380450000000 1.0
C      1  0.4048010000000  0.5430890000000  0.3851100000000 1.0
C      1  0.4691240000000  0.4333420000000  0.5726720000000 1.0
C      1  0.4706720000000  0.5485910000000  0.4584280000000 1.0
C      1  0.5845000000000  0.4981330000000  0.5479190000000 1.0
C      1  0.4769220000000  0.5428690000000  0.5839010000000 1.0
C      1  0.5382660000000  0.4855680000000  0.5018530000000 1.0
C      1  0.5715950000000  0.5231820000000  0.4622880000000 1.0
C      1  0.5525510000000  0.5667720000000  0.4621140000000 1.0
C      1  0.5068010000000  0.6033540000000  0.4914330000000 1.0
C      1  0.5411840000000  0.4039000000000  0.5312290000000 1.0
C      1  0.5557410000000  0.4315840000000  0.4932400000000 1.0
C      1  0.4428260000000  0.4683970000000  0.4996220000000 1.0
C      1  0.5224610000000  0.5801260000000  0.5343740000000 1.0
C      1  0.5063470000000  0.4606340000000  0.5254820000000 1.0
C      1  0.3636940000000  0.5318610000000  0.3543130000000 1.0
C      1  0.5551020000000  0.4081290000000  0.5085700000000 1.0
C      1  0.4658280000000  0.5236830000000  0.5224290000000 1.0
C      1  0.5708980000000  0.4749840000000  0.5401350000000 1.0
C      1  0.5564220000000  0.4805280000000  0.4407320000000 1.0
C      1  0.4462410000000  0.5542970000000  0.4161670000000 1.0
C      1  0.5402800000000  0.5315720000000  0.5145500000000 1.0
C      1  0.4098990000000  0.4879900000000  0.5348800000000 1.0
C      1  0.5525440000000  0.5401480000000  0.4484300000000 1.0
C      1  0.4557510000000  0.4542540000000  0.5832220000000 1.0
C      1  0.5037810000000  0.4140170000000  0.4193290000000 1.0
C      1  0.5261060000000  0.4395460000000  0.4545260000000 1.0
C      1  0.5026970000000  0.4070960000000  0.3942270000000 1.0
C      1  0.4881310000000  0.5382040000000  0.4757250000000 1.0
C      1  0.5811580000000  0.5382740000000  0.4863080000000 1.0
C      1  0.4852300000000  0.5042770000000  0.5289240000000 1.0
C      1  0.4859440000000  0.4131030000000  0.4646020000000 1.0
C      1  0.5697110000000  0.5653740000000  0.4848020000000 1.0
C      1  0.4506830000000  0.5302760000000  0.5814380000000 1.0
C      1  0.4398660000000  0.5434350000000  0.5572690000000 1.0
C      1  0.4318380000000  0.4727100000000  0.5459610000000 1.0
C      1  0.5079670000000  0.5222520000000  0.4836470000000 1.0
C      1  0.4870450000000  0.5527490000000  0.5580420000000 1.0
C      1  0.5813080000000  0.5248020000000  0.5392980000000 1.0
C      1  0.5974090000000  0.4812100000000  0.4648230000000 1.0
C      1  0.4905320000000  0.5746020000000  0.4242640000000 1.0
C      1  0.4495550000000  0.4143410000000  0.5046120000000 1.0
C      1  0.4771520000000  0.4281960000000  0.5460100000000 1.0
C      1  0.4568010000000  0.4313600000000  0.5264460000000 1.0
C      1  0.5159970000000  0.4734890000000  0.5899720000000 1.0
C      1  0.3840770000000  0.5374280000000  0.3695840000000 1.0
C      1  0.5890760000000  0.5303080000000  0.5123320000000 1.0
C      1  0.4682330000000  0.4090880000000  0.4842170000000 1.0
C      1  0.5341110000000  0.5399020000000  0.5611490000000 1.0
C      1  0.4980190000000  0.5002660000000  0.4359060000000 1.0
C      1  0.5210110000000  0.5092860000000  0.3946940000000 1.0
C      1  0.4417510000000  0.5145400000000  0.5088660000000 1.0
C      1  0.4964740000000  0.4734420000000  0.4771020000000 1.0
C      1  0.5639890000000  0.4536680000000  0.5570740000000 1.0
C      1  0.5142460000000  0.5589250000000  0.5518680000000 1.0
C      1  0.4572110000000  0.4963580000000  0.4639560000000 1.0
C      1  0.5422440000000  0.4380860000000  0.5661250000000 1.0
C      1  0.5741590000000  0.4527540000000  0.4974700000000 1.0
C      1  0.4444700000000  0.4943090000000  0.4889050000000 1.0
C      1  0.4681720000000  0.5590960000000  0.4324820000000 1.0
C      1  0.4163800000000  0.5356500000000  0.5439610000000 1.0
C      1  0.5616900000000  0.5397250000000  0.5537290000000 1.0
C      1  0.5498760000000  0.5845390000000  0.5285220000000 1.0
C      1  0.5141130000000  0.4911840000000  0.5660210000000 1.0
C      1  0.4642810000000  0.5460240000000  0.5404080000000 1.0
C      1  0.3987160000000  0.4257140000000  0.5040800000000 1.0
C      1  0.5404910000000  0.4588210000000  0.4394960000000 1.0
C      1  0.4445290000000  0.4570110000000  0.5254380000000 1.0
C      1  0.5295930000000  0.5813230000000  0.4537260000000 1.0
C      1  0.4452310000000  0.5026260000000  0.5838790000000 1.0
C      1  0.5294260000000  0.5125410000000  0.4987910000000 1.0
END
