TITL C-612604-1799-765 11.1118648009611 125000 -332.760441621528 0 0 57 (C1) n - 1
REM
REM in /home/nfs/bkarasulu/CARBON/AIRSS/Generating-Clusters/TERSOFF/Only-C1/FIRE-HFTN
REM
REM
REM
REM
REM
REM ./C.cell (11c1c37f851c82e70ff6c80c92926a4b)
REM AIRSS Version 0.9.1 bugfix July 2018 build 013d7b7c2542+ Fri, 06 Jul 2018 19:26:36 +0100
REM compiler GCC version 9.2.1 20190827 (Red Hat 9.2.1-1)
REM options -cpp -mtune=generic -march=x86-64 -g -O0 -fpre-include=/usr/include/finclude/math-vector-fortran.h
REM seed -978636954 -1671787330 826567909 848867698 -1859762514 1788631910 -961549669 667530181 1537582550 26988352 -73270333 -1779582036 370108832 -1456308527 1543556340 1467912088 1186423099 -1557664743 2111856993 1934365878 -1249114557 1868777803 833614608 -1695307001 1558850795 -1857753063 -1064783240 -543973501 -745943848 -66583751 -1249878950 1971696756 -1615233459
REM
CELL 1.54180   50.00000   50.00000   50.00000   90.00000   90.00000   90.00000
LATT -1
SFAC C  
C      1  0.5763660000000  0.4950310000000  0.4203860000000 1.0
C      1  0.5948750000000  0.4609160000000  0.3849240000000 1.0
C      1  0.4910660000000  0.5535460000000  0.4463530000000 1.0
C      1  0.4701730000000  0.4952730000000  0.5648160000000 1.0
C      1  0.5858470000000  0.4778850000000  0.4025360000000 1.0
C      1  0.4697290000000  0.4593490000000  0.4868820000000 1.0
C      1  0.5188370000000  0.5508020000000  0.4859200000000 1.0
C      1  0.4797740000000  0.5142510000000  0.5465730000000 1.0
C      1  0.5690670000000  0.5567890000000  0.5201500000000 1.0
C      1  0.5355490000000  0.5652570000000  0.5769450000000 1.0
C      1  0.4471820000000  0.4211750000000  0.4663410000000 1.0
C      1  0.4544560000000  0.4054160000000  0.4871680000000 1.0
C      1  0.4848250000000  0.4829120000000  0.4810650000000 1.0
C      1  0.4766660000000  0.4676650000000  0.5621020000000 1.0
C      1  0.4973130000000  0.5018660000000  0.5264690000000 1.0
C      1  0.4976340000000  0.4578380000000  0.5787080000000 1.0
C      1  0.4706650000000  0.4440700000000  0.5118000000000 1.0
C      1  0.5831260000000  0.5515780000000  0.4981470000000 1.0
C      1  0.4541330000000  0.4473820000000  0.4662840000000 1.0
C      1  0.5783110000000  0.5408850000000  0.4742570000000 1.0
C      1  0.5137740000000  0.4944670000000  0.4098340000000 1.0
C      1  0.4328820000000  0.5976300000000  0.5214110000000 1.0
C      1  0.4458500000000  0.5702950000000  0.4560240000000 1.0
C      1  0.5356780000000  0.4947910000000  0.5739570000000 1.0
C      1  0.4905650000000  0.4128690000000  0.6083000000000 1.0
C      1  0.4850350000000  0.5028830000000  0.5005660000000 1.0
C      1  0.4811440000000  0.3981820000000  0.5278160000000 1.0
C      1  0.5077330000000  0.3650700000000  0.5587760000000 1.0
C      1  0.4862820000000  0.3915020000000  0.6226070000000 1.0
C      1  0.4971640000000  0.5705780000000  0.5257060000000 1.0
C      1  0.5212080000000  0.4731420000000  0.5795250000000 1.0
C      1  0.5312300000000  0.5355080000000  0.4634120000000 1.0
C      1  0.4693340000000  0.5638490000000  0.5290750000000 1.0
C      1  0.4946850000000  0.4345070000000  0.5935780000000 1.0
C      1  0.4673650000000  0.5254440000000  0.5033440000000 1.0
C      1  0.5208570000000  0.5590520000000  0.5135980000000 1.0
C      1  0.4942870000000  0.3816480000000  0.5438090000000 1.0
C      1  0.5583710000000  0.5292010000000  0.4585050000000 1.0
C      1  0.4688850000000  0.5066100000000  0.4249730000000 1.0
C      1  0.5414670000000  0.5191630000000  0.5650030000000 1.0
C      1  0.4636380000000  0.5555850000000  0.4376670000000 1.0
C      1  0.5012970000000  0.4843830000000  0.4575540000000 1.0
C      1  0.4984260000000  0.5045690000000  0.4344790000000 1.0
C      1  0.4927480000000  0.5561310000000  0.4748060000000 1.0
C      1  0.4561040000000  0.5320220000000  0.4241800000000 1.0
C      1  0.5101890000000  0.5317030000000  0.4424010000000 1.0
C      1  0.4690080000000  0.5471660000000  0.4862750000000 1.0
C      1  0.4490380000000  0.5776900000000  0.5122030000000 1.0
C      1  0.4658880000000  0.5348470000000  0.5316180000000 1.0
C      1  0.4702240000000  0.4549470000000  0.5377640000000 1.0
C      1  0.4557490000000  0.4840300000000  0.4168720000000 1.0
C      1  0.4485400000000  0.5673720000000  0.4849050000000 1.0
C      1  0.5219420000000  0.4661610000000  0.4555720000000 1.0
C      1  0.5399400000000  0.5462240000000  0.5577320000000 1.0
C      1  0.5432420000000  0.5541400000000  0.5305610000000 1.0
C      1  0.4688560000000  0.4152090000000  0.5095700000000 1.0
C      1  0.5657820000000  0.5115420000000  0.4381940000000 1.0
END
