TITL C-612605-9286-230 0.000440999967286857 125000 -784.518755816856 0 0 129 (C1) n - 1
REM
REM in /home/nfs/bkarasulu/CARBON/AIRSS/Generating-Clusters/TERSOFF/Only-C1/FIRE-HFTN
REM
REM
REM
REM
REM
REM ./C.cell (11c1c37f851c82e70ff6c80c92926a4b)
REM AIRSS Version 0.9.1 bugfix July 2018 build 013d7b7c2542+ Fri, 06 Jul 2018 19:26:36 +0100
REM compiler GCC version 9.2.1 20190827 (Red Hat 9.2.1-1)
REM options -cpp -mtune=generic -march=x86-64 -g -O0 -fpre-include=/usr/include/finclude/math-vector-fortran.h
REM seed 169335553 -1615264372 2039660938 526739641 268417326 615082875 519681624 312090470 -28389788 -1410208419 734902736 -1869368336 -1039242886 -144362316 381844643 1334135170 -1544369503 -1607516327 -570618527 -413565314 -930781248 23442810 377995698 1356112464 140453883 -107293507 1823317569 -701051748 -1683690890 -889547615 -232897477 56891526 1414960833
REM
CELL 1.54180   50.00000   50.00000   50.00000   90.00000   90.00000   90.00000
LATT -1
SFAC C  
C      1  0.5074710000000  0.5257630000000  0.5476640000000 1.0
C      1  0.5149190000000  0.5496660000000  0.4677910000000 1.0
C      1  0.4983260000000  0.4385080000000  0.4807400000000 1.0
C      1  0.4430680000000  0.4155560000000  0.4704540000000 1.0
C      1  0.5205660000000  0.4836080000000  0.4843140000000 1.0
C      1  0.4220910000000  0.5049370000000  0.5212030000000 1.0
C      1  0.4826090000000  0.5222530000000  0.4085960000000 1.0
C      1  0.5970450000000  0.4967530000000  0.5593130000000 1.0
C      1  0.5784840000000  0.4804860000000  0.5454560000000 1.0
C      1  0.4098250000000  0.5680950000000  0.4970220000000 1.0
C      1  0.4877630000000  0.4225790000000  0.4388310000000 1.0
C      1  0.6029050000000  0.5225820000000  0.5490350000000 1.0
C      1  0.4524550000000  0.4541910000000  0.5579890000000 1.0
C      1  0.5226800000000  0.5262160000000  0.5941540000000 1.0
C      1  0.5502530000000  0.5090500000000  0.5126080000000 1.0
C      1  0.5945040000000  0.5129430000000  0.6065250000000 1.0
C      1  0.5545910000000  0.4935890000000  0.5361750000000 1.0
C      1  0.4299310000000  0.4911620000000  0.4407480000000 1.0
C      1  0.5050280000000  0.5959830000000  0.4343360000000 1.0
C      1  0.5141470000000  0.4537770000000  0.5995640000000 1.0
C      1  0.4963900000000  0.5636440000000  0.4841700000000 1.0
C      1  0.5355410000000  0.5332430000000  0.5085560000000 1.0
C      1  0.5373790000000  0.5992490000000  0.4921880000000 1.0
C      1  0.5626330000000  0.5422720000000  0.4673400000000 1.0
C      1  0.5070470000000  0.4972140000000  0.5484960000000 1.0
C      1  0.4827500000000  0.4790980000000  0.3884720000000 1.0
C      1  0.4300450000000  0.5297950000000  0.5381890000000 1.0
C      1  0.4705440000000  0.5040860000000  0.3913620000000 1.0
C      1  0.4635260000000  0.4156450000000  0.4511210000000 1.0
C      1  0.5424330000000  0.4732270000000  0.4215020000000 1.0
C      1  0.5629990000000  0.5440610000000  0.4389420000000 1.0
C      1  0.4605690000000  0.5794020000000  0.5497690000000 1.0
C      1  0.5640230000000  0.4281130000000  0.5506250000000 1.0
C      1  0.4600740000000  0.5424770000000  0.5038210000000 1.0
C      1  0.4699030000000  0.4454060000000  0.5152750000000 1.0
C      1  0.4287140000000  0.4557090000000  0.5386870000000 1.0
C      1  0.5417850000000  0.4329730000000  0.4494200000000 1.0
C      1  0.5505300000000  0.4241310000000  0.5028410000000 1.0
C      1  0.5016170000000  0.4104420000000  0.4823060000000 1.0
C      1  0.5553460000000  0.5664900000000  0.5780410000000 1.0
C      1  0.5607540000000  0.6243450000000  0.4586700000000 1.0
C      1  0.5205320000000  0.4376190000000  0.5777940000000 1.0
C      1  0.4492620000000  0.4739340000000  0.5791100000000 1.0
C      1  0.4760800000000  0.4937280000000  0.5115080000000 1.0
C      1  0.5532820000000  0.4114350000000  0.5288600000000 1.0
C      1  0.5305150000000  0.4816410000000  0.5448620000000 1.0
C      1  0.4043510000000  0.5179900000000  0.5003900000000 1.0
C      1  0.5288990000000  0.5171070000000  0.4045110000000 1.0
C      1  0.4433200000000  0.5380810000000  0.4805370000000 1.0
C      1  0.4418600000000  0.5254630000000  0.5634220000000 1.0
C      1  0.5791240000000  0.4519340000000  0.5460040000000 1.0
C      1  0.4458140000000  0.5119360000000  0.3803680000000 1.0
C      1  0.5860770000000  0.5385360000000  0.6043870000000 1.0
C      1  0.5145530000000  0.4345910000000  0.4346370000000 1.0
C      1  0.4963510000000  0.4965120000000  0.4915970000000 1.0
C      1  0.5303810000000  0.3953560000000  0.5365630000000 1.0
C      1  0.4777620000000  0.5279660000000  0.4480160000000 1.0
C      1  0.4267520000000  0.4332910000000  0.4890700000000 1.0
C      1  0.4679900000000  0.5990140000000  0.5006030000000 1.0
C      1  0.5511960000000  0.4200100000000  0.4740380000000 1.0
C      1  0.5488390000000  0.5013650000000  0.4161900000000 1.0
C      1  0.5180050000000  0.4575640000000  0.4155120000000 1.0
C      1  0.4255160000000  0.4332300000000  0.5189070000000 1.0
C      1  0.4484370000000  0.4967830000000  0.5079630000000 1.0
C      1  0.5077630000000  0.4421510000000  0.3710920000000 1.0
C      1  0.4289630000000  0.5756400000000  0.5170230000000 1.0
C      1  0.5054320000000  0.4385190000000  0.5508090000000 1.0
C      1  0.4518330000000  0.5922460000000  0.5237860000000 1.0
C      1  0.4269130000000  0.4588120000000  0.4754620000000 1.0
C      1  0.4519630000000  0.5288280000000  0.4562220000000 1.0
C      1  0.5174240000000  0.4777260000000  0.6107120000000 1.0
C      1  0.5224020000000  0.5037360000000  0.6083280000000 1.0
C      1  0.4387890000000  0.5652890000000  0.4233240000000 1.0
C      1  0.5700070000000  0.4805360000000  0.4784070000000 1.0
C      1  0.5040380000000  0.5363990000000  0.4452070000000 1.0
C      1  0.4282570000000  0.5390820000000  0.4173260000000 1.0
C      1  0.5027070000000  0.4595970000000  0.3916320000000 1.0
C      1  0.5785340000000  0.4688590000000  0.4544430000000 1.0
C      1  0.4116300000000  0.4757700000000  0.4578170000000 1.0
C      1  0.5096660000000  0.5371670000000  0.5216390000000 1.0
C      1  0.5112640000000  0.5433290000000  0.5719300000000 1.0
C      1  0.4325150000000  0.5193360000000  0.4378690000000 1.0
C      1  0.5799850000000  0.5537340000000  0.5812440000000 1.0
C      1  0.5998020000000  0.4945010000000  0.5874740000000 1.0
C      1  0.5486270000000  0.5680020000000  0.4308260000000 1.0
C      1  0.4562340000000  0.4676430000000  0.6318230000000 1.0
C      1  0.4829510000000  0.5610510000000  0.6091910000000 1.0
C      1  0.5079060000000  0.5300990000000  0.4167330000000 1.0
C      1  0.5275250000000  0.5829990000000  0.5420560000000 1.0
C      1  0.5388310000000  0.5434410000000  0.4820020000000 1.0
C      1  0.4805130000000  0.3954260000000  0.5419150000000 1.0
C      1  0.5257260000000  0.4551410000000  0.5347950000000 1.0
C      1  0.4557670000000  0.4776700000000  0.4456270000000 1.0
C      1  0.5576460000000  0.4562970000000  0.4399910000000 1.0
C      1  0.4734290000000  0.4490830000000  0.4876660000000 1.0
C      1  0.5951950000000  0.5467700000000  0.5582970000000 1.0
C      1  0.4845770000000  0.5529670000000  0.5830210000000 1.0
C      1  0.4541150000000  0.3945500000000  0.5380560000000 1.0
C      1  0.4816500000000  0.5871540000000  0.4778100000000 1.0
C      1  0.3844960000000  0.4768870000000  0.4564690000000 1.0
C      1  0.5433000000000  0.6040270000000  0.4648670000000 1.0
C      1  0.4560230000000  0.4627810000000  0.4700580000000 1.0
C      1  0.4802140000000  0.5909920000000  0.4491100000000 1.0
C      1  0.5053080000000  0.4088450000000  0.5424580000000 1.0
C      1  0.4847110000000  0.4839910000000  0.5373210000000 1.0
C      1  0.4147250000000  0.5413590000000  0.4865770000000 1.0
C      1  0.4353480000000  0.4968140000000  0.5678000000000 1.0
C      1  0.5474590000000  0.4927820000000  0.4893020000000 1.0
C      1  0.5022840000000  0.3843400000000  0.4825380000000 1.0
C      1  0.4322060000000  0.4078040000000  0.5301700000000 1.0
C      1  0.5700770000000  0.5188210000000  0.4259410000000 1.0
C      1  0.4203660000000  0.4840930000000  0.5432510000000 1.0
C      1  0.5475780000000  0.4282070000000  0.5742580000000 1.0
C      1  0.5953290000000  0.5065220000000  0.4289280000000 1.0
C      1  0.4408720000000  0.5498820000000  0.5233210000000 1.0
C      1  0.4549620000000  0.4705200000000  0.6059490000000 1.0
C      1  0.4619720000000  0.5544360000000  0.5662190000000 1.0
C      1  0.4788680000000  0.4538990000000  0.5430640000000 1.0
C      1  0.5991140000000  0.4823730000000  0.4405770000000 1.0
C      1  0.5341380000000  0.4467210000000  0.5091760000000 1.0
C      1  0.5327150000000  0.3681460000000  0.5387310000000 1.0
C      1  0.4877240000000  0.5477660000000  0.5060060000000 1.0
C      1  0.5028090000000  0.6090520000000  0.4101160000000 1.0
C      1  0.4569310000000  0.5819010000000  0.4348220000000 1.0
C      1  0.5319850000000  0.5888440000000  0.4429410000000 1.0
C      1  0.5325940000000  0.5939080000000  0.5180530000000 1.0
C      1  0.5190930000000  0.4557980000000  0.4874780000000 1.0
C      1  0.5303780000000  0.5662050000000  0.5647680000000 1.0
C      1  0.4276820000000  0.5289290000000  0.3910160000000 1.0
END
