TITL C-612604-1799-909 0.0628411225489678 125000 -814.908367846438 0 0 135 (C1) n - 1
REM
REM in /home/nfs/bkarasulu/CARBON/AIRSS/Generating-Clusters/TERSOFF/Only-C1/FIRE-HFTN
REM
REM
REM
REM
REM
REM ./C.cell (11c1c37f851c82e70ff6c80c92926a4b)
REM AIRSS Version 0.9.1 bugfix July 2018 build 013d7b7c2542+ Fri, 06 Jul 2018 19:26:36 +0100
REM compiler GCC version 9.2.1 20190827 (Red Hat 9.2.1-1)
REM options -cpp -mtune=generic -march=x86-64 -g -O0 -fpre-include=/usr/include/finclude/math-vector-fortran.h
REM seed 685264428 1928152396 375031324 -1460635063 1190985210 2058981718 -654783468 -1986741801 -1430721314 -714726861 778474064 -2039594052 -319933178 -1949456291 568200981 -1085470337 739551083 316089595 808600395 501838060 721824120 -1880351802 984636050 1147778286 -1401229122 -827931457 -407505725 1077668875 -1289036245 1615239721 1214664132 -1011721468 1375219904
REM
CELL 1.54180   50.00000   50.00000   50.00000   90.00000   90.00000   90.00000
LATT -1
SFAC C  
C      1  0.4728290000000  0.4898520000000  0.5983850000000 1.0
C      1  0.5692190000000  0.4951930000000  0.5786940000000 1.0
C      1  0.5503900000000  0.5450980000000  0.5047410000000 1.0
C      1  0.5682170000000  0.4924690000000  0.6063520000000 1.0
C      1  0.5241140000000  0.5111480000000  0.5217610000000 1.0
C      1  0.4628790000000  0.5881110000000  0.5104980000000 1.0
C      1  0.4349880000000  0.5545980000000  0.4575380000000 1.0
C      1  0.5045920000000  0.5345680000000  0.5188470000000 1.0
C      1  0.5937140000000  0.4983930000000  0.5647630000000 1.0
C      1  0.5157940000000  0.6094680000000  0.4624200000000 1.0
C      1  0.4428170000000  0.5080230000000  0.5149100000000 1.0
C      1  0.4969550000000  0.4780140000000  0.4411960000000 1.0
C      1  0.4856560000000  0.5892240000000  0.4934460000000 1.0
C      1  0.4793880000000  0.5353160000000  0.5033460000000 1.0
C      1  0.5621330000000  0.5779660000000  0.4390420000000 1.0
C      1  0.5231880000000  0.5552350000000  0.5068010000000 1.0
C      1  0.4388570000000  0.5329510000000  0.6153360000000 1.0
C      1  0.5737570000000  0.5285570000000  0.3881190000000 1.0
C      1  0.4896440000000  0.5522310000000  0.4028030000000 1.0
C      1  0.5586820000000  0.4152260000000  0.4707990000000 1.0
C      1  0.5978850000000  0.5084870000000  0.5385920000000 1.0
C      1  0.4607110000000  0.4911380000000  0.4699450000000 1.0
C      1  0.4511850000000  0.5315900000000  0.5007180000000 1.0
C      1  0.4982110000000  0.5373590000000  0.5484460000000 1.0
C      1  0.4908170000000  0.4438610000000  0.5996760000000 1.0
C      1  0.5891270000000  0.5352480000000  0.5350460000000 1.0
C      1  0.3930930000000  0.4505420000000  0.4429340000000 1.0
C      1  0.5754980000000  0.4937240000000  0.4483530000000 1.0
C      1  0.5321010000000  0.4368760000000  0.4276070000000 1.0
C      1  0.4549530000000  0.5608590000000  0.5792760000000 1.0
C      1  0.3934750000000  0.4530900000000  0.4702710000000 1.0
C      1  0.5572960000000  0.4091760000000  0.4975700000000 1.0
C      1  0.5580340000000  0.5529750000000  0.4261370000000 1.0
C      1  0.5502860000000  0.5893050000000  0.5403130000000 1.0
C      1  0.5056360000000  0.4464560000000  0.5272860000000 1.0
C      1  0.4927870000000  0.5716300000000  0.4230610000000 1.0
C      1  0.4515900000000  0.5748900000000  0.4470340000000 1.0
C      1  0.4282710000000  0.4923150000000  0.4359990000000 1.0
C      1  0.5029160000000  0.5269680000000  0.4012070000000 1.0
C      1  0.4789760000000  0.4348850000000  0.4360470000000 1.0
C      1  0.5606040000000  0.4829050000000  0.6574630000000 1.0
C      1  0.5371290000000  0.4614240000000  0.4644360000000 1.0
C      1  0.4792250000000  0.5982460000000  0.5605860000000 1.0
C      1  0.5118080000000  0.4324390000000  0.5852610000000 1.0
C      1  0.4703040000000  0.5136450000000  0.5833060000000 1.0
C      1  0.4817940000000  0.4888530000000  0.5418170000000 1.0
C      1  0.5854990000000  0.4478450000000  0.5322790000000 1.0
C      1  0.4636020000000  0.5515190000000  0.3909710000000 1.0
C      1  0.5710740000000  0.5829330000000  0.4660660000000 1.0
C      1  0.5608620000000  0.5329300000000  0.4813760000000 1.0
C      1  0.5136480000000  0.4748100000000  0.4631120000000 1.0
C      1  0.4624470000000  0.3996830000000  0.5583810000000 1.0
C      1  0.5031360000000  0.3949200000000  0.4790440000000 1.0
C      1  0.4889280000000  0.5986620000000  0.4653460000000 1.0
C      1  0.6402690000000  0.5968720000000  0.5396860000000 1.0
C      1  0.4914200000000  0.4211110000000  0.5250050000000 1.0
C      1  0.4197520000000  0.5377050000000  0.4097050000000 1.0
C      1  0.3839820000000  0.4732620000000  0.5127250000000 1.0
C      1  0.4799620000000  0.4357760000000  0.4654050000000 1.0
C      1  0.5710360000000  0.5143330000000  0.4649480000000 1.0
C      1  0.4840430000000  0.5038000000000  0.4018950000000 1.0
C      1  0.4473330000000  0.5657530000000  0.5517380000000 1.0
C      1  0.5262740000000  0.5832410000000  0.5545400000000 1.0
C      1  0.4633620000000  0.4852800000000  0.5171030000000 1.0
C      1  0.5303930000000  0.5162410000000  0.4044460000000 1.0
C      1  0.5461890000000  0.4683130000000  0.5109140000000 1.0
C      1  0.4372590000000  0.5520040000000  0.4860430000000 1.0
C      1  0.5537910000000  0.5325910000000  0.4066280000000 1.0
C      1  0.4555490000000  0.5047960000000  0.3989440000000 1.0
C      1  0.4241930000000  0.4270910000000  0.5314360000000 1.0
C      1  0.5647450000000  0.4879260000000  0.6322200000000 1.0
C      1  0.4551280000000  0.4572500000000  0.6287310000000 1.0
C      1  0.4199140000000  0.5416300000000  0.4378250000000 1.0
C      1  0.4686450000000  0.4435770000000  0.4890670000000 1.0
C      1  0.4597970000000  0.3799840000000  0.5779840000000 1.0
C      1  0.5614150000000  0.5357830000000  0.5299230000000 1.0
C      1  0.5747310000000  0.4688400000000  0.5165310000000 1.0
C      1  0.5916530000000  0.4913390000000  0.5168610000000 1.0
C      1  0.4933490000000  0.4042800000000  0.5022090000000 1.0
C      1  0.4829340000000  0.5140770000000  0.5576970000000 1.0
C      1  0.5799840000000  0.4375540000000  0.5564550000000 1.0
C      1  0.5443250000000  0.5152540000000  0.5416860000000 1.0
C      1  0.5454040000000  0.4957430000000  0.5626010000000 1.0
C      1  0.4396380000000  0.4489880000000  0.4536310000000 1.0
C      1  0.4395460000000  0.4778640000000  0.4575520000000 1.0
C      1  0.5128960000000  0.5806190000000  0.4996910000000 1.0
C      1  0.5180450000000  0.3990930000000  0.4569610000000 1.0
C      1  0.5035660000000  0.4336180000000  0.4217540000000 1.0
C      1  0.5061900000000  0.4863310000000  0.4870780000000 1.0
C      1  0.4790730000000  0.4907170000000  0.4913770000000 1.0
C      1  0.5436690000000  0.4179000000000  0.5210630000000 1.0
C      1  0.6235950000000  0.5768780000000  0.5383440000000 1.0
C      1  0.4706750000000  0.5846190000000  0.5850160000000 1.0
C      1  0.5491140000000  0.6004880000000  0.4275010000000 1.0
C      1  0.5683640000000  0.4737930000000  0.4316190000000 1.0
C      1  0.4444680000000  0.5314680000000  0.3967070000000 1.0
C      1  0.4242560000000  0.5294710000000  0.6366400000000 1.0
C      1  0.4304600000000  0.4254710000000  0.4663190000000 1.0
C      1  0.4013260000000  0.4575670000000  0.4979220000000 1.0
C      1  0.4060760000000  0.4496220000000  0.4185260000000 1.0
C      1  0.5153300000000  0.5571550000000  0.5602540000000 1.0
C      1  0.5545800000000  0.4314620000000  0.5662420000000 1.0
C      1  0.5029500000000  0.4692950000000  0.5455800000000 1.0
C      1  0.4548130000000  0.5359820000000  0.5925430000000 1.0
C      1  0.4527160000000  0.4429490000000  0.4273200000000 1.0
C      1  0.5446260000000  0.4638550000000  0.4190020000000 1.0
C      1  0.4336090000000  0.4561340000000  0.4096140000000 1.0
C      1  0.4778590000000  0.5836980000000  0.4439520000000 1.0
C      1  0.4629670000000  0.5871600000000  0.5387970000000 1.0
C      1  0.4247700000000  0.4006250000000  0.4720020000000 1.0
C      1  0.5283180000000  0.4860700000000  0.4079150000000 1.0
C      1  0.4379430000000  0.4851700000000  0.4095650000000 1.0
C      1  0.5344660000000  0.4491830000000  0.5775770000000 1.0
C      1  0.5322530000000  0.4441600000000  0.5169770000000 1.0
C      1  0.5396510000000  0.4168830000000  0.4490470000000 1.0
C      1  0.4882590000000  0.4080150000000  0.5500060000000 1.0
C      1  0.4581320000000  0.3621720000000  0.5969340000000 1.0
C      1  0.5273740000000  0.4895320000000  0.5051300000000 1.0
C      1  0.6060220000000  0.5571210000000  0.5366700000000 1.0
C      1  0.4392100000000  0.5773920000000  0.4989120000000 1.0
C      1  0.4393420000000  0.4112910000000  0.5469120000000 1.0
C      1  0.4729660000000  0.4636620000000  0.6089270000000 1.0
C      1  0.5266740000000  0.4734210000000  0.5635240000000 1.0
C      1  0.4998950000000  0.4834650000000  0.4141650000000 1.0
C      1  0.3740930000000  0.5412470000000  0.3812440000000 1.0
C      1  0.5292050000000  0.6150250000000  0.4385220000000 1.0
C      1  0.5580740000000  0.5941190000000  0.4890880000000 1.0
C      1  0.3961370000000  0.5398860000000  0.3950760000000 1.0
C      1  0.5304100000000  0.5982890000000  0.4846800000000 1.0
C      1  0.4250080000000  0.4480330000000  0.5123680000000 1.0
C      1  0.5391460000000  0.4117150000000  0.5499810000000 1.0
C      1  0.5638900000000  0.5939670000000  0.5171160000000 1.0
C      1  0.5066190000000  0.6035610000000  0.5574520000000 1.0
C      1  0.4517860000000  0.4578470000000  0.5083580000000 1.0
C      1  0.5124040000000  0.4107180000000  0.5651420000000 1.0
END
