TITL C-612607-4507-479 -3.6090587759366e-05 125000 -754.519573442868 0 0 123 (C1) n - 1
REM
REM in /home/nfs/bkarasulu/CARBON/AIRSS/Generating-Clusters/TERSOFF/Only-C1/FIRE-HFTN
REM
REM
REM
REM
REM
REM ./C.cell (11c1c37f851c82e70ff6c80c92926a4b)
REM AIRSS Version 0.9.1 bugfix July 2018 build 013d7b7c2542+ Fri, 06 Jul 2018 19:26:36 +0100
REM compiler GCC version 9.2.1 20190827 (Red Hat 9.2.1-1)
REM options -cpp -mtune=generic -march=x86-64 -g -O0 -fpre-include=/usr/include/finclude/math-vector-fortran.h
REM seed -1098837004 100335085 243470447 2108901612 -1494072826 1622618960 904857193 -305804028 1029458005 1869968484 -1540889972 -1333997195 -1501506821 1173115315 351573111 -1858473370 -56759352 1813782270 1711742165 2110797310 -698288234 -577470964 -989953223 -1734844962 -469514977 -685126246 -1851865443 -1924765383 569305569 -1167751252 -1526777552 832688765 654954583
REM
CELL 1.54180   50.00000   50.00000   50.00000   90.00000   90.00000   90.00000
LATT -1
SFAC C  
C      1  0.5354530000000  0.4440060000000  0.5888140000000 1.0
C      1  0.4032390000000  0.5853690000000  0.5172750000000 1.0
C      1  0.4461040000000  0.5199490000000  0.5788360000000 1.0
C      1  0.4548680000000  0.4313560000000  0.5673050000000 1.0
C      1  0.4599450000000  0.5534500000000  0.6134310000000 1.0
C      1  0.5294390000000  0.5092840000000  0.5655100000000 1.0
C      1  0.5530810000000  0.3820290000000  0.5110760000000 1.0
C      1  0.4904010000000  0.5417700000000  0.5551830000000 1.0
C      1  0.4600640000000  0.5148300000000  0.4863190000000 1.0
C      1  0.5236180000000  0.5452610000000  0.5106810000000 1.0
C      1  0.5253180000000  0.3657530000000  0.4733650000000 1.0
C      1  0.4879730000000  0.4599800000000  0.5928710000000 1.0
C      1  0.5114380000000  0.5785050000000  0.4239480000000 1.0
C      1  0.5224980000000  0.4542460000000  0.4805420000000 1.0
C      1  0.5042150000000  0.3816360000000  0.4686510000000 1.0
C      1  0.5515480000000  0.5671330000000  0.5431490000000 1.0
C      1  0.4211060000000  0.5737390000000  0.5340350000000 1.0
C      1  0.5907960000000  0.4593050000000  0.4127850000000 1.0
C      1  0.4755450000000  0.5540910000000  0.3998760000000 1.0
C      1  0.5033740000000  0.4593730000000  0.5468510000000 1.0
C      1  0.5259000000000  0.5827480000000  0.4484810000000 1.0
C      1  0.4896120000000  0.5071500000000  0.4499710000000 1.0
C      1  0.4925140000000  0.4799530000000  0.4571090000000 1.0
C      1  0.4124100000000  0.4873770000000  0.4532320000000 1.0
C      1  0.4526830000000  0.5352510000000  0.4370090000000 1.0
C      1  0.6102450000000  0.4728500000000  0.4270090000000 1.0
C      1  0.4895630000000  0.4813270000000  0.5380490000000 1.0
C      1  0.5666080000000  0.4548950000000  0.4290540000000 1.0
C      1  0.5212100000000  0.3858710000000  0.5470590000000 1.0
C      1  0.5223600000000  0.4496350000000  0.5281760000000 1.0
C      1  0.5963730000000  0.5028330000000  0.4670750000000 1.0
C      1  0.5167770000000  0.4653750000000  0.5920670000000 1.0
C      1  0.5528640000000  0.5136810000000  0.4517630000000 1.0
C      1  0.5890950000000  0.5038340000000  0.4953930000000 1.0
C      1  0.3895110000000  0.5698220000000  0.4998000000000 1.0
C      1  0.4723680000000  0.4841300000000  0.5943030000000 1.0
C      1  0.5328250000000  0.5340870000000  0.4519780000000 1.0
C      1  0.4301060000000  0.4755170000000  0.4001750000000 1.0
C      1  0.5282270000000  0.5411920000000  0.3964820000000 1.0
C      1  0.5682600000000  0.5613470000000  0.4690310000000 1.0
C      1  0.4557820000000  0.4823610000000  0.3911840000000 1.0
C      1  0.4724510000000  0.4181120000000  0.4825090000000 1.0
C      1  0.4642250000000  0.4440740000000  0.4912070000000 1.0
C      1  0.5747290000000  0.5527480000000  0.4955450000000 1.0
C      1  0.4770510000000  0.5889570000000  0.5383250000000 1.0
C      1  0.5373140000000  0.4261160000000  0.5276830000000 1.0
C      1  0.5806940000000  0.5202550000000  0.4510930000000 1.0
C      1  0.5785970000000  0.5268420000000  0.5385800000000 1.0
C      1  0.5035390000000  0.4963600000000  0.4002940000000 1.0
C      1  0.4662140000000  0.5629490000000  0.4439140000000 1.0
C      1  0.4329200000000  0.5128960000000  0.4948100000000 1.0
C      1  0.4175480000000  0.4943930000000  0.4798070000000 1.0
C      1  0.5196040000000  0.4720390000000  0.4595720000000 1.0
C      1  0.5201980000000  0.4728430000000  0.4038180000000 1.0
C      1  0.5860700000000  0.5013320000000  0.5480690000000 1.0
C      1  0.4120360000000  0.5078120000000  0.4325640000000 1.0
C      1  0.4262360000000  0.5456880000000  0.5342880000000 1.0
C      1  0.4835900000000  0.5714120000000  0.4220640000000 1.0
C      1  0.4649910000000  0.5180020000000  0.4581640000000 1.0
C      1  0.5335210000000  0.5698710000000  0.5217670000000 1.0
C      1  0.5157990000000  0.5200300000000  0.4102590000000 1.0
C      1  0.4643620000000  0.6117100000000  0.5461980000000 1.0
C      1  0.5814470000000  0.4775520000000  0.5067160000000 1.0
C      1  0.4699010000000  0.5692950000000  0.4710110000000 1.0
C      1  0.5618730000000  0.5436740000000  0.5554320000000 1.0
C      1  0.5265090000000  0.6090500000000  0.4914880000000 1.0
C      1  0.5185350000000  0.4270090000000  0.4758590000000 1.0
C      1  0.4833560000000  0.5097380000000  0.6065090000000 1.0
C      1  0.5322210000000  0.5353480000000  0.6025490000000 1.0
C      1  0.5410910000000  0.5605750000000  0.4585920000000 1.0
C      1  0.5232900000000  0.4923900000000  0.5881640000000 1.0
C      1  0.5781070000000  0.4589670000000  0.4578620000000 1.0
C      1  0.5070930000000  0.5210510000000  0.5527340000000 1.0
C      1  0.4828090000000  0.5646910000000  0.4954970000000 1.0
C      1  0.5414450000000  0.4883950000000  0.4537490000000 1.0
C      1  0.4784010000000  0.4337230000000  0.5837520000000 1.0
C      1  0.5235480000000  0.4184690000000  0.5915100000000 1.0
C      1  0.3732080000000  0.5251680000000  0.4898370000000 1.0
C      1  0.4128180000000  0.4975990000000  0.4059060000000 1.0
C      1  0.5121020000000  0.5129700000000  0.6065550000000 1.0
C      1  0.4597730000000  0.4246780000000  0.5391940000000 1.0
C      1  0.4980910000000  0.4126720000000  0.5804120000000 1.0
C      1  0.5593550000000  0.4476630000000  0.5744090000000 1.0
C      1  0.4747560000000  0.5018690000000  0.3983350000000 1.0
C      1  0.4802640000000  0.5664090000000  0.5547310000000 1.0
C      1  0.4330380000000  0.4484060000000  0.5717590000000 1.0
C      1  0.4650150000000  0.5281080000000  0.4084320000000 1.0
C      1  0.4725240000000  0.4649080000000  0.4724860000000 1.0
C      1  0.5460470000000  0.5313370000000  0.5761350000000 1.0
C      1  0.5857810000000  0.5480230000000  0.4506760000000 1.0
C      1  0.4850610000000  0.5141180000000  0.5012010000000 1.0
C      1  0.4162420000000  0.4607870000000  0.4436450000000 1.0
C      1  0.5270160000000  0.5676050000000  0.4025470000000 1.0
C      1  0.4973860000000  0.5400550000000  0.5015950000000 1.0
C      1  0.5175960000000  0.4669800000000  0.5051530000000 1.0
C      1  0.4073520000000  0.5562630000000  0.4387230000000 1.0
C      1  0.5735220000000  0.4557900000000  0.5531450000000 1.0
C      1  0.4978840000000  0.4897630000000  0.5115170000000 1.0
C      1  0.4970380000000  0.3963460000000  0.5566930000000 1.0
C      1  0.4418930000000  0.4692120000000  0.5309150000000 1.0
C      1  0.4899740000000  0.5863360000000  0.5132600000000 1.0
C      1  0.5257680000000  0.6055950000000  0.4647890000000 1.0
C      1  0.4369770000000  0.4735730000000  0.5591270000000 1.0
C      1  0.4502980000000  0.4917410000000  0.5762850000000 1.0
C      1  0.5465170000000  0.3671680000000  0.4897500000000 1.0
C      1  0.4543790000000  0.4457920000000  0.5189340000000 1.0
C      1  0.5413660000000  0.4595780000000  0.4154270000000 1.0
C      1  0.4630670000000  0.5298560000000  0.6002640000000 1.0
C      1  0.4975780000000  0.4081280000000  0.4746510000000 1.0
C      1  0.5102440000000  0.5237280000000  0.4383790000000 1.0
C      1  0.5742970000000  0.4580400000000  0.4865670000000 1.0
C      1  0.4228390000000  0.5338460000000  0.4367140000000 1.0
C      1  0.5814020000000  0.4761950000000  0.5355520000000 1.0
C      1  0.5182500000000  0.5923030000000  0.5124760000000 1.0
C      1  0.5397690000000  0.3981280000000  0.5297190000000 1.0
C      1  0.5367240000000  0.5557250000000  0.6199210000000 1.0
C      1  0.4257440000000  0.4544870000000  0.4188570000000 1.0
C      1  0.6014340000000  0.4780040000000  0.4538790000000 1.0
C      1  0.4332400000000  0.5336840000000  0.5584390000000 1.0
C      1  0.4765780000000  0.4020740000000  0.5377210000000 1.0
C      1  0.3931450000000  0.5416530000000  0.4985890000000 1.0
C      1  0.5818390000000  0.5289560000000  0.5097190000000 1.0
C      1  0.4181810000000  0.5320100000000  0.5101160000000 1.0
END
