TITL C-612601-4209-1476 254999.912823101 125000 -1207.98568248548 0 0 199 (C1) n - 1
REM
REM in /home/nfs/bkarasulu/CARBON/AIRSS/Generating-Clusters/TERSOFF/Only-C1/FIRE-HFTN
REM
REM
REM
REM
REM
REM ./C.cell (11c1c37f851c82e70ff6c80c92926a4b)
REM AIRSS Version 0.9.1 bugfix July 2018 build 013d7b7c2542+ Fri, 06 Jul 2018 19:26:36 +0100
REM compiler GCC version 9.2.1 20190827 (Red Hat 9.2.1-1)
REM options -cpp -mtune=generic -march=x86-64 -g -O0 -fpre-include=/usr/include/finclude/math-vector-fortran.h
REM seed 790836775 -2011353245 809446789 945384102 -1205382670 -456785241 1691659804 -1816432751 586583025 -1920070943 857245354 1032575067 893463279 -370159830 -1943963032 855117360 -721820375 1623510952 -1742360325 2042787628 224605644 641552032 1209900774 -187162992 -1755173114 -856049675 415596149 -1737062558 -662957624 2001260883 -523875127 -1900202062 639812118
REM
CELL 1.54180   50.00000   50.00000   50.00000   90.00000   90.00000   90.00000
LATT -1
SFAC C  
C      1  0.5402750000000  0.4191430000000  0.5660160000000 1.0
C      1  0.4983410000000  0.4375560000000  0.4148170000000 1.0
C      1  0.4651630000000  0.4988780000000  0.5174220000000 1.0
C      1  0.4417040000000  0.4538400000000  0.5467910000000 1.0
C      1  0.5190380000000  0.5107240000000  0.6217460000000 1.0
C      1  0.4940180000000  0.5753050000000  0.4847330000000 1.0
C      1  0.5918660000000  0.4476180000000  0.5421390000000 1.0
C      1  0.5802660000000  0.5874430000000  0.5186780000000 1.0
C      1  0.3872460000000  0.5486300000000  0.4715310000000 1.0
C      1  0.5737210000000  0.5071830000000  0.5776250000000 1.0
C      1  0.5189940000000  0.4191770000000  0.5242870000000 1.0
C      1  0.4249170000000  0.5322970000000  0.4994980000000 1.0
C      1  0.5076230000000  0.4788810000000  0.5644270000000 1.0
C      1  0.5814260000000  0.4391370000000  0.4271980000000 1.0
C      1  0.5026880000000  0.5571880000000  0.4114710000000 1.0
C      1  0.3702710000000  0.4819910000000  0.3888880000000 1.0
C      1  0.4527460000000  0.4968120000000  0.4419050000000 1.0
C      1  0.4730990000000  0.5484240000000  0.5274810000000 1.0
C      1  0.5770540000000  0.4705510000000  0.4986950000000 1.0
C      1  0.4620130000000  0.4165600000000  0.5644430000000 1.0
C      1  0.4351590000000  0.5110830000000  0.6258880000000 1.0
C      1  0.5305840000000  0.5377430000000  0.6169420000000 1.0
C      1  0.4641120000000  0.5110680000000  0.3836820000000 1.0
C      1  0.5141090000000  0.4425180000000  0.5088100000000 1.0
C      1  0.5095830000000  0.6105280000000  0.5742970000000 1.0
C      1  0.4103910000000  0.5087630000000  0.4978060000000 1.0
C      1  0.5911970000000  0.6365060000000  0.5194920000000 1.0
C      1  0.4151200000000  0.5196320000000  0.6062810000000 1.0
C      1  0.4427720000000  0.4822320000000  0.5828800000000 1.0
C      1  0.4963900000000  0.6332540000000  0.5065380000000 1.0
C      1  0.5398530000000  0.4912130000000  0.6146590000000 1.0
C      1  0.3868860000000  0.5178480000000  0.5975060000000 1.0
C      1  0.4597760000000  0.4271920000000  0.5122530000000 1.0
C      1  0.4225060000000  0.4714520000000  0.5627510000000 1.0
C      1  0.4772920000000  0.5241980000000  0.5141630000000 1.0
C      1  0.4545900000000  0.4729260000000  0.6071160000000 1.0
C      1  0.4143250000000  0.4769860000000  0.4176040000000 1.0
C      1  0.5182810000000  0.6072390000000  0.4423370000000 1.0
C      1  0.4747120000000  0.5607440000000  0.4146990000000 1.0
C      1  0.5143860000000  0.4190530000000  0.5526270000000 1.0
C      1  0.4730160000000  0.4601970000000  0.3783280000000 1.0
C      1  0.4955390000000  0.4607780000000  0.4584550000000 1.0
C      1  0.5248330000000  0.5565750000000  0.4333600000000 1.0
C      1  0.5819800000000  0.5336950000000  0.4676950000000 1.0
C      1  0.4674230000000  0.4896010000000  0.5437540000000 1.0
C      1  0.4904190000000  0.3913000000000  0.4906480000000 1.0
C      1  0.5014800000000  0.4977220000000  0.4080980000000 1.0
C      1  0.5943940000000  0.4928150000000  0.5595920000000 1.0
C      1  0.4853240000000  0.4158870000000  0.4279400000000 1.0
C      1  0.4739890000000  0.5453680000000  0.5867180000000 1.0
C      1  0.6287390000000  0.4877890000000  0.4715220000000 1.0
C      1  0.4973620000000  0.3682210000000  0.5046160000000 1.0
C      1  0.4498080000000  0.5979760000000  0.4557670000000 1.0
C      1  0.3933410000000  0.4800050000000  0.4017500000000 1.0
C      1  0.3232610000000  0.4723110000000  0.3936810000000 1.0
C      1  0.5194860000000  0.5548600000000  0.5969160000000 1.0
C      1  0.5063880000000  0.5076250000000  0.5716130000000 1.0
C      1  0.5228570000000  0.6256280000000  0.4632580000000 1.0
C      1  0.4736210000000  0.5046460000000  0.4595280000000 1.0
C      1  0.4571960000000  0.4197580000000  0.4318140000000 1.0
C      1  0.4169010000000  0.5521920000000  0.5457910000000 1.0
C      1  0.5790360000000  0.4856240000000  0.4214050000000 1.0
C      1  0.5829260000000  0.5837200000000  0.4880330000000 1.0
C      1  0.4682140000000  0.5975540000000  0.5319100000000 1.0
C      1  0.4471490000000  0.5520930000000  0.5813870000000 1.0
C      1  0.5482780000000  0.5392460000000  0.4211880000000 1.0
C      1  0.5465910000000  0.5346060000000  0.5015740000000 1.0
C      1  0.4477240000000  0.4461840000000  0.4354510000000 1.0
C      1  0.5468300000000  0.4760510000000  0.4916630000000 1.0
C      1  0.3443320000000  0.4826320000000  0.3784610000000 1.0
C      1  0.4062040000000  0.4967240000000  0.4725800000000 1.0
C      1  0.4278300000000  0.5308630000000  0.5835290000000 1.0
C      1  0.5520890000000  0.6213560000000  0.5442460000000 1.0
C      1  0.3714690000000  0.5224510000000  0.5746800000000 1.0
C      1  0.6265080000000  0.4364900000000  0.4835450000000 1.0
C      1  0.4609480000000  0.4261390000000  0.5897490000000 1.0
C      1  0.6182430000000  0.5535790000000  0.5347480000000 1.0
C      1  0.5722050000000  0.5229490000000  0.4932660000000 1.0
C      1  0.4398140000000  0.3986960000000  0.4307550000000 1.0
C      1  0.5127850000000  0.4398210000000  0.6239480000000 1.0
C      1  0.5437020000000  0.4349440000000  0.4660170000000 1.0
C      1  0.5906560000000  0.4642950000000  0.5644420000000 1.0
C      1  0.4935910000000  0.5925220000000  0.5864190000000 1.0
C      1  0.3904920000000  0.5915990000000  0.5338480000000 1.0
C      1  0.5099980000000  0.3989360000000  0.4697350000000 1.0
C      1  0.4612980000000  0.5714250000000  0.5385760000000 1.0
C      1  0.3976690000000  0.4538370000000  0.5579910000000 1.0
C      1  0.5472840000000  0.5673330000000  0.5548120000000 1.0
C      1  0.5452980000000  0.5053000000000  0.3809730000000 1.0
C      1  0.4882120000000  0.5309300000000  0.4671270000000 1.0
C      1  0.4934400000000  0.5651730000000  0.5938850000000 1.0
C      1  0.5828090000000  0.4203790000000  0.5005770000000 1.0
C      1  0.4074110000000  0.5500460000000  0.4524860000000 1.0
C      1  0.5454330000000  0.4455030000000  0.5790310000000 1.0
C      1  0.5595550000000  0.5386260000000  0.6159840000000 1.0
C      1  0.4642690000000  0.4025860000000  0.4984400000000 1.0
C      1  0.5250440000000  0.5164770000000  0.5056170000000 1.0
C      1  0.4863860000000  0.4419530000000  0.6268680000000 1.0
C      1  0.5768640000000  0.5304410000000  0.5962860000000 1.0
C      1  0.5556700000000  0.5726110000000  0.5284170000000 1.0
C      1  0.5563660000000  0.4022360000000  0.5487560000000 1.0
C      1  0.4381710000000  0.3636880000000  0.4831090000000 1.0
C      1  0.4932160000000  0.6100120000000  0.4301190000000 1.0
C      1  0.6215400000000  0.3638170000000  0.4773290000000 1.0
C      1  0.5378260000000  0.4801640000000  0.3740300000000 1.0
C      1  0.4403440000000  0.5655810000000  0.5564520000000 1.0
C      1  0.5382630000000  0.5291700000000  0.3948990000000 1.0
C      1  0.4796880000000  0.6192850000000  0.5218130000000 1.0
C      1  0.5745540000000  0.6163040000000  0.5274650000000 1.0
C      1  0.4758720000000  0.5585450000000  0.4703150000000 1.0
C      1  0.5513790000000  0.5095180000000  0.5571610000000 1.0
C      1  0.4605630000000  0.5001900000000  0.5687260000000 1.0
C      1  0.5575890000000  0.4050870000000  0.4976460000000 1.0
C      1  0.5630050000000  0.4853900000000  0.5980510000000 1.0
C      1  0.5330380000000  0.4670790000000  0.5600540000000 1.0
C      1  0.4729140000000  0.4737110000000  0.4996820000000 1.0
C      1  0.6042920000000  0.5330520000000  0.4115750000000 1.0
C      1  0.6084960000000  0.4148840000000  0.4887340000000 1.0
C      1  0.5637120000000  0.5899050000000  0.4440700000000 1.0
C      1  0.5852920000000  0.4996860000000  0.5083940000000 1.0
C      1  0.4806860000000  0.5183440000000  0.5782960000000 1.0
C      1  0.4676030000000  0.6100810000000  0.4377280000000 1.0
C      1  0.3396130000000  0.4932230000000  0.3536880000000 1.0
C      1  0.5820360000000  0.4456350000000  0.5160360000000 1.0
C      1  0.4972270000000  0.4479430000000  0.3875310000000 1.0
C      1  0.4900400000000  0.5043060000000  0.6269410000000 1.0
C      1  0.5142430000000  0.5350010000000  0.4529130000000 1.0
C      1  0.5008170000000  0.3961990000000  0.4421790000000 1.0
C      1  0.4944860000000  0.4608450000000  0.5181920000000 1.0
C      1  0.4342950000000  0.5539940000000  0.4416320000000 1.0
C      1  0.6002950000000  0.3741070000000  0.5611750000000 1.0
C      1  0.5403110000000  0.5614170000000  0.5075310000000 1.0
C      1  0.5213870000000  0.4586840000000  0.3760780000000 1.0
C      1  0.5449120000000  0.4862990000000  0.5412350000000 1.0
C      1  0.5875870000000  0.5726880000000  0.4405150000000 1.0
C      1  0.3943180000000  0.5646390000000  0.5348060000000 1.0
C      1  0.5068950000000  0.4572280000000  0.4334070000000 1.0
C      1  0.4013560000000  0.4162030000000  0.5228840000000 1.0
C      1  0.5285790000000  0.5239020000000  0.5642280000000 1.0
C      1  0.4166360000000  0.3980500000000  0.5100230000000 1.0
C      1  0.6170990000000  0.5269970000000  0.5338150000000 1.0
C      1  0.3973420000000  0.4432140000000  0.5306050000000 1.0
C      1  0.4396010000000  0.3873580000000  0.4967260000000 1.0
C      1  0.5590860000000  0.4770490000000  0.4419470000000 1.0
C      1  0.5454280000000  0.4901410000000  0.4636530000000 1.0
C      1  0.5907970000000  0.5619190000000  0.4688440000000 1.0
C      1  0.5690130000000  0.6020130000000  0.4702280000000 1.0
C      1  0.5311700000000  0.5130040000000  0.4577390000000 1.0
C      1  0.5319170000000  0.5508000000000  0.5714150000000 1.0
C      1  0.6048550000000  0.5763300000000  0.5311290000000 1.0
C      1  0.5321940000000  0.4505250000000  0.4879770000000 1.0
C      1  0.6333630000000  0.4619250000000  0.4776440000000 1.0
C      1  0.3744220000000  0.5449580000000  0.4959590000000 1.0
C      1  0.5304040000000  0.6195870000000  0.5599620000000 1.0
C      1  0.4070350000000  0.4629810000000  0.5119030000000 1.0
C      1  0.5713250000000  0.4598890000000  0.5854180000000 1.0
C      1  0.5387330000000  0.4075960000000  0.4743410000000 1.0
C      1  0.6157880000000  0.3886960000000  0.4825290000000 1.0
C      1  0.6000950000000  0.5045230000000  0.5334910000000 1.0
C      1  0.5439540000000  0.4035420000000  0.5223900000000 1.0
C      1  0.4600330000000  0.4839100000000  0.3759620000000 1.0
C      1  0.5102390000000  0.5380640000000  0.3910700000000 1.0
C      1  0.4522880000000  0.5695710000000  0.4584340000000 1.0
C      1  0.5074460000000  0.3730190000000  0.4288680000000 1.0
C      1  0.5669920000000  0.4486200000000  0.4517010000000 1.0
C      1  0.4832160000000  0.4810440000000  0.4731950000000 1.0
C      1  0.4915170000000  0.5164390000000  0.3899130000000 1.0
C      1  0.5132750000000  0.6355180000000  0.4860810000000 1.0
C      1  0.4197080000000  0.4725500000000  0.4663130000000 1.0
C      1  0.5783100000000  0.3871430000000  0.5560990000000 1.0
C      1  0.4171200000000  0.5247780000000  0.5568850000000 1.0
C      1  0.5353780000000  0.4914900000000  0.5144840000000 1.0
C      1  0.5865080000000  0.4586610000000  0.4723790000000 1.0
C      1  0.4071150000000  0.4911240000000  0.5197050000000 1.0
C      1  0.5872580000000  0.5125330000000  0.4222330000000 1.0
C      1  0.3041410000000  0.4625230000000  0.4084400000000 1.0
C      1  0.4451600000000  0.5278220000000  0.3969480000000 1.0
C      1  0.4255270000000  0.4574620000000  0.4899980000000 1.0
C      1  0.3658710000000  0.5297110000000  0.5483760000000 1.0
C      1  0.6159440000000  0.5102260000000  0.4670750000000 1.0
C      1  0.4486480000000  0.5479790000000  0.4167290000000 1.0
C      1  0.4523950000000  0.4512070000000  0.4976130000000 1.0
C      1  0.4649910000000  0.4464300000000  0.6092420000000 1.0
C      1  0.6016220000000  0.5592780000000  0.4196210000000 1.0
C      1  0.4891760000000  0.4712990000000  0.5447390000000 1.0
C      1  0.4338120000000  0.4724170000000  0.4395550000000 1.0
C      1  0.5695500000000  0.5283050000000  0.4396470000000 1.0
C      1  0.4140320000000  0.4977670000000  0.5467770000000 1.0
C      1  0.5158100000000  0.4805710000000  0.4217860000000 1.0
C      1  0.5322210000000  0.4418360000000  0.6060170000000 1.0
C      1  0.4988570000000  0.5236450000000  0.4962720000000 1.0
C      1  0.5179610000000  0.5746000000000  0.4968300000000 1.0
C      1  0.5893030000000  0.4606310000000  0.4113440000000 1.0
C      1  0.4611540000000  0.4960700000000  0.6243320000000 1.0
C      1  0.4552930000000  0.4299870000000  0.5405880000000 1.0
C      1  0.5358060000000  0.5846780000000  0.4388040000000 1.0
C      1  0.4314330000000  0.6123560000000  0.4699040000000 1.0
C      1  0.3747240000000  0.5458350000000  0.5253130000000 1.0
C      1  0.4309940000000  0.5575990000000  0.4990030000000 1.0
END
