TITL C-612604-1799-12 1.19546791803054 125000 -907.024899511586 0 0 147 (C1) n - 1
REM
REM in /home/nfs/bkarasulu/CARBON/AIRSS/Generating-Clusters/TERSOFF/Only-C1/FIRE-HFTN
REM
REM
REM
REM
REM
REM ./C.cell (11c1c37f851c82e70ff6c80c92926a4b)
REM AIRSS Version 0.9.1 bugfix July 2018 build 013d7b7c2542+ Fri, 06 Jul 2018 19:26:36 +0100
REM compiler GCC version 9.2.1 20190827 (Red Hat 9.2.1-1)
REM options -cpp -mtune=generic -march=x86-64 -g -O0 -fpre-include=/usr/include/finclude/math-vector-fortran.h
REM seed 1661200001 -1696449343 -145826816 258781424 1650141140 833998697 -1849096335 1749458669 -1112359658 -1374609034 -808525259 -16258335 1614668575 -597558479 776479249 -15400604 -239796545 -1043157283 -671247513 -1350378958 1889881340 16368670 -111654529 1581188627 741744327 1261965871 190949126 887692707 913649136 1922890001 -240695753 -545852154 978790293
REM
CELL 1.54180   50.00000   50.00000   50.00000   90.00000   90.00000   90.00000
LATT -1
SFAC C  
C      1  0.5587200000000  0.4858060000000  0.4011050000000 1.0
C      1  0.5345130000000  0.4613730000000  0.5030160000000 1.0
C      1  0.5305870000000  0.4107110000000  0.4573530000000 1.0
C      1  0.4883750000000  0.5012700000000  0.5019700000000 1.0
C      1  0.4881530000000  0.5208890000000  0.4193520000000 1.0
C      1  0.4195300000000  0.5895300000000  0.5227380000000 1.0
C      1  0.5505280000000  0.4035060000000  0.5092530000000 1.0
C      1  0.5865230000000  0.4532380000000  0.5555220000000 1.0
C      1  0.5100880000000  0.5115810000000  0.4877950000000 1.0
C      1  0.5417550000000  0.4031990000000  0.4822000000000 1.0
C      1  0.5389490000000  0.5056800000000  0.3962800000000 1.0
C      1  0.4911750000000  0.4587930000000  0.5263030000000 1.0
C      1  0.5344210000000  0.5313720000000  0.5267170000000 1.0
C      1  0.5483470000000  0.4590940000000  0.4024370000000 1.0
C      1  0.4901760000000  0.4582710000000  0.4791480000000 1.0
C      1  0.4872740000000  0.5925950000000  0.5802620000000 1.0
C      1  0.5464610000000  0.6173630000000  0.4924130000000 1.0
C      1  0.4444790000000  0.4572920000000  0.4395100000000 1.0
C      1  0.3827660000000  0.4335840000000  0.4722570000000 1.0
C      1  0.5164120000000  0.5458500000000  0.5430070000000 1.0
C      1  0.5709330000000  0.5814890000000  0.5383980000000 1.0
C      1  0.5281100000000  0.5296270000000  0.4997270000000 1.0
C      1  0.5273490000000  0.5953210000000  0.4365740000000 1.0
C      1  0.4477220000000  0.5234030000000  0.5206910000000 1.0
C      1  0.4266610000000  0.5474620000000  0.3745410000000 1.0
C      1  0.4720550000000  0.5721460000000  0.3907210000000 1.0
C      1  0.5848260000000  0.4884980000000  0.4110990000000 1.0
C      1  0.5437570000000  0.4281960000000  0.5637850000000 1.0
C      1  0.5053270000000  0.4464680000000  0.4220500000000 1.0
C      1  0.5466150000000  0.5428870000000  0.4834610000000 1.0
C      1  0.4745920000000  0.5604930000000  0.5002290000000 1.0
C      1  0.5028300000000  0.4087410000000  0.4500510000000 1.0
C      1  0.4485660000000  0.5610280000000  0.3806760000000 1.0
C      1  0.4961610000000  0.4158620000000  0.5538790000000 1.0
C      1  0.4234740000000  0.4249740000000  0.5178080000000 1.0
C      1  0.4380960000000  0.5250020000000  0.5474900000000 1.0
C      1  0.4403490000000  0.5045280000000  0.5000440000000 1.0
C      1  0.4926420000000  0.3693850000000  0.5440550000000 1.0
C      1  0.4261680000000  0.5771810000000  0.4740270000000 1.0
C      1  0.6289510000000  0.4788880000000  0.5538090000000 1.0
C      1  0.3840660000000  0.5178390000000  0.3660510000000 1.0
C      1  0.4857190000000  0.4501250000000  0.6040710000000 1.0
C      1  0.4988230000000  0.4727260000000  0.4310260000000 1.0
C      1  0.4836070000000  0.6256400000000  0.5186250000000 1.0
C      1  0.5442250000000  0.4804630000000  0.4829830000000 1.0
C      1  0.4813550000000  0.3676130000000  0.4845380000000 1.0
C      1  0.4346850000000  0.4955950000000  0.5875110000000 1.0
C      1  0.4629080000000  0.5865080000000  0.5018180000000 1.0
C      1  0.4178170000000  0.4467350000000  0.5343230000000 1.0
C      1  0.5676150000000  0.5321210000000  0.4435330000000 1.0
C      1  0.5143350000000  0.4934680000000  0.5628080000000 1.0
C      1  0.4857510000000  0.4873710000000  0.5265370000000 1.0
C      1  0.4851990000000  0.5561980000000  0.4737510000000 1.0
C      1  0.5658630000000  0.4997880000000  0.4873990000000 1.0
C      1  0.4684670000000  0.5424820000000  0.5855540000000 1.0
C      1  0.5323530000000  0.3928960000000  0.5292090000000 1.0
C      1  0.5042630000000  0.3649300000000  0.4981240000000 1.0
C      1  0.3758980000000  0.4631730000000  0.5116170000000 1.0
C      1  0.4026840000000  0.4159920000000  0.4755160000000 1.0
C      1  0.4287460000000  0.5667920000000  0.5677170000000 1.0
C      1  0.5550410000000  0.4871770000000  0.5823940000000 1.0
C      1  0.4631060000000  0.4932740000000  0.5932260000000 1.0
C      1  0.6025130000000  0.4781000000000  0.5643380000000 1.0
C      1  0.5443010000000  0.5264520000000  0.6016920000000 1.0
C      1  0.5064910000000  0.4530770000000  0.5022970000000 1.0
C      1  0.5006380000000  0.6271300000000  0.5409790000000 1.0
C      1  0.4678470000000  0.4646050000000  0.5884770000000 1.0
C      1  0.4928760000000  0.6128200000000  0.4713450000000 1.0
C      1  0.4308390000000  0.3812390000000  0.4954940000000 1.0
C      1  0.4202030000000  0.4075580000000  0.4958730000000 1.0
C      1  0.4719260000000  0.5963470000000  0.4047190000000 1.0
C      1  0.4666310000000  0.5265880000000  0.4366890000000 1.0
C      1  0.4816600000000  0.3913290000000  0.5559030000000 1.0
C      1  0.5213950000000  0.4924010000000  0.4700360000000 1.0
C      1  0.5227580000000  0.4719400000000  0.6218760000000 1.0
C      1  0.5423890000000  0.4987150000000  0.5590550000000 1.0
C      1  0.3937010000000  0.4634220000000  0.5329060000000 1.0
C      1  0.5022760000000  0.4749750000000  0.4588580000000 1.0
C      1  0.4607960000000  0.4520010000000  0.5635780000000 1.0
C      1  0.5530500000000  0.5900500000000  0.4914190000000 1.0
C      1  0.5026350000000  0.6079750000000  0.4447210000000 1.0
C      1  0.5255490000000  0.4094380000000  0.5521790000000 1.0
C      1  0.5128500000000  0.3720790000000  0.5238740000000 1.0
C      1  0.4835770000000  0.6103380000000  0.4241160000000 1.0
C      1  0.5524930000000  0.5117930000000  0.5362060000000 1.0
C      1  0.5956980000000  0.5026430000000  0.5823120000000 1.0
C      1  0.4969680000000  0.5587210000000  0.3877350000000 1.0
C      1  0.3715600000000  0.4525610000000  0.4874770000000 1.0
C      1  0.4559920000000  0.3757480000000  0.4843970000000 1.0
C      1  0.5280050000000  0.5691850000000  0.3447720000000 1.0
C      1  0.4344700000000  0.5869700000000  0.4992230000000 1.0
C      1  0.5740070000000  0.4311990000000  0.4435510000000 1.0
C      1  0.5322940000000  0.4527180000000  0.5527010000000 1.0
C      1  0.5711880000000  0.5035830000000  0.5158440000000 1.0
C      1  0.4343400000000  0.4571720000000  0.5555050000000 1.0
C      1  0.5645520000000  0.5246820000000  0.4707780000000 1.0
C      1  0.5125950000000  0.5642720000000  0.3652040000000 1.0
C      1  0.5262010000000  0.6370330000000  0.5345000000000 1.0
C      1  0.4402820000000  0.4829820000000  0.4520520000000 1.0
C      1  0.6528440000000  0.4795610000000  0.5434300000000 1.0
C      1  0.4442970000000  0.4832450000000  0.4808750000000 1.0
C      1  0.4912670000000  0.5329330000000  0.5408160000000 1.0
C      1  0.5522360000000  0.5778960000000  0.5572880000000 1.0
C      1  0.4821400000000  0.4408930000000  0.5470780000000 1.0
C      1  0.4934140000000  0.5044060000000  0.5477330000000 1.0
C      1  0.4942030000000  0.6131140000000  0.5645020000000 1.0
C      1  0.5728040000000  0.4202620000000  0.5171830000000 1.0
C      1  0.4440370000000  0.5429310000000  0.5691160000000 1.0
C      1  0.4203190000000  0.4796890000000  0.5690660000000 1.0
C      1  0.5436120000000  0.5747050000000  0.4292120000000 1.0
C      1  0.5060360000000  0.5397950000000  0.4068620000000 1.0
C      1  0.4462690000000  0.5070380000000  0.4388660000000 1.0
C      1  0.5936910000000  0.4490270000000  0.4400480000000 1.0
C      1  0.5344110000000  0.5319860000000  0.4076580000000 1.0
C      1  0.5467100000000  0.4260400000000  0.4390500000000 1.0
C      1  0.5333640000000  0.4414350000000  0.4185770000000 1.0
C      1  0.4878490000000  0.4267680000000  0.4337170000000 1.0
C      1  0.5282120000000  0.5659330000000  0.5582720000000 1.0
C      1  0.4627230000000  0.4619490000000  0.4856340000000 1.0
C      1  0.5380900000000  0.5693230000000  0.4788460000000 1.0
C      1  0.4717790000000  0.5402460000000  0.5200250000000 1.0
C      1  0.4405980000000  0.5631200000000  0.4559890000000 1.0
C      1  0.5986960000000  0.4722530000000  0.4275290000000 1.0
C      1  0.4189990000000  0.5830110000000  0.5487010000000 1.0
C      1  0.5469310000000  0.4578470000000  0.5280920000000 1.0
C      1  0.4654420000000  0.5492510000000  0.4538600000000 1.0
C      1  0.4051390000000  0.5326470000000  0.3700880000000 1.0
C      1  0.5736930000000  0.4462750000000  0.5296220000000 1.0
C      1  0.5682520000000  0.4398530000000  0.5756750000000 1.0
C      1  0.4952970000000  0.4938420000000  0.4126260000000 1.0
C      1  0.4811510000000  0.5178840000000  0.5957620000000 1.0
C      1  0.4790890000000  0.6093720000000  0.4962630000000 1.0
C      1  0.4606800000000  0.4356700000000  0.4357450000000 1.0
C      1  0.5120970000000  0.4582290000000  0.5996470000000 1.0
C      1  0.5716160000000  0.5825780000000  0.5115860000000 1.0
C      1  0.5133980000000  0.4935350000000  0.3905360000000 1.0
C      1  0.5689090000000  0.5099140000000  0.5932360000000 1.0
C      1  0.4807880000000  0.5679160000000  0.5885030000000 1.0
C      1  0.4161740000000  0.3607750000000  0.5063610000000 1.0
C      1  0.3953920000000  0.4818710000000  0.5549450000000 1.0
C      1  0.5160570000000  0.4663450000000  0.5719320000000 1.0
C      1  0.5108760000000  0.5674070000000  0.4702090000000 1.0
C      1  0.5619070000000  0.4617920000000  0.5930780000000 1.0
C      1  0.5509950000000  0.5470360000000  0.4253620000000 1.0
C      1  0.5408350000000  0.6347700000000  0.5120650000000 1.0
C      1  0.5174740000000  0.4977430000000  0.6278310000000 1.0
C      1  0.5147200000000  0.5185730000000  0.6081420000000 1.0
END
