TITL C-612602-9376-175 -3.19980150002474e-05 125000 -334.683784764781 0 0 55 (C1) n - 1
REM
REM in /home/nfs/bkarasulu/CARBON/AIRSS/Generating-Clusters/TERSOFF/Only-C1/FIRE-HFTN
REM
REM
REM
REM
REM
REM ./C.cell (11c1c37f851c82e70ff6c80c92926a4b)
REM AIRSS Version 0.9.1 bugfix July 2018 build 013d7b7c2542+ Fri, 06 Jul 2018 19:26:36 +0100
REM compiler GCC version 9.2.1 20190827 (Red Hat 9.2.1-1)
REM options -cpp -mtune=generic -march=x86-64 -g -O0 -fpre-include=/usr/include/finclude/math-vector-fortran.h
REM seed 562452455 941175549 806316872 617712013 197009727 2133100155 678219396 11765913 1889723092 -1557734786 -469782815 -612506598 -1851319103 -2141312534 427915231 952253685 1237892610 1270116973 -694355478 1644389843 1876855008 -260322833 -817756444 760301118 -1850923664 -1630247996 1002036725 1062945041 779165928 -1436637811 -763260565 -1711683452 1811499839
REM
CELL 1.54180   50.00000   50.00000   50.00000   90.00000   90.00000   90.00000
LATT -1
SFAC C  
C      1  0.4781180000000  0.4666470000000  0.4710020000000 1.0
C      1  0.5046790000000  0.5522410000000  0.4877280000000 1.0
C      1  0.5062070000000  0.5920810000000  0.5146460000000 1.0
C      1  0.5230960000000  0.5301740000000  0.4922260000000 1.0
C      1  0.5719020000000  0.5956420000000  0.4885360000000 1.0
C      1  0.5583670000000  0.4456730000000  0.5334670000000 1.0
C      1  0.4301840000000  0.4492940000000  0.5337180000000 1.0
C      1  0.5108780000000  0.4477580000000  0.5471560000000 1.0
C      1  0.4937740000000  0.5492060000000  0.4612140000000 1.0
C      1  0.4933570000000  0.4525850000000  0.5694380000000 1.0
C      1  0.4655100000000  0.5165040000000  0.4870170000000 1.0
C      1  0.4230010000000  0.4731320000000  0.5237450000000 1.0
C      1  0.4339590000000  0.4862730000000  0.4679440000000 1.0
C      1  0.4437080000000  0.5158840000000  0.5372590000000 1.0
C      1  0.5171490000000  0.4416850000000  0.4491960000000 1.0
C      1  0.4547650000000  0.4732460000000  0.4536960000000 1.0
C      1  0.5742710000000  0.4854310000000  0.4675820000000 1.0
C      1  0.5039340000000  0.4983920000000  0.5751130000000 1.0
C      1  0.4643800000000  0.4531760000000  0.5667850000000 1.0
C      1  0.5281360000000  0.6069850000000  0.5118270000000 1.0
C      1  0.5527970000000  0.6087630000000  0.5017990000000 1.0
C      1  0.4592520000000  0.5021890000000  0.5570530000000 1.0
C      1  0.5664280000000  0.5465350000000  0.4749800000000 1.0
C      1  0.5708440000000  0.4708530000000  0.4898530000000 1.0
C      1  0.4749680000000  0.4459220000000  0.4884570000000 1.0
C      1  0.5539800000000  0.4581320000000  0.5083510000000 1.0
C      1  0.4940620000000  0.4902190000000  0.5268930000000 1.0
C      1  0.5216210000000  0.4447390000000  0.4756280000000 1.0
C      1  0.4847390000000  0.5049130000000  0.4438350000000 1.0
C      1  0.5259210000000  0.4568500000000  0.5010750000000 1.0
C      1  0.5386640000000  0.5425200000000  0.4360590000000 1.0
C      1  0.5613150000000  0.5328200000000  0.4502830000000 1.0
C      1  0.5377560000000  0.4384420000000  0.5499380000000 1.0
C      1  0.4485460000000  0.4358760000000  0.5506010000000 1.0
C      1  0.4399660000000  0.5036760000000  0.4898040000000 1.0
C      1  0.4847220000000  0.4648190000000  0.4166010000000 1.0
C      1  0.5077440000000  0.4645160000000  0.5233560000000 1.0
C      1  0.5699880000000  0.5058930000000  0.4506580000000 1.0
C      1  0.4697470000000  0.5596150000000  0.5217690000000 1.0
C      1  0.5105560000000  0.5049570000000  0.4859970000000 1.0
C      1  0.4507750000000  0.4087350000000  0.5513500000000 1.0
C      1  0.4513430000000  0.5426260000000  0.5314960000000 1.0
C      1  0.4872910000000  0.5051280000000  0.5039480000000 1.0
C      1  0.4519610000000  0.4788830000000  0.5715310000000 1.0
C      1  0.5777590000000  0.5718550000000  0.4778340000000 1.0
C      1  0.4752390000000  0.5270490000000  0.4604070000000 1.0
C      1  0.5040290000000  0.4484840000000  0.4265860000000 1.0
C      1  0.4930200000000  0.5681900000000  0.5081880000000 1.0
C      1  0.4690150000000  0.4842090000000  0.4303830000000 1.0
C      1  0.4997220000000  0.4884150000000  0.4646660000000 1.0
C      1  0.5040350000000  0.4733810000000  0.5862050000000 1.0
C      1  0.5133690000000  0.5512690000000  0.4404890000000 1.0
C      1  0.4316490000000  0.4991190000000  0.5168220000000 1.0
C      1  0.4876660000000  0.5021720000000  0.5520910000000 1.0
C      1  0.5501310000000  0.5362290000000  0.4957190000000 1.0
END
