TITL C-612603-7354-167 -0.129353984336667 125000 -137.219294142007 0 0 24 (C1) n - 1
REM
REM in /home/nfs/bkarasulu/CARBON/AIRSS/Generating-Clusters/TERSOFF/Only-C1/FIRE-HFTN
REM
REM
REM
REM
REM
REM ./C.cell (11c1c37f851c82e70ff6c80c92926a4b)
REM AIRSS Version 0.9.1 bugfix July 2018 build 013d7b7c2542+ Fri, 06 Jul 2018 19:26:36 +0100
REM compiler GCC version 9.2.1 20190827 (Red Hat 9.2.1-1)
REM options -cpp -mtune=generic -march=x86-64 -g -O0 -fpre-include=/usr/include/finclude/math-vector-fortran.h
REM seed -1096661048 627966258 -1071037925 1603185175 1918397867 -1690711009 -2110100999 1271130530 -339776096 -1842841685 -1245674710 2142555676 933768219 -1766391167 -1302288659 1878595823 -1126389265 -1023627612 2042388319 -1297616389 -1450876861 990324399 -175937446 -2086102640 115938967 -1108781279 44318971 1534528570 -284231802 1125766187 -1297758029 -710606610 -1124644278
REM
CELL 1.54180   50.00000   50.00000   50.00000   90.00000   90.00000   90.00000
LATT -1
SFAC C  
C      1  0.4969470000000  0.5103060000000  0.4979330000000 1.0
C      1  0.5655060000000  0.5774870000000  0.5573350000000 1.0
C      1  0.4607220000000  0.4583170000000  0.5102570000000 1.0
C      1  0.4100490000000  0.4950130000000  0.4771640000000 1.0
C      1  0.4848310000000  0.4652120000000  0.4322030000000 1.0
C      1  0.5045860000000  0.5174340000000  0.4718520000000 1.0
C      1  0.4431760000000  0.4655500000000  0.4566780000000 1.0
C      1  0.5201130000000  0.4721690000000  0.5165190000000 1.0
C      1  0.4678230000000  0.4528220000000  0.4508080000000 1.0
C      1  0.5624740000000  0.5339010000000  0.5687590000000 1.0
C      1  0.5076750000000  0.4493890000000  0.5097320000000 1.0
C      1  0.4696850000000  0.5049160000000  0.5031040000000 1.0
C      1  0.4993340000000  0.4877070000000  0.4312170000000 1.0
C      1  0.5366000000000  0.5776640000000  0.5160180000000 1.0
C      1  0.5735780000000  0.5583570000000  0.5757670000000 1.0
C      1  0.4517460000000  0.4833340000000  0.5001620000000 1.0
C      1  0.5483270000000  0.5654170000000  0.5371830000000 1.0
C      1  0.5062560000000  0.5082930000000  0.4468070000000 1.0
C      1  0.4823500000000  0.4436210000000  0.4989680000000 1.0
C      1  0.5168620000000  0.5001410000000  0.5157670000000 1.0
C      1  0.5321590000000  0.5171860000000  0.5315420000000 1.0
C      1  0.5463760000000  0.5368540000000  0.5447210000000 1.0
C      1  0.4339090000000  0.4818890000000  0.4778660000000 1.0
C      1  0.4789140000000  0.4370210000000  0.4716380000000 1.0
END
