TITL C-612603-7354-123 0.000417887720579238 125000 -1048.25820081472 0 0 169 (C1) n - 1
REM
REM in /home/nfs/bkarasulu/CARBON/AIRSS/Generating-Clusters/TERSOFF/Only-C1/FIRE-HFTN
REM
REM
REM
REM
REM
REM ./C.cell (11c1c37f851c82e70ff6c80c92926a4b)
REM AIRSS Version 0.9.1 bugfix July 2018 build 013d7b7c2542+ Fri, 06 Jul 2018 19:26:36 +0100
REM compiler GCC version 9.2.1 20190827 (Red Hat 9.2.1-1)
REM options -cpp -mtune=generic -march=x86-64 -g -O0 -fpre-include=/usr/include/finclude/math-vector-fortran.h
REM seed -134235908 157345430 -1385267367 531510206 -1721452926 1625688334 -646140604 -2055098353 854274506 -274460983 1189443847 935247061 -624129495 -1056921956 78005850 -570222684 633478628 2037895331 -902864838 -154683186 -32422315 1914049622 345868423 1291503138 1279707593 -135760394 573840279 -1378440506 1857763258 -392555934 395203720 -2107725818 1590068080
REM
CELL 1.54180   50.00000   50.00000   50.00000   90.00000   90.00000   90.00000
LATT -1
SFAC C  
C      1  0.5205370000000  0.4439740000000  0.5007610000000 1.0
C      1  0.6234240000000  0.4213490000000  0.4292290000000 1.0
C      1  0.4526120000000  0.4798350000000  0.4945200000000 1.0
C      1  0.5132800000000  0.4877220000000  0.3929320000000 1.0
C      1  0.4898350000000  0.5416700000000  0.6043440000000 1.0
C      1  0.5113090000000  0.4182310000000  0.4394760000000 1.0
C      1  0.3973910000000  0.4558070000000  0.5263300000000 1.0
C      1  0.4752540000000  0.4985460000000  0.4891550000000 1.0
C      1  0.5552080000000  0.3924160000000  0.4876890000000 1.0
C      1  0.5491810000000  0.4176470000000  0.4145460000000 1.0
C      1  0.5434570000000  0.3959510000000  0.4620580000000 1.0
C      1  0.6018500000000  0.5489930000000  0.5010100000000 1.0
C      1  0.4698210000000  0.5245470000000  0.4987480000000 1.0
C      1  0.3981390000000  0.5371450000000  0.4014840000000 1.0
C      1  0.5055490000000  0.5504960000000  0.5405060000000 1.0
C      1  0.4945510000000  0.4816010000000  0.5315440000000 1.0
C      1  0.4925450000000  0.6080570000000  0.4870280000000 1.0
C      1  0.4927040000000  0.3913070000000  0.5357540000000 1.0
C      1  0.4827630000000  0.5346730000000  0.5448940000000 1.0
C      1  0.4680810000000  0.4968410000000  0.3517310000000 1.0
C      1  0.4685980000000  0.4841290000000  0.5389830000000 1.0
C      1  0.5155770000000  0.4438930000000  0.4512010000000 1.0
C      1  0.5140770000000  0.5013050000000  0.5321150000000 1.0
C      1  0.4243600000000  0.4940480000000  0.5369480000000 1.0
C      1  0.5393140000000  0.5934810000000  0.6014750000000 1.0
C      1  0.3903440000000  0.5118460000000  0.5108300000000 1.0
C      1  0.5505470000000  0.5676820000000  0.4868200000000 1.0
C      1  0.4824280000000  0.4155890000000  0.5492440000000 1.0
C      1  0.4311280000000  0.4857450000000  0.4743640000000 1.0
C      1  0.4707440000000  0.4752540000000  0.3707580000000 1.0
C      1  0.5454360000000  0.4498600000000  0.5762640000000 1.0
C      1  0.4546750000000  0.5314640000000  0.4317910000000 1.0
C      1  0.4345470000000  0.5070570000000  0.5621640000000 1.0
C      1  0.6049300000000  0.5653970000000  0.4780750000000 1.0
C      1  0.4340300000000  0.5160100000000  0.4185570000000 1.0
C      1  0.3906230000000  0.4472740000000  0.5531710000000 1.0
C      1  0.5670150000000  0.4309420000000  0.3971780000000 1.0
C      1  0.4965550000000  0.4660540000000  0.3825860000000 1.0
C      1  0.4584470000000  0.4509900000000  0.4896760000000 1.0
C      1  0.5289880000000  0.4951960000000  0.5558170000000 1.0
C      1  0.4977890000000  0.4950160000000  0.4724010000000 1.0
C      1  0.5792730000000  0.5164660000000  0.5295020000000 1.0
C      1  0.3959700000000  0.5317040000000  0.5334660000000 1.0
C      1  0.4447940000000  0.4407170000000  0.4662730000000 1.0
C      1  0.4385830000000  0.5333820000000  0.5779800000000 1.0
C      1  0.5562230000000  0.3679320000000  0.4996810000000 1.0
C      1  0.5313430000000  0.4643290000000  0.5539920000000 1.0
C      1  0.5187460000000  0.5433510000000  0.6006230000000 1.0
C      1  0.5634600000000  0.4123560000000  0.5512300000000 1.0
C      1  0.5151410000000  0.6440500000000  0.5501660000000 1.0
C      1  0.4467230000000  0.4771350000000  0.3865220000000 1.0
C      1  0.5767020000000  0.4184600000000  0.5266390000000 1.0
C      1  0.5047400000000  0.4564120000000  0.5400780000000 1.0
C      1  0.4639760000000  0.5356230000000  0.5236630000000 1.0
C      1  0.4260240000000  0.5558260000000  0.5648920000000 1.0
C      1  0.4849830000000  0.4375550000000  0.5322440000000 1.0
C      1  0.4439010000000  0.5561800000000  0.5218280000000 1.0
C      1  0.5463310000000  0.6137870000000  0.4748860000000 1.0
C      1  0.4760360000000  0.4448870000000  0.5869590000000 1.0
C      1  0.5145790000000  0.3854390000000  0.5540950000000 1.0
C      1  0.5057900000000  0.6536010000000  0.5739370000000 1.0
C      1  0.5382660000000  0.5222130000000  0.5947190000000 1.0
C      1  0.4275860000000  0.4126650000000  0.5105630000000 1.0
C      1  0.4756130000000  0.5853760000000  0.4913740000000 1.0
C      1  0.5228370000000  0.5029340000000  0.4850810000000 1.0
C      1  0.5509990000000  0.4953220000000  0.4783180000000 1.0
C      1  0.5591950000000  0.4118980000000  0.4421600000000 1.0
C      1  0.5237150000000  0.5451080000000  0.5195130000000 1.0
C      1  0.5432440000000  0.5644970000000  0.5138860000000 1.0
C      1  0.4464490000000  0.5307690000000  0.4592030000000 1.0
C      1  0.5448300000000  0.6279350000000  0.4027920000000 1.0
C      1  0.5092690000000  0.6201500000000  0.5069320000000 1.0
C      1  0.5213630000000  0.5177380000000  0.5105150000000 1.0
C      1  0.5749600000000  0.4414580000000  0.4810910000000 1.0
C      1  0.4626400000000  0.4922610000000  0.5666130000000 1.0
C      1  0.5071990000000  0.5145850000000  0.3864110000000 1.0
C      1  0.4522190000000  0.6025360000000  0.5337600000000 1.0
C      1  0.3919320000000  0.5053810000000  0.5807950000000 1.0
C      1  0.5416070000000  0.6488020000000  0.5413830000000 1.0
C      1  0.4465630000000  0.4843250000000  0.5225820000000 1.0
C      1  0.5628980000000  0.5908840000000  0.4760140000000 1.0
C      1  0.5900060000000  0.5864380000000  0.4695460000000 1.0
C      1  0.4816150000000  0.3905360000000  0.5076260000000 1.0
C      1  0.6485950000000  0.4440410000000  0.4789130000000 1.0
C      1  0.4087410000000  0.4874300000000  0.5929760000000 1.0
C      1  0.5816560000000  0.4796680000000  0.5627580000000 1.0
C      1  0.5496190000000  0.5067170000000  0.6162650000000 1.0
C      1  0.5944880000000  0.4426720000000  0.5245060000000 1.0
C      1  0.5724430000000  0.4573260000000  0.3968570000000 1.0
C      1  0.4327270000000  0.4646770000000  0.4548750000000 1.0
C      1  0.4385500000000  0.5347220000000  0.3670300000000 1.0
C      1  0.6022270000000  0.4464820000000  0.4961590000000 1.0
C      1  0.4881970000000  0.5309600000000  0.3760570000000 1.0
C      1  0.4276770000000  0.5831660000000  0.5722460000000 1.0
C      1  0.4996670000000  0.4406300000000  0.3985740000000 1.0
C      1  0.4463740000000  0.4737580000000  0.4323890000000 1.0
C      1  0.5079680000000  0.4439960000000  0.4777600000000 1.0
C      1  0.4386000000000  0.4891560000000  0.4106660000000 1.0
C      1  0.4947290000000  0.4826730000000  0.4465320000000 1.0
C      1  0.5365160000000  0.6232130000000  0.4270340000000 1.0
C      1  0.4631420000000  0.5417290000000  0.4779690000000 1.0
C      1  0.5670400000000  0.4673240000000  0.5855580000000 1.0
C      1  0.4906930000000  0.3908220000000  0.4779530000000 1.0
C      1  0.4803490000000  0.5634560000000  0.4730160000000 1.0
C      1  0.6363340000000  0.4136550000000  0.4079390000000 1.0
C      1  0.5424710000000  0.4592270000000  0.5069540000000 1.0
C      1  0.4059670000000  0.5242760000000  0.4261920000000 1.0
C      1  0.4265910000000  0.5121760000000  0.4660050000000 1.0
C      1  0.5469260000000  0.5130000000000  0.5685680000000 1.0
C      1  0.6218000000000  0.4402680000000  0.4757820000000 1.0
C      1  0.5311090000000  0.4800920000000  0.4143100000000 1.0
C      1  0.4920770000000  0.4221340000000  0.5759570000000 1.0
C      1  0.4528480000000  0.4175100000000  0.4515650000000 1.0
C      1  0.6093300000000  0.4296030000000  0.4516710000000 1.0
C      1  0.6054230000000  0.5626380000000  0.5258260000000 1.0
C      1  0.5199510000000  0.4218160000000  0.4114920000000 1.0
C      1  0.5833780000000  0.5265220000000  0.5024640000000 1.0
C      1  0.5629060000000  0.4827970000000  0.6088180000000 1.0
C      1  0.4554880000000  0.5821020000000  0.5136840000000 1.0
C      1  0.4276100000000  0.5909050000000  0.5984680000000 1.0
C      1  0.3861310000000  0.5215270000000  0.5594440000000 1.0
C      1  0.5478440000000  0.5148020000000  0.6428290000000 1.0
C      1  0.4990710000000  0.6285370000000  0.5322580000000 1.0
C      1  0.4559990000000  0.4671580000000  0.5837010000000 1.0
C      1  0.4732140000000  0.6202780000000  0.5386070000000 1.0
C      1  0.4094650000000  0.6207640000000  0.5474660000000 1.0
C      1  0.5010990000000  0.6141660000000  0.4604800000000 1.0
C      1  0.5583200000000  0.4674330000000  0.4845050000000 1.0
C      1  0.4120740000000  0.4455140000000  0.5717610000000 1.0
C      1  0.5477760000000  0.5443660000000  0.4703790000000 1.0
C      1  0.5242550000000  0.5462520000000  0.4538120000000 1.0
C      1  0.5857340000000  0.5749290000000  0.5397290000000 1.0
C      1  0.5593850000000  0.5756390000000  0.5341500000000 1.0
C      1  0.4666920000000  0.5338050000000  0.5891490000000 1.0
C      1  0.5659270000000  0.4156280000000  0.4995600000000 1.0
C      1  0.5518570000000  0.6401100000000  0.5179540000000 1.0
C      1  0.3648950000000  0.4412670000000  0.5601060000000 1.0
C      1  0.4000430000000  0.4854720000000  0.5230900000000 1.0
C      1  0.5455480000000  0.5233060000000  0.6673560000000 1.0
C      1  0.4599300000000  0.4223810000000  0.4245950000000 1.0
C      1  0.4738190000000  0.4678180000000  0.4322510000000 1.0
C      1  0.5805580000000  0.4630640000000  0.5391910000000 1.0
C      1  0.5190030000000  0.4692010000000  0.4377890000000 1.0
C      1  0.5446490000000  0.4214590000000  0.5713960000000 1.0
C      1  0.5582530000000  0.4773780000000  0.4077670000000 1.0
C      1  0.5644910000000  0.5212670000000  0.4801590000000 1.0
C      1  0.3849620000000  0.5179390000000  0.4822380000000 1.0
C      1  0.4263010000000  0.4650170000000  0.5868330000000 1.0
C      1  0.4681700000000  0.4348960000000  0.5099660000000 1.0
C      1  0.4775060000000  0.4430860000000  0.4173920000000 1.0
C      1  0.4792130000000  0.5179640000000  0.5680440000000 1.0
C      1  0.4970470000000  0.5548750000000  0.4502020000000 1.0
C      1  0.4802330000000  0.5439940000000  0.4289410000000 1.0
C      1  0.4295840000000  0.6025370000000  0.5511900000000 1.0
C      1  0.5191880000000  0.4077310000000  0.5742470000000 1.0
C      1  0.5803480000000  0.4283030000000  0.4538980000000 1.0
C      1  0.5143350000000  0.3970410000000  0.4598440000000 1.0
C      1  0.4000470000000  0.5194160000000  0.4563460000000 1.0
C      1  0.5370030000000  0.6249950000000  0.4994930000000 1.0
C      1  0.4560760000000  0.4081910000000  0.5092610000000 1.0
C      1  0.4644910000000  0.5235730000000  0.3620360000000 1.0
C      1  0.5732570000000  0.5074190000000  0.5564120000000 1.0
C      1  0.4657270000000  0.3952830000000  0.4632310000000 1.0
C      1  0.4147580000000  0.5394340000000  0.3795240000000 1.0
C      1  0.5282720000000  0.6173770000000  0.4528550000000 1.0
C      1  0.5524060000000  0.4624760000000  0.5321990000000 1.0
C      1  0.4101750000000  0.4340100000000  0.5119890000000 1.0
C      1  0.4191930000000  0.5501870000000  0.5365700000000 1.0
C      1  0.5295040000000  0.5693520000000  0.6023240000000 1.0
END
