TITL C-612607-4507-199 0.204992199748524 125000 -959.523586899783 0 0 157 (C1) n - 1
REM
REM in /home/nfs/bkarasulu/CARBON/AIRSS/Generating-Clusters/TERSOFF/Only-C1/FIRE-HFTN
REM
REM
REM
REM
REM
REM ./C.cell (11c1c37f851c82e70ff6c80c92926a4b)
REM AIRSS Version 0.9.1 bugfix July 2018 build 013d7b7c2542+ Fri, 06 Jul 2018 19:26:36 +0100
REM compiler GCC version 9.2.1 20190827 (Red Hat 9.2.1-1)
REM options -cpp -mtune=generic -march=x86-64 -g -O0 -fpre-include=/usr/include/finclude/math-vector-fortran.h
REM seed -890359687 -625201434 1869299574 1927189348 387535829 1652392979 -1835310406 2103058139 -1837653830 -1985893843 -1501424721 1858241222 1987478762 1248508180 203894372 -37910642 361996964 -864812156 316735801 2087149992 650063630 1541114953 605087302 1203800311 -1882271816 -1041513866 -972624348 -1873797490 1597124506 -903980338 -1784926749 1038698965 -729062506
REM
CELL 1.54180   50.00000   50.00000   50.00000   90.00000   90.00000   90.00000
LATT -1
SFAC C  
C      1  0.4729240000000  0.4232490000000  0.5240910000000 1.0
C      1  0.4921520000000  0.5921750000000  0.5708860000000 1.0
C      1  0.5177080000000  0.4088320000000  0.5013710000000 1.0
C      1  0.6217780000000  0.5674290000000  0.6108390000000 1.0
C      1  0.4190750000000  0.4754750000000  0.5275280000000 1.0
C      1  0.4299870000000  0.4641850000000  0.5835650000000 1.0
C      1  0.5820340000000  0.5855320000000  0.4959770000000 1.0
C      1  0.5154880000000  0.4925690000000  0.4608180000000 1.0
C      1  0.6019110000000  0.5449950000000  0.5654240000000 1.0
C      1  0.4784160000000  0.4763630000000  0.5168220000000 1.0
C      1  0.6097740000000  0.4840080000000  0.6027260000000 1.0
C      1  0.5052350000000  0.5393030000000  0.5403190000000 1.0
C      1  0.4492200000000  0.5061470000000  0.4819640000000 1.0
C      1  0.4779100000000  0.5278160000000  0.3943780000000 1.0
C      1  0.5976960000000  0.5612960000000  0.5416650000000 1.0
C      1  0.5632010000000  0.4136570000000  0.4831390000000 1.0
C      1  0.3981810000000  0.5197880000000  0.5540090000000 1.0
C      1  0.5734140000000  0.4898550000000  0.4226560000000 1.0
C      1  0.5935650000000  0.5654840000000  0.5135930000000 1.0
C      1  0.4780110000000  0.5458890000000  0.5342600000000 1.0
C      1  0.4629600000000  0.3994640000000  0.4343200000000 1.0
C      1  0.5331610000000  0.5736080000000  0.4317640000000 1.0
C      1  0.5745530000000  0.4089520000000  0.5101950000000 1.0
C      1  0.4982230000000  0.6083100000000  0.4364570000000 1.0
C      1  0.4739710000000  0.4411580000000  0.4537490000000 1.0
C      1  0.5735330000000  0.4753350000000  0.5012960000000 1.0
C      1  0.5654760000000  0.4295910000000  0.5636110000000 1.0
C      1  0.5946370000000  0.5415720000000  0.4986290000000 1.0
C      1  0.5803000000000  0.4361600000000  0.4734790000000 1.0
C      1  0.6090740000000  0.4950740000000  0.4543970000000 1.0
C      1  0.5431180000000  0.4137520000000  0.5652130000000 1.0
C      1  0.5342670000000  0.4608160000000  0.4861560000000 1.0
C      1  0.5554900000000  0.4810430000000  0.4799570000000 1.0
C      1  0.6176910000000  0.4900730000000  0.5073330000000 1.0
C      1  0.5875090000000  0.4506540000000  0.4983910000000 1.0
C      1  0.4685830000000  0.5899100000000  0.4739600000000 1.0
C      1  0.4779010000000  0.6072890000000  0.4537820000000 1.0
C      1  0.4318990000000  0.5606960000000  0.4545120000000 1.0
C      1  0.5958230000000  0.5168440000000  0.5656420000000 1.0
C      1  0.5190190000000  0.4151590000000  0.4555270000000 1.0
C      1  0.4543760000000  0.4206840000000  0.4517210000000 1.0
C      1  0.5081060000000  0.3939910000000  0.4398020000000 1.0
C      1  0.4914030000000  0.5016410000000  0.6277480000000 1.0
C      1  0.4629670000000  0.4303060000000  0.3942530000000 1.0
C      1  0.3639450000000  0.5086330000000  0.4429890000000 1.0
C      1  0.4419780000000  0.5795790000000  0.4730900000000 1.0
C      1  0.5210990000000  0.5012190000000  0.4116580000000 1.0
C      1  0.6120680000000  0.5570550000000  0.5884790000000 1.0
C      1  0.5008420000000  0.4255050000000  0.5166250000000 1.0
C      1  0.3171490000000  0.4854080000000  0.4302460000000 1.0
C      1  0.5549560000000  0.4760670000000  0.5244500000000 1.0
C      1  0.3854510000000  0.5117450000000  0.4251030000000 1.0
C      1  0.4936590000000  0.5455950000000  0.4116550000000 1.0
C      1  0.4106610000000  0.5237360000000  0.4301630000000 1.0
C      1  0.4835950000000  0.5346360000000  0.4561510000000 1.0
C      1  0.4554450000000  0.4789650000000  0.4750080000000 1.0
C      1  0.4124510000000  0.4213920000000  0.4774700000000 1.0
C      1  0.5168360000000  0.5713180000000  0.4893590000000 1.0
C      1  0.4786810000000  0.6213910000000  0.5361460000000 1.0
C      1  0.4370270000000  0.4111210000000  0.4720730000000 1.0
C      1  0.4741160000000  0.4083370000000  0.4085020000000 1.0
C      1  0.5866930000000  0.4427420000000  0.5486130000000 1.0
C      1  0.6313430000000  0.5774880000000  0.6329060000000 1.0
C      1  0.4886580000000  0.5128940000000  0.5777250000000 1.0
C      1  0.4975800000000  0.4915100000000  0.5048950000000 1.0
C      1  0.5324970000000  0.6126720000000  0.4030420000000 1.0
C      1  0.4476240000000  0.3875430000000  0.4838230000000 1.0
C      1  0.4877850000000  0.3684420000000  0.5019980000000 1.0
C      1  0.4935800000000  0.3722810000000  0.5284290000000 1.0
C      1  0.4469940000000  0.5170060000000  0.5084260000000 1.0
C      1  0.4555950000000  0.4564260000000  0.3911530000000 1.0
C      1  0.4767360000000  0.5504240000000  0.4342390000000 1.0
C      1  0.4727830000000  0.5770080000000  0.5815940000000 1.0
C      1  0.5325340000000  0.6096650000000  0.5134890000000 1.0
C      1  0.5744840000000  0.5324770000000  0.4838970000000 1.0
C      1  0.5377760000000  0.5238990000000  0.4158740000000 1.0
C      1  0.5597240000000  0.5877130000000  0.4771310000000 1.0
C      1  0.6079330000000  0.5213640000000  0.4431030000000 1.0
C      1  0.4893910000000  0.5768400000000  0.4877930000000 1.0
C      1  0.5878680000000  0.4326290000000  0.5213410000000 1.0
C      1  0.4740440000000  0.4951300000000  0.5611030000000 1.0
C      1  0.5233510000000  0.4753980000000  0.5683890000000 1.0
C      1  0.4191730000000  0.5184950000000  0.5731870000000 1.0
C      1  0.3699760000000  0.5191640000000  0.4683740000000 1.0
C      1  0.5349580000000  0.4099270000000  0.4787440000000 1.0
C      1  0.5212060000000  0.5985360000000  0.4236280000000 1.0
C      1  0.3964950000000  0.5338030000000  0.5061400000000 1.0
C      1  0.5344520000000  0.4585680000000  0.5148810000000 1.0
C      1  0.4765630000000  0.4812550000000  0.6393060000000 1.0
C      1  0.4713470000000  0.4096860000000  0.5498090000000 1.0
C      1  0.4521150000000  0.4215790000000  0.5670130000000 1.0
C      1  0.4334860000000  0.5632730000000  0.5208730000000 1.0
C      1  0.6195240000000  0.4912510000000  0.4804330000000 1.0
C      1  0.5266310000000  0.6138240000000  0.5408130000000 1.0
C      1  0.4508380000000  0.5617700000000  0.5834990000000 1.0
C      1  0.3398300000000  0.4966650000000  0.4364190000000 1.0
C      1  0.4371290000000  0.4566430000000  0.6111570000000 1.0
C      1  0.6025730000000  0.4879800000000  0.5310330000000 1.0
C      1  0.4942190000000  0.3911090000000  0.5505800000000 1.0
C      1  0.5019780000000  0.4003770000000  0.4117880000000 1.0
C      1  0.4126550000000  0.5392580000000  0.4554840000000 1.0
C      1  0.4603770000000  0.4818590000000  0.4033490000000 1.0
C      1  0.5201860000000  0.5329060000000  0.5171880000000 1.0
C      1  0.4519900000000  0.4767250000000  0.6251350000000 1.0
C      1  0.4814840000000  0.4740590000000  0.5448600000000 1.0
C      1  0.5000790000000  0.6098630000000  0.5502970000000 1.0
C      1  0.4550740000000  0.5098500000000  0.3988410000000 1.0
C      1  0.5463960000000  0.6216330000000  0.5580590000000 1.0
C      1  0.6011770000000  0.4686940000000  0.5541280000000 1.0
C      1  0.3908640000000  0.5138520000000  0.5267640000000 1.0
C      1  0.4534180000000  0.5425160000000  0.5200560000000 1.0
C      1  0.4738620000000  0.3768650000000  0.4783960000000 1.0
C      1  0.5145390000000  0.4634830000000  0.4660530000000 1.0
C      1  0.5865610000000  0.4500550000000  0.4498160000000 1.0
C      1  0.4319940000000  0.5431090000000  0.5798100000000 1.0
C      1  0.4513570000000  0.4410590000000  0.5157560000000 1.0
C      1  0.3874480000000  0.5787100000000  0.5208540000000 1.0
C      1  0.4549320000000  0.6122000000000  0.5282450000000 1.0
C      1  0.4057470000000  0.5588620000000  0.5159710000000 1.0
C      1  0.5024930000000  0.4392530000000  0.4572160000000 1.0
C      1  0.4352470000000  0.4447360000000  0.5627850000000 1.0
C      1  0.4784270000000  0.5121070000000  0.6040390000000 1.0
C      1  0.4310590000000  0.4947420000000  0.5845670000000 1.0
C      1  0.5828360000000  0.5083530000000  0.5411000000000 1.0
C      1  0.4827370000000  0.3832080000000  0.4510390000000 1.0
C      1  0.5411450000000  0.5032580000000  0.4689520000000 1.0
C      1  0.5570110000000  0.5758300000000  0.4496060000000 1.0
C      1  0.4604600000000  0.4629290000000  0.4991930000000 1.0
C      1  0.5351560000000  0.5928400000000  0.4911320000000 1.0
C      1  0.5472000000000  0.5293710000000  0.4785820000000 1.0
C      1  0.5791910000000  0.5613550000000  0.4392860000000 1.0
C      1  0.5053980000000  0.4603660000000  0.5522160000000 1.0
C      1  0.5228400000000  0.5488520000000  0.4181530000000 1.0
C      1  0.5196430000000  0.4000410000000  0.5616940000000 1.0
C      1  0.5165760000000  0.4544350000000  0.4070780000000 1.0
C      1  0.5285710000000  0.5459520000000  0.4937670000000 1.0
C      1  0.3941300000000  0.5313080000000  0.4774370000000 1.0
C      1  0.5334780000000  0.5014880000000  0.5605860000000 1.0
C      1  0.4663340000000  0.4684730000000  0.4503360000000 1.0
C      1  0.5911450000000  0.4765170000000  0.4408150000000 1.0
C      1  0.4309660000000  0.4506130000000  0.5347810000000 1.0
C      1  0.4950060000000  0.5111200000000  0.4599010000000 1.0
C      1  0.4511240000000  0.4999730000000  0.6057500000000 1.0
C      1  0.4503740000000  0.5596670000000  0.4327260000000 1.0
C      1  0.4781470000000  0.4787580000000  0.4255630000000 1.0
C      1  0.5560280000000  0.4985320000000  0.5421980000000 1.0
C      1  0.5154310000000  0.4456970000000  0.5302560000000 1.0
C      1  0.5654240000000  0.5175640000000  0.4209270000000 1.0
C      1  0.4372600000000  0.4975190000000  0.5264030000000 1.0
C      1  0.4312860000000  0.5197340000000  0.4110480000000 1.0
C      1  0.6030430000000  0.4894270000000  0.5770750000000 1.0
C      1  0.4407560000000  0.5898910000000  0.5259040000000 1.0
C      1  0.5057270000000  0.4780280000000  0.4161110000000 1.0
C      1  0.5181140000000  0.5059420000000  0.5119480000000 1.0
C      1  0.5121370000000  0.5224710000000  0.5634150000000 1.0
C      1  0.5855400000000  0.5351230000000  0.4319110000000 1.0
C      1  0.3932770000000  0.4856810000000  0.5217100000000 1.0
END
