TITL C-612605-9286-302 0.000489390101034251 125000 -179.48030173172 0 0 31 (C1) n - 1
REM
REM in /home/nfs/bkarasulu/CARBON/AIRSS/Generating-Clusters/TERSOFF/Only-C1/FIRE-HFTN
REM
REM
REM
REM
REM
REM ./C.cell (11c1c37f851c82e70ff6c80c92926a4b)
REM AIRSS Version 0.9.1 bugfix July 2018 build 013d7b7c2542+ Fri, 06 Jul 2018 19:26:36 +0100
REM compiler GCC version 9.2.1 20190827 (Red Hat 9.2.1-1)
REM options -cpp -mtune=generic -march=x86-64 -g -O0 -fpre-include=/usr/include/finclude/math-vector-fortran.h
REM seed 604886094 -1815155884 -334946814 -598602704 -897194361 1646343965 699469153 -1797502830 2078495663 37117226 -1355888880 -33781159 -881298032 -981208822 2012292374 -1298618942 766490912 9760615 -1722752991 2063136324 -1041994620 1121654797 26448082 -1596315461 -1103987949 210388809 -584625294 1892091716 487589789 768269100 1550807771 -809632878 666551444
REM
CELL 1.54180   50.00000   50.00000   50.00000   90.00000   90.00000   90.00000
LATT -1
SFAC C  
C      1  0.4512630000000  0.4405350000000  0.4707470000000 1.0
C      1  0.4718500000000  0.5299450000000  0.4654180000000 1.0
C      1  0.4125980000000  0.5411370000000  0.5141370000000 1.0
C      1  0.5214870000000  0.4427080000000  0.5018080000000 1.0
C      1  0.5013200000000  0.4678410000000  0.4492670000000 1.0
C      1  0.4850840000000  0.5061630000000  0.4715790000000 1.0
C      1  0.5085160000000  0.5082980000000  0.4867640000000 1.0
C      1  0.5356240000000  0.5721320000000  0.5084180000000 1.0
C      1  0.5184870000000  0.4669910000000  0.5133140000000 1.0
C      1  0.5278250000000  0.4718410000000  0.4462600000000 1.0
C      1  0.5131640000000  0.5795620000000  0.4961070000000 1.0
C      1  0.5507160000000  0.4839660000000  0.4533710000000 1.0
C      1  0.4752920000000  0.5560410000000  0.4703420000000 1.0
C      1  0.4251020000000  0.5183640000000  0.5119940000000 1.0
C      1  0.4546800000000  0.4728840000000  0.5068150000000 1.0
C      1  0.4911380000000  0.5740190000000  0.4821240000000 1.0
C      1  0.4620040000000  0.4637910000000  0.4805070000000 1.0
C      1  0.5283040000000  0.4951580000000  0.5489850000000 1.0
C      1  0.5528140000000  0.5529580000000  0.5155080000000 1.0
C      1  0.4614280000000  0.4590570000000  0.5310570000000 1.0
C      1  0.5663150000000  0.4996020000000  0.4686510000000 1.0
C      1  0.4457370000000  0.4382960000000  0.5396260000000 1.0
C      1  0.5576810000000  0.5254220000000  0.5133650000000 1.0
C      1  0.5335100000000  0.5030190000000  0.5744750000000 1.0
C      1  0.5707810000000  0.5150880000000  0.4902330000000 1.0
C      1  0.5109880000000  0.4727000000000  0.5410620000000 1.0
C      1  0.4841320000000  0.4667150000000  0.5461760000000 1.0
C      1  0.4800080000000  0.4791020000000  0.4643600000000 1.0
C      1  0.4388500000000  0.4959100000000  0.5090550000000 1.0
C      1  0.5389360000000  0.5074750000000  0.5246820000000 1.0
C      1  0.5243640000000  0.4932800000000  0.5037940000000 1.0
END
