TITL C-612604-1799-848 0.000204157272742439 125000 -677.722050452129 0 0 110 (C1) n - 1
REM
REM in /home/nfs/bkarasulu/CARBON/AIRSS/Generating-Clusters/TERSOFF/Only-C1/FIRE-HFTN
REM
REM
REM
REM
REM
REM ./C.cell (11c1c37f851c82e70ff6c80c92926a4b)
REM AIRSS Version 0.9.1 bugfix July 2018 build 013d7b7c2542+ Fri, 06 Jul 2018 19:26:36 +0100
REM compiler GCC version 9.2.1 20190827 (Red Hat 9.2.1-1)
REM options -cpp -mtune=generic -march=x86-64 -g -O0 -fpre-include=/usr/include/finclude/math-vector-fortran.h
REM seed -1252411871 -1560571558 -922518626 -213532335 -257611214 -1965825910 1043678031 -1916611446 1916833343 -1863982457 -1601111245 541554888 -172826742 1840614435 1828956972 1276897823 2102385066 749410283 -386080823 -1402133008 1948951884 -1302440300 -1765756022 -922967901 -477119799 -759191891 -2133927563 -1719757503 2050784287 -1709123232 -247484251 -311484645 -866652600
REM
CELL 1.54180   50.00000   50.00000   50.00000   90.00000   90.00000   90.00000
LATT -1
SFAC C  
C      1  0.4617000000000  0.5882190000000  0.5675090000000 1.0
C      1  0.5891300000000  0.5275510000000  0.4611880000000 1.0
C      1  0.4191070000000  0.4385590000000  0.5279020000000 1.0
C      1  0.4895590000000  0.4950990000000  0.5889490000000 1.0
C      1  0.4217540000000  0.5548910000000  0.5256940000000 1.0
C      1  0.4841940000000  0.5369510000000  0.4547010000000 1.0
C      1  0.5862810000000  0.5492530000000  0.5073760000000 1.0
C      1  0.4628640000000  0.4991140000000  0.5857520000000 1.0
C      1  0.5432890000000  0.5650550000000  0.4258390000000 1.0
C      1  0.5006080000000  0.4786590000000  0.5326050000000 1.0
C      1  0.5507510000000  0.5080860000000  0.4393920000000 1.0
C      1  0.4827060000000  0.5309380000000  0.5527790000000 1.0
C      1  0.5225910000000  0.4746140000000  0.4622160000000 1.0
C      1  0.4155750000000  0.5530080000000  0.4464310000000 1.0
C      1  0.5791330000000  0.5118070000000  0.5440920000000 1.0
C      1  0.5887430000000  0.4845620000000  0.5415200000000 1.0
C      1  0.4186580000000  0.5750590000000  0.4613270000000 1.0
C      1  0.4996000000000  0.4373790000000  0.4202830000000 1.0
C      1  0.4951860000000  0.4744910000000  0.4606530000000 1.0
C      1  0.3785570000000  0.4988010000000  0.5220790000000 1.0
C      1  0.5921510000000  0.4727940000000  0.4680000000000 1.0
C      1  0.4579420000000  0.4769320000000  0.5101550000000 1.0
C      1  0.5885100000000  0.4228920000000  0.5711970000000 1.0
C      1  0.5437690000000  0.4443790000000  0.5653510000000 1.0
C      1  0.5225240000000  0.4967140000000  0.5327070000000 1.0
C      1  0.4593880000000  0.5351460000000  0.5103560000000 1.0
C      1  0.4236260000000  0.5853120000000  0.4856460000000 1.0
C      1  0.5458250000000  0.4947130000000  0.4149130000000 1.0
C      1  0.4708620000000  0.4653030000000  0.4653200000000 1.0
C      1  0.3999420000000  0.4811390000000  0.5175410000000 1.0
C      1  0.4255810000000  0.5520360000000  0.5541520000000 1.0
C      1  0.5124300000000  0.5814450000000  0.5565850000000 1.0
C      1  0.4882530000000  0.5765290000000  0.4993000000000 1.0
C      1  0.6000000000000  0.5009460000000  0.4665340000000 1.0
C      1  0.4064860000000  0.4777830000000  0.4900630000000 1.0
C      1  0.5446050000000  0.3947120000000  0.5351990000000 1.0
C      1  0.4969220000000  0.3941900000000  0.5424080000000 1.0
C      1  0.5704060000000  0.3899360000000  0.5403550000000 1.0
C      1  0.4305780000000  0.5308210000000  0.5115590000000 1.0
C      1  0.4315010000000  0.4742500000000  0.5582850000000 1.0
C      1  0.5684400000000  0.4403830000000  0.5748200000000 1.0
C      1  0.5154870000000  0.4962240000000  0.5806730000000 1.0
C      1  0.3789430000000  0.5248350000000  0.4572270000000 1.0
C      1  0.5383690000000  0.4981590000000  0.4636390000000 1.0
C      1  0.4413430000000  0.4959100000000  0.4266180000000 1.0
C      1  0.4506840000000  0.4541330000000  0.5651340000000 1.0
C      1  0.5129210000000  0.5365000000000  0.5008190000000 1.0
C      1  0.4738370000000  0.5193550000000  0.5288210000000 1.0
C      1  0.4262270000000  0.5253180000000  0.5649870000000 1.0
C      1  0.5669760000000  0.5496840000000  0.4222960000000 1.0
C      1  0.5210210000000  0.5573580000000  0.5713610000000 1.0
C      1  0.5714760000000  0.5273580000000  0.4387440000000 1.0
C      1  0.4692520000000  0.5480820000000  0.4364860000000 1.0
C      1  0.4639490000000  0.4861290000000  0.4154430000000 1.0
C      1  0.4144720000000  0.4655990000000  0.5364650000000 1.0
C      1  0.5209020000000  0.4085120000000  0.5414560000000 1.0
C      1  0.5215740000000  0.5567400000000  0.4099740000000 1.0
C      1  0.5422510000000  0.5773220000000  0.4518850000000 1.0
C      1  0.4518070000000  0.4098010000000  0.4981730000000 1.0
C      1  0.4553920000000  0.4646930000000  0.4867940000000 1.0
C      1  0.4754990000000  0.4466310000000  0.5587500000000 1.0
C      1  0.5758390000000  0.5693560000000  0.5239350000000 1.0
C      1  0.4964560000000  0.4112630000000  0.4673520000000 1.0
C      1  0.5836040000000  0.5508640000000  0.4786700000000 1.0
C      1  0.4329780000000  0.4202800000000  0.5140510000000 1.0
C      1  0.5096940000000  0.4623770000000  0.4109290000000 1.0
C      1  0.3647670000000  0.5227600000000  0.4798300000000 1.0
C      1  0.5711800000000  0.5062040000000  0.4989040000000 1.0
C      1  0.4138830000000  0.4841540000000  0.4652260000000 1.0
C      1  0.5330560000000  0.5025700000000  0.5588490000000 1.0
C      1  0.4631560000000  0.5645910000000  0.5054570000000 1.0
C      1  0.5376690000000  0.4511240000000  0.4580660000000 1.0
C      1  0.5092110000000  0.5355480000000  0.3990870000000 1.0
C      1  0.4968030000000  0.5913850000000  0.4767240000000 1.0
C      1  0.4764990000000  0.4914100000000  0.5246180000000 1.0
C      1  0.4912590000000  0.4851380000000  0.4066720000000 1.0
C      1  0.4050390000000  0.5269460000000  0.4461930000000 1.0
C      1  0.5218720000000  0.4359460000000  0.5498440000000 1.0
C      1  0.4997120000000  0.4532950000000  0.5458980000000 1.0
C      1  0.5452830000000  0.5048670000000  0.4900500000000 1.0
C      1  0.5386230000000  0.4673410000000  0.4144260000000 1.0
C      1  0.5106310000000  0.5629500000000  0.5114580000000 1.0
C      1  0.4875900000000  0.5928900000000  0.5623650000000 1.0
C      1  0.5926400000000  0.4681300000000  0.5199860000000 1.0
C      1  0.5860720000000  0.4586920000000  0.4936410000000 1.0
C      1  0.4769360000000  0.3781300000000  0.5471160000000 1.0
C      1  0.5425810000000  0.4321730000000  0.4782630000000 1.0
C      1  0.4950610000000  0.4197840000000  0.4401830000000 1.0
C      1  0.5190180000000  0.5903560000000  0.4613030000000 1.0
C      1  0.5645570000000  0.5703510000000  0.4687460000000 1.0
C      1  0.3645690000000  0.5145040000000  0.5053100000000 1.0
C      1  0.5666210000000  0.4374620000000  0.4922380000000 1.0
C      1  0.4989040000000  0.5399800000000  0.5721480000000 1.0
C      1  0.5218130000000  0.4132380000000  0.4803130000000 1.0
C      1  0.4204620000000  0.5025950000000  0.4447530000000 1.0
C      1  0.4358270000000  0.5755670000000  0.5091050000000 1.0
C      1  0.4396490000000  0.5730040000000  0.5668470000000 1.0
C      1  0.4382330000000  0.4999340000000  0.5703510000000 1.0
C      1  0.5264830000000  0.5132680000000  0.5094540000000 1.0
C      1  0.5522880000000  0.5669930000000  0.5385700000000 1.0
C      1  0.5828520000000  0.5232040000000  0.5178360000000 1.0
C      1  0.5813260000000  0.4605710000000  0.4436690000000 1.0
C      1  0.5554780000000  0.5207090000000  0.5588150000000 1.0
C      1  0.5545190000000  0.4536960000000  0.4351890000000 1.0
C      1  0.5475420000000  0.5484110000000  0.5610630000000 1.0
C      1  0.5895670000000  0.4009090000000  0.5556770000000 1.0
C      1  0.4731140000000  0.4064110000000  0.4823580000000 1.0
C      1  0.4998810000000  0.5331180000000  0.4757130000000 1.0
C      1  0.5012000000000  0.5100500000000  0.3972180000000 1.0
C      1  0.5258930000000  0.5767080000000  0.5310540000000 1.0
END
