TITL C-612601-4209-1456 0.42382102584639 125000 -144.45417027731 0 0 26 (Cs) n - 1
REM
REM in /home/nfs/bkarasulu/CARBON/AIRSS/Generating-Clusters/TERSOFF/Only-C1/FIRE-HFTN
REM
REM
REM
REM
REM
REM ./C.cell (11c1c37f851c82e70ff6c80c92926a4b)
REM AIRSS Version 0.9.1 bugfix July 2018 build 013d7b7c2542+ Fri, 06 Jul 2018 19:26:36 +0100
REM compiler GCC version 9.2.1 20190827 (Red Hat 9.2.1-1)
REM options -cpp -mtune=generic -march=x86-64 -g -O0 -fpre-include=/usr/include/finclude/math-vector-fortran.h
REM seed -1413482053 571541252 1709463936 109079084 -1017429926 -1871145406 -484627239 1471995450 -1839991778 1929676955 1219231388 -1144512893 960742791 -990603180 -780567498 598782162 902894027 -1701361804 2143786468 2040256 -358319798 1311372282 1338416989 -1005717163 1133826689 1379045791 1611485325 -1800365430 -1385303718 556483751 -1414715266 1683789904 -1892060565
REM
CELL 1.54180   50.00000   50.00000   50.00000   90.00000   90.00000   90.00000
LATT -1
SFAC C  
C      1  0.5415420000000  0.5021750000000  0.4960410000000 1.0
C      1  0.4416170000000  0.4963160000000  0.5064740000000 1.0
C      1  0.5292870000000  0.5447850000000  0.4359570000000 1.0
C      1  0.3980340000000  0.5301770000000  0.4593990000000 1.0
C      1  0.5121540000000  0.4806040000000  0.5272230000000 1.0
C      1  0.5596680000000  0.4762060000000  0.5324230000000 1.0
C      1  0.6438440000000  0.4386060000000  0.5838470000000 1.0
C      1  0.5423310000000  0.5180710000000  0.4735130000000 1.0
C      1  0.4683810000000  0.5192760000000  0.4733740000000 1.0
C      1  0.4426920000000  0.4657740000000  0.5497330000000 1.0
C      1  0.4467150000000  0.4355100000000  0.5925360000000 1.0
C      1  0.6019180000000  0.4573310000000  0.5582380000000 1.0
C      1  0.6230550000000  0.4478910000000  0.5711490000000 1.0
C      1  0.5195350000000  0.5289370000000  0.4586080000000 1.0
C      1  0.4446770000000  0.4505150000000  0.5713150000000 1.0
C      1  0.3759520000000  0.5388460000000  0.4475740000000 1.0
C      1  0.5375070000000  0.4862640000000  0.5186600000000 1.0
C      1  0.4414160000000  0.4810470000000  0.5281160000000 1.0
C      1  0.3542330000000  0.5473730000000  0.4359450000000 1.0
C      1  0.5807870000000  0.4667690000000  0.5453300000000 1.0
C      1  0.5146170000000  0.5580720000000  0.4174530000000 1.0
C      1  0.5656030000000  0.5276930000000  0.4593930000000 1.0
C      1  0.4200990000000  0.5215130000000  0.4712160000000 1.0
C      1  0.4929070000000  0.5247770000000  0.4650630000000 1.0
C      1  0.5580720000000  0.5430990000000  0.4377350000000 1.0
C      1  0.4433590000000  0.5123710000000  0.4836840000000 1.0
END
