TITL C-612604-1799-771 114265.250625431 125000 -909.191334656663 0 0 149 (C1) n - 1
REM
REM in /home/nfs/bkarasulu/CARBON/AIRSS/Generating-Clusters/TERSOFF/Only-C1/FIRE-HFTN
REM
REM
REM
REM
REM
REM ./C.cell (11c1c37f851c82e70ff6c80c92926a4b)
REM AIRSS Version 0.9.1 bugfix July 2018 build 013d7b7c2542+ Fri, 06 Jul 2018 19:26:36 +0100
REM compiler GCC version 9.2.1 20190827 (Red Hat 9.2.1-1)
REM options -cpp -mtune=generic -march=x86-64 -g -O0 -fpre-include=/usr/include/finclude/math-vector-fortran.h
REM seed -1456777398 1773306710 -1568767249 666267833 1798900060 1351626558 524911913 -883193385 1346012790 -806793368 -733867963 -858226963 -634264994 658389134 -1914224108 844834104 -2007076363 1966820438 1387202234 638720743 -436158367 -1243944886 -1778336473 -305026726 -1232901365 1758147227 1279193320 -1763520963 1696551348 150796036 -962221281 -1592470216 -1013228010
REM
CELL 1.54180   50.00000   50.00000   50.00000   90.00000   90.00000   90.00000
LATT -1
SFAC C  
C      1  0.4925160000000  0.4336510000000  0.4172320000000 1.0
C      1  0.3970730000000  0.4981770000000  0.4956470000000 1.0
C      1  0.5113420000000  0.5798190000000  0.4475200000000 1.0
C      1  0.6176860000000  0.5049950000000  0.5086400000000 1.0
C      1  0.4506500000000  0.5058720000000  0.5099490000000 1.0
C      1  0.5428910000000  0.5334370000000  0.5315580000000 1.0
C      1  0.4031540000000  0.4774260000000  0.5399110000000 1.0
C      1  0.4759920000000  0.4743610000000  0.5513290000000 1.0
C      1  0.4508550000000  0.4757980000000  0.5656270000000 1.0
C      1  0.4917730000000  0.5838730000000  0.4281020000000 1.0
C      1  0.4519030000000  0.5584510000000  0.4125790000000 1.0
C      1  0.5197930000000  0.4410720000000  0.4150340000000 1.0
C      1  0.4736220000000  0.4443940000000  0.4351440000000 1.0
C      1  0.5463350000000  0.4276530000000  0.4751490000000 1.0
C      1  0.4779290000000  0.4735750000000  0.6053700000000 1.0
C      1  0.5569650000000  0.4381030000000  0.5663740000000 1.0
C      1  0.4517450000000  0.4894060000000  0.4204640000000 1.0
C      1  0.4538890000000  0.5294030000000  0.5525170000000 1.0
C      1  0.4855730000000  0.4323660000000  0.4783630000000 1.0
C      1  0.4935790000000  0.5542900000000  0.5453980000000 1.0
C      1  0.5405960000000  0.5068920000000  0.3883920000000 1.0
C      1  0.4642910000000  0.5349240000000  0.4219250000000 1.0
C      1  0.3959210000000  0.5973680000000  0.4889850000000 1.0
C      1  0.4322800000000  0.4703400000000  0.4844090000000 1.0
C      1  0.6085340000000  0.4686530000000  0.4786650000000 1.0
C      1  0.4482440000000  0.4940370000000  0.4845040000000 1.0
C      1  0.5617910000000  0.5389160000000  0.4442530000000 1.0
C      1  0.5297940000000  0.4218400000000  0.5207990000000 1.0
C      1  0.4037540000000  0.5841600000000  0.4667770000000 1.0
C      1  0.4922100000000  0.5583430000000  0.5149710000000 1.0
C      1  0.4322940000000  0.5144080000000  0.5290500000000 1.0
C      1  0.4852690000000  0.4534510000000  0.4596510000000 1.0
C      1  0.5242080000000  0.4489910000000  0.5300910000000 1.0
C      1  0.4981790000000  0.4846610000000  0.5665240000000 1.0
C      1  0.4597970000000  0.4219180000000  0.5370560000000 1.0
C      1  0.5885470000000  0.3934320000000  0.5147120000000 1.0
C      1  0.5181310000000  0.4739260000000  0.4890280000000 1.0
C      1  0.4934440000000  0.3840740000000  0.4785880000000 1.0
C      1  0.4580710000000  0.5260410000000  0.6173730000000 1.0
C      1  0.5476530000000  0.4853720000000  0.4079460000000 1.0
C      1  0.4299450000000  0.4463420000000  0.4999520000000 1.0
C      1  0.4784430000000  0.6114640000000  0.5418620000000 1.0
C      1  0.4838650000000  0.5873450000000  0.5543090000000 1.0
C      1  0.4102670000000  0.3751110000000  0.4500470000000 1.0
C      1  0.6052310000000  0.4958140000000  0.4853400000000 1.0
C      1  0.5883730000000  0.4510260000000  0.4787750000000 1.0
C      1  0.4791110000000  0.3402280000000  0.4536030000000 1.0
C      1  0.5821810000000  0.5817450000000  0.4362200000000 1.0
C      1  0.5079840000000  0.4668490000000  0.5144060000000 1.0
C      1  0.4329960000000  0.4697940000000  0.4296120000000 1.0
C      1  0.5028730000000  0.4761010000000  0.4648370000000 1.0
C      1  0.5394340000000  0.4252930000000  0.4271220000000 1.0
C      1  0.4268390000000  0.5590170000000  0.4007010000000 1.0
C      1  0.4025520000000  0.5585380000000  0.3912650000000 1.0
C      1  0.5051040000000  0.5115190000000  0.3533650000000 1.0
C      1  0.4193530000000  0.5244630000000  0.5855210000000 1.0
C      1  0.5706220000000  0.5646510000000  0.4546320000000 1.0
C      1  0.4990660000000  0.6021680000000  0.4980660000000 1.0
C      1  0.4826200000000  0.5882230000000  0.5828530000000 1.0
C      1  0.4452020000000  0.4440470000000  0.4319540000000 1.0
C      1  0.5429840000000  0.5254640000000  0.5030830000000 1.0
C      1  0.5768460000000  0.5624740000000  0.5771790000000 1.0
C      1  0.4498550000000  0.4329680000000  0.5147480000000 1.0
C      1  0.5298630000000  0.3993460000000  0.5871610000000 1.0
C      1  0.4533160000000  0.5497590000000  0.5730380000000 1.0
C      1  0.4710630000000  0.6360060000000  0.5369290000000 1.0
C      1  0.5095580000000  0.4987930000000  0.4487480000000 1.0
C      1  0.4680080000000  0.5811700000000  0.4162230000000 1.0
C      1  0.5661160000000  0.4925750000000  0.4289910000000 1.0
C      1  0.5102700000000  0.5498740000000  0.5770160000000 1.0
C      1  0.5275290000000  0.5719540000000  0.5825820000000 1.0
C      1  0.4033030000000  0.4405680000000  0.5087470000000 1.0
C      1  0.5913460000000  0.3815920000000  0.4910790000000 1.0
C      1  0.5272630000000  0.4167900000000  0.4932660000000 1.0
C      1  0.5468600000000  0.5612980000000  0.5401740000000 1.0
C      1  0.5733510000000  0.5152890000000  0.5797160000000 1.0
C      1  0.5222510000000  0.5071420000000  0.5978310000000 1.0
C      1  0.4067060000000  0.5011970000000  0.5237890000000 1.0
C      1  0.4195270000000  0.3974120000000  0.4402530000000 1.0
C      1  0.5513800000000  0.4148420000000  0.4501730000000 1.0
C      1  0.5145150000000  0.5226970000000  0.4336960000000 1.0
C      1  0.5455060000000  0.5098340000000  0.5785090000000 1.0
C      1  0.4829250000000  0.5246620000000  0.5443680000000 1.0
C      1  0.4271340000000  0.5779690000000  0.5236050000000 1.0
C      1  0.5739550000000  0.5129750000000  0.4486070000000 1.0
C      1  0.5456040000000  0.5825000000000  0.5222970000000 1.0
C      1  0.5681960000000  0.3925300000000  0.4504550000000 1.0
C      1  0.5394690000000  0.5359170000000  0.4264980000000 1.0
C      1  0.5747130000000  0.4073960000000  0.5341710000000 1.0
C      1  0.5478030000000  0.5894670000000  0.4953590000000 1.0
C      1  0.5847310000000  0.3748400000000  0.4646430000000 1.0
C      1  0.4507410000000  0.5765420000000  0.5048180000000 1.0
C      1  0.5604290000000  0.4517790000000  0.4812430000000 1.0
C      1  0.5574080000000  0.5024800000000  0.4920780000000 1.0
C      1  0.5934510000000  0.3515420000000  0.4533820000000 1.0
C      1  0.4531890000000  0.5131850000000  0.4359930000000 1.0
C      1  0.6154660000000  0.5152500000000  0.5332460000000 1.0
C      1  0.4068380000000  0.5956020000000  0.5136240000000 1.0
C      1  0.5065560000000  0.5318200000000  0.5988290000000 1.0
C      1  0.4249420000000  0.5677610000000  0.4639740000000 1.0
C      1  0.5455080000000  0.5327640000000  0.3987820000000 1.0
C      1  0.5336870000000  0.5154320000000  0.5521660000000 1.0
C      1  0.4611950000000  0.5704870000000  0.5889270000000 1.0
C      1  0.5147750000000  0.5011950000000  0.3765470000000 1.0
C      1  0.3905590000000  0.4551510000000  0.5277530000000 1.0
C      1  0.4246180000000  0.4715830000000  0.5571590000000 1.0
C      1  0.4739290000000  0.4838730000000  0.4025380000000 1.0
C      1  0.4797530000000  0.5828030000000  0.5064160000000 1.0
C      1  0.5231910000000  0.6034990000000  0.4573590000000 1.0
C      1  0.4538770000000  0.4856960000000  0.5927160000000 1.0
C      1  0.5451650000000  0.4050690000000  0.5383020000000 1.0
C      1  0.5283550000000  0.5413360000000  0.4836870000000 1.0
C      1  0.5417860000000  0.4123260000000  0.5667390000000 1.0
C      1  0.4096490000000  0.4774140000000  0.4451380000000 1.0
C      1  0.5881680000000  0.5375080000000  0.5691210000000 1.0
C      1  0.5011040000000  0.4820830000000  0.3938010000000 1.0
C      1  0.5406070000000  0.4569700000000  0.5523380000000 1.0
C      1  0.4547030000000  0.5137490000000  0.4644650000000 1.0
C      1  0.5063100000000  0.5086580000000  0.5538050000000 1.0
C      1  0.5899370000000  0.5667310000000  0.5002340000000 1.0
C      1  0.5463210000000  0.4761370000000  0.4880550000000 1.0
C      1  0.4855690000000  0.4808510000000  0.5242300000000 1.0
C      1  0.5014820000000  0.4100980000000  0.4839350000000 1.0
C      1  0.4665640000000  0.4186900000000  0.5627750000000 1.0
C      1  0.4462980000000  0.5604700000000  0.4806770000000 1.0
C      1  0.4410830000000  0.5106900000000  0.6002950000000 1.0
C      1  0.5981910000000  0.5580400000000  0.5243180000000 1.0
C      1  0.4840870000000  0.5348600000000  0.4990660000000 1.0
C      1  0.5250520000000  0.6038650000000  0.4853470000000 1.0
C      1  0.4721420000000  0.4258940000000  0.5880010000000 1.0
C      1  0.6020290000000  0.5375260000000  0.5438100000000 1.0
C      1  0.4921440000000  0.5333860000000  0.4205490000000 1.0
C      1  0.4175440000000  0.5608150000000  0.5456590000000 1.0
C      1  0.5807050000000  0.5069280000000  0.4756510000000 1.0
C      1  0.5090920000000  0.5911490000000  0.5935270000000 1.0
C      1  0.4841580000000  0.5329360000000  0.6160270000000 1.0
C      1  0.5812820000000  0.4293320000000  0.5522940000000 1.0
C      1  0.4067630000000  0.4812190000000  0.4735570000000 1.0
C      1  0.5030110000000  0.4845860000000  0.5948240000000 1.0
C      1  0.5692810000000  0.5745750000000  0.4820030000000 1.0
C      1  0.4766060000000  0.4451220000000  0.6063780000000 1.0
C      1  0.5165640000000  0.5571590000000  0.4647570000000 1.0
C      1  0.4860510000000  0.3611920000000  0.4674600000000 1.0
C      1  0.4788560000000  0.5104530000000  0.5169180000000 1.0
C      1  0.4640310000000  0.5381230000000  0.4776650000000 1.0
C      1  0.4110510000000  0.5430720000000  0.5662760000000 1.0
C      1  0.5239530000000  0.4678150000000  0.4069470000000 1.0
C      1  0.5512570000000  0.5694280000000  0.5676850000000 1.0
C      1  0.4306600000000  0.4203990000000  0.4331500000000 1.0
END
