TITL C-612607-4507-1497 0.0015369254844274 125000 -551.934573384002 0 0 91 (C1) n - 1
REM
REM in /home/nfs/bkarasulu/CARBON/AIRSS/Generating-Clusters/TERSOFF/Only-C1/FIRE-HFTN
REM
REM
REM
REM
REM
REM ./C.cell (11c1c37f851c82e70ff6c80c92926a4b)
REM AIRSS Version 0.9.1 bugfix July 2018 build 013d7b7c2542+ Fri, 06 Jul 2018 19:26:36 +0100
REM compiler GCC version 9.2.1 20190827 (Red Hat 9.2.1-1)
REM options -cpp -mtune=generic -march=x86-64 -g -O0 -fpre-include=/usr/include/finclude/math-vector-fortran.h
REM seed -1138039914 -1861611342 -1631807627 -374821607 245371950 414069089 -1399551063 -1972159934 1368684169 -880082714 534143733 -1902418268 -1713428399 1643748036 1247798188 1195856828 703969861 -912298703 -693301142 -305524425 1385848215 466959132 -296744077 -136403361 1846058678 -1698825649 1227471432 -1739187648 -1523823482 785438954 -925957999 -1858196834 242745448
REM
CELL 1.54180   50.00000   50.00000   50.00000   90.00000   90.00000   90.00000
LATT -1
SFAC C  
C      1  0.4685480000000  0.5140210000000  0.5113470000000 1.0
C      1  0.4796900000000  0.5668940000000  0.5492060000000 1.0
C      1  0.4809290000000  0.5590890000000  0.5217530000000 1.0
C      1  0.4387190000000  0.4377600000000  0.4986670000000 1.0
C      1  0.4419830000000  0.4742360000000  0.4667790000000 1.0
C      1  0.5305720000000  0.5227210000000  0.5800080000000 1.0
C      1  0.4311040000000  0.4865010000000  0.4420770000000 1.0
C      1  0.5490220000000  0.4869540000000  0.4372000000000 1.0
C      1  0.5237180000000  0.4694390000000  0.5745140000000 1.0
C      1  0.4499350000000  0.5339900000000  0.4988260000000 1.0
C      1  0.5145660000000  0.4039570000000  0.5027510000000 1.0
C      1  0.5868010000000  0.4537230000000  0.5401220000000 1.0
C      1  0.4696100000000  0.4856300000000  0.5165130000000 1.0
C      1  0.5621790000000  0.4458450000000  0.4672610000000 1.0
C      1  0.4617110000000  0.5798870000000  0.4775000000000 1.0
C      1  0.4658740000000  0.4343600000000  0.5064890000000 1.0
C      1  0.5641810000000  0.4818870000000  0.5065160000000 1.0
C      1  0.5388170000000  0.5398530000000  0.5160210000000 1.0
C      1  0.5247460000000  0.5843140000000  0.5616780000000 1.0
C      1  0.5320430000000  0.5344730000000  0.4355920000000 1.0
C      1  0.5654600000000  0.5325430000000  0.5242850000000 1.0
C      1  0.5103930000000  0.5016740000000  0.4086940000000 1.0
C      1  0.5704610000000  0.4911150000000  0.4802980000000 1.0
C      1  0.4208810000000  0.4171410000000  0.4977940000000 1.0
C      1  0.5049600000000  0.5648910000000  0.5644880000000 1.0
C      1  0.4701850000000  0.5757360000000  0.4503480000000 1.0
C      1  0.5032770000000  0.4498720000000  0.5258840000000 1.0
C      1  0.5170240000000  0.5445550000000  0.4579640000000 1.0
C      1  0.4082980000000  0.5068860000000  0.4972940000000 1.0
C      1  0.4679170000000  0.4584920000000  0.5738440000000 1.0
C      1  0.5621390000000  0.4479630000000  0.5516300000000 1.0
C      1  0.5162650000000  0.4338800000000  0.5460340000000 1.0
C      1  0.5171130000000  0.3768200000000  0.4975270000000 1.0
C      1  0.5620300000000  0.4734730000000  0.4592010000000 1.0
C      1  0.5355980000000  0.5638740000000  0.5008100000000 1.0
C      1  0.4641580000000  0.5055910000000  0.5697560000000 1.0
C      1  0.4870360000000  0.4145950000000  0.5014540000000 1.0
C      1  0.4193110000000  0.4841300000000  0.5103930000000 1.0
C      1  0.5403900000000  0.4182510000000  0.5090310000000 1.0
C      1  0.4997830000000  0.5061180000000  0.4775890000000 1.0
C      1  0.5531570000000  0.5061290000000  0.5693980000000 1.0
C      1  0.4739930000000  0.4852260000000  0.4334120000000 1.0
C      1  0.5149330000000  0.5301250000000  0.4130180000000 1.0
C      1  0.4928910000000  0.5290490000000  0.4628590000000 1.0
C      1  0.5150730000000  0.4450430000000  0.4543700000000 1.0
C      1  0.4795140000000  0.4828650000000  0.5662030000000 1.0
C      1  0.4849890000000  0.4464640000000  0.4149380000000 1.0
C      1  0.4312500000000  0.4647840000000  0.4917330000000 1.0
C      1  0.4950280000000  0.5507860000000  0.4106860000000 1.0
C      1  0.5843930000000  0.5316260000000  0.5031930000000 1.0
C      1  0.4623250000000  0.5607730000000  0.4988570000000 1.0
C      1  0.5435960000000  0.4293910000000  0.5369130000000 1.0
C      1  0.4904720000000  0.5313870000000  0.5198530000000 1.0
C      1  0.5685310000000  0.5197510000000  0.5494890000000 1.0
C      1  0.5297460000000  0.5904730000000  0.4613140000000 1.0
C      1  0.4534110000000  0.4379700000000  0.5807850000000 1.0
C      1  0.5062210000000  0.5383700000000  0.5776230000000 1.0
C      1  0.5209350000000  0.4597780000000  0.5053060000000 1.0
C      1  0.4575960000000  0.4508130000000  0.4127280000000 1.0
C      1  0.5157930000000  0.4424510000000  0.5728540000000 1.0
C      1  0.5370590000000  0.4806580000000  0.5156380000000 1.0
C      1  0.5106050000000  0.4542880000000  0.4273550000000 1.0
C      1  0.5260110000000  0.4791810000000  0.4208550000000 1.0
C      1  0.5111030000000  0.4592950000000  0.4787280000000 1.0
C      1  0.4830000000000  0.4954240000000  0.4103010000000 1.0
C      1  0.4804540000000  0.5675340000000  0.4265530000000 1.0
C      1  0.5843120000000  0.5156860000000  0.4811960000000 1.0
C      1  0.4358070000000  0.5383630000000  0.5562820000000 1.0
C      1  0.5271380000000  0.5659680000000  0.4736210000000 1.0
C      1  0.4423380000000  0.5144350000000  0.4425130000000 1.0
C      1  0.4656710000000  0.5273780000000  0.4510730000000 1.0
C      1  0.5409810000000  0.5874910000000  0.5154110000000 1.0
C      1  0.4775620000000  0.5301700000000  0.5773840000000 1.0
C      1  0.4698960000000  0.4754850000000  0.4599350000000 1.0
C      1  0.5168800000000  0.5236620000000  0.5242620000000 1.0
C      1  0.5380820000000  0.5949090000000  0.5410020000000 1.0
C      1  0.5506890000000  0.4763330000000  0.5700620000000 1.0
C      1  0.4518720000000  0.6054290000000  0.4837680000000 1.0
C      1  0.5067300000000  0.4858670000000  0.5578950000000 1.0
C      1  0.4383950000000  0.5092980000000  0.5558030000000 1.0
C      1  0.4361980000000  0.4672550000000  0.4200770000000 1.0
C      1  0.5210010000000  0.4971930000000  0.5338520000000 1.0
C      1  0.5526480000000  0.5154590000000  0.4375430000000 1.0
C      1  0.4230580000000  0.5289720000000  0.4928300000000 1.0
C      1  0.4601270000000  0.5515220000000  0.5644930000000 1.0
C      1  0.4923320000000  0.4796960000000  0.4752950000000 1.0
C      1  0.5866130000000  0.4717620000000  0.5203280000000 1.0
C      1  0.4765560000000  0.4576330000000  0.5201000000000 1.0
C      1  0.5561640000000  0.4278010000000  0.4868090000000 1.0
C      1  0.4431810000000  0.6290800000000  0.4904180000000 1.0
C      1  0.4262620000000  0.4903840000000  0.5379460000000 1.0
END
