TITL C-612601-4209-9 620.829202790321 125000 -946.197176037973 0 0 154 (C1) n - 1
REM
REM in /home/nfs/bkarasulu/CARBON/AIRSS/Generating-Clusters/TERSOFF/Only-C1/FIRE-HFTN
REM
REM
REM
REM
REM
REM ./C.cell (11c1c37f851c82e70ff6c80c92926a4b)
REM AIRSS Version 0.9.1 bugfix July 2018 build 013d7b7c2542+ Fri, 06 Jul 2018 19:26:36 +0100
REM compiler GCC version 9.2.1 20190827 (Red Hat 9.2.1-1)
REM options -cpp -mtune=generic -march=x86-64 -g -O0 -fpre-include=/usr/include/finclude/math-vector-fortran.h
REM seed 2018917898 -1747187490 1605520831 -368196693 -1848405907 -865586318 -1953290136 -1340529726 -590191615 -984562367 831394189 649906607 -292000179 -386378609 -737685874 1716365831 -266712185 1571181795 1566919313 774735037 1525213710 -776637153 -204352394 1483213044 231722149 -1994383430 562467699 -1762950624 169024941 1208435827 -1323349300 1323299769 -1890805302
REM
CELL 1.54180   50.00000   50.00000   50.00000   90.00000   90.00000   90.00000
LATT -1
SFAC C  
C      1  0.4823360000000  0.4035340000000  0.4624710000000 1.0
C      1  0.4540010000000  0.5038860000000  0.5880510000000 1.0
C      1  0.4404170000000  0.4311220000000  0.4207890000000 1.0
C      1  0.5531240000000  0.4807160000000  0.6038870000000 1.0
C      1  0.4368430000000  0.4571790000000  0.5852990000000 1.0
C      1  0.5000930000000  0.4991380000000  0.4284960000000 1.0
C      1  0.5342050000000  0.5086720000000  0.4773450000000 1.0
C      1  0.6009690000000  0.4669040000000  0.5413340000000 1.0
C      1  0.5909300000000  0.5292290000000  0.4602260000000 1.0
C      1  0.4963540000000  0.4723270000000  0.5185930000000 1.0
C      1  0.5438250000000  0.5514120000000  0.6122070000000 1.0
C      1  0.4812340000000  0.5185190000000  0.5066490000000 1.0
C      1  0.4986650000000  0.5382240000000  0.5143290000000 1.0
C      1  0.5414910000000  0.6274750000000  0.4934490000000 1.0
C      1  0.4566660000000  0.5201140000000  0.5202800000000 1.0
C      1  0.4596570000000  0.5489560000000  0.4545020000000 1.0
C      1  0.5135380000000  0.4505480000000  0.5158160000000 1.0
C      1  0.4164740000000  0.5234930000000  0.5465580000000 1.0
C      1  0.3794170000000  0.5130640000000  0.4818210000000 1.0
C      1  0.5596930000000  0.4578320000000  0.4453990000000 1.0
C      1  0.4019230000000  0.5196720000000  0.4976340000000 1.0
C      1  0.5775620000000  0.5496290000000  0.4775770000000 1.0
C      1  0.3985970000000  0.5689100000000  0.5331410000000 1.0
C      1  0.3977380000000  0.4776370000000  0.5221390000000 1.0
C      1  0.4814500000000  0.5543360000000  0.5866550000000 1.0
C      1  0.5686150000000  0.4888330000000  0.5804750000000 1.0
C      1  0.4825290000000  0.5793290000000  0.4976350000000 1.0
C      1  0.4582310000000  0.5677070000000  0.5500270000000 1.0
C      1  0.5572850000000  0.4549130000000  0.5032850000000 1.0
C      1  0.5214930000000  0.3837610000000  0.4922880000000 1.0
C      1  0.5743160000000  0.5982780000000  0.5219480000000 1.0
C      1  0.6022180000000  0.4821410000000  0.4590080000000 1.0
C      1  0.5789980000000  0.5529880000000  0.5595880000000 1.0
C      1  0.4676690000000  0.4203780000000  0.4203410000000 1.0
C      1  0.4471420000000  0.5545680000000  0.5258610000000 1.0
C      1  0.4964790000000  0.4268190000000  0.4691280000000 1.0
C      1  0.6025290000000  0.5043150000000  0.5030440000000 1.0
C      1  0.6228240000000  0.6031320000000  0.5024340000000 1.0
C      1  0.4564250000000  0.5662780000000  0.4996040000000 1.0
C      1  0.5306460000000  0.4527350000000  0.4916130000000 1.0
C      1  0.5652960000000  0.4819020000000  0.6285710000000 1.0
C      1  0.4249140000000  0.4354910000000  0.5934440000000 1.0
C      1  0.5235470000000  0.5746140000000  0.5675880000000 1.0
C      1  0.5665410000000  0.3998120000000  0.4841320000000 1.0
C      1  0.4405410000000  0.5258710000000  0.5733260000000 1.0
C      1  0.3436790000000  0.6244380000000  0.5209080000000 1.0
C      1  0.3686820000000  0.4783470000000  0.4455450000000 1.0
C      1  0.6061450000000  0.4388360000000  0.5357660000000 1.0
C      1  0.4499220000000  0.4790990000000  0.5746030000000 1.0
C      1  0.4535550000000  0.4933230000000  0.4142050000000 1.0
C      1  0.4601910000000  0.4883830000000  0.3856870000000 1.0
C      1  0.5976860000000  0.5432030000000  0.5405120000000 1.0
C      1  0.4216290000000  0.5357910000000  0.4844100000000 1.0
C      1  0.5923180000000  0.5276510000000  0.5171470000000 1.0
C      1  0.4591730000000  0.3474580000000  0.4212260000000 1.0
C      1  0.5770270000000  0.4074540000000  0.5093970000000 1.0
C      1  0.3805580000000  0.4546420000000  0.4417720000000 1.0
C      1  0.4684800000000  0.5833320000000  0.3740440000000 1.0
C      1  0.4214710000000  0.4276820000000  0.4423980000000 1.0
C      1  0.5660960000000  0.5023890000000  0.4234300000000 1.0
C      1  0.5298820000000  0.6198920000000  0.5187770000000 1.0
C      1  0.4962030000000  0.5765880000000  0.5745320000000 1.0
C      1  0.4854950000000  0.6115530000000  0.5411540000000 1.0
C      1  0.5491130000000  0.5425410000000  0.4447960000000 1.0
C      1  0.3682270000000  0.4995070000000  0.4618010000000 1.0
C      1  0.5031810000000  0.5189660000000  0.5633160000000 1.0
C      1  0.4652760000000  0.3715530000000  0.4290550000000 1.0
C      1  0.4872770000000  0.4915290000000  0.4987630000000 1.0
C      1  0.5092420000000  0.4910650000000  0.5588880000000 1.0
C      1  0.5019470000000  0.4308540000000  0.3842270000000 1.0
C      1  0.4486160000000  0.4929620000000  0.5262020000000 1.0
C      1  0.4336460000000  0.4526240000000  0.4036390000000 1.0
C      1  0.5198020000000  0.4406040000000  0.5650740000000 1.0
C      1  0.5495600000000  0.4801070000000  0.4282160000000 1.0
C      1  0.4467120000000  0.4748830000000  0.5031490000000 1.0
C      1  0.5207070000000  0.4335020000000  0.5380160000000 1.0
C      1  0.4889140000000  0.4774210000000  0.5452760000000 1.0
C      1  0.4441010000000  0.5521250000000  0.4776540000000 1.0
C      1  0.5898730000000  0.4757770000000  0.5660970000000 1.0
C      1  0.5007690000000  0.6178510000000  0.5182650000000 1.0
C      1  0.5388470000000  0.4017070000000  0.4785960000000 1.0
C      1  0.4781090000000  0.5882330000000  0.5546790000000 1.0
C      1  0.5046690000000  0.6117390000000  0.4694960000000 1.0
C      1  0.4837550000000  0.3932820000000  0.5225520000000 1.0
C      1  0.5201760000000  0.4786400000000  0.4238880000000 1.0
C      1  0.5462160000000  0.5192110000000  0.5012650000000 1.0
C      1  0.5311840000000  0.5528390000000  0.5475980000000 1.0
C      1  0.4726390000000  0.5314810000000  0.3666420000000 1.0
C      1  0.5462210000000  0.5976130000000  0.5320350000000 1.0
C      1  0.3954050000000  0.4409810000000  0.4845440000000 1.0
C      1  0.4558050000000  0.5502890000000  0.5734440000000 1.0
C      1  0.5630470000000  0.5680820000000  0.6026440000000 1.0
C      1  0.4610270000000  0.4803050000000  0.5488980000000 1.0
C      1  0.4660330000000  0.4800550000000  0.4828160000000 1.0
C      1  0.5269080000000  0.4283770000000  0.4725900000000 1.0
C      1  0.4928900000000  0.4331280000000  0.4106510000000 1.0
C      1  0.5300280000000  0.4072450000000  0.5323200000000 1.0
C      1  0.4898550000000  0.4505960000000  0.4541400000000 1.0
C      1  0.5218440000000  0.5364830000000  0.6074810000000 1.0
C      1  0.4753400000000  0.5037820000000  0.3677590000000 1.0
C      1  0.5060260000000  0.4666440000000  0.3488840000000 1.0
C      1  0.4478730000000  0.4267080000000  0.5148380000000 1.0
C      1  0.4723520000000  0.4725320000000  0.4566220000000 1.0
C      1  0.4714950000000  0.3973460000000  0.4372110000000 1.0
C      1  0.4829060000000  0.5420610000000  0.4432620000000 1.0
C      1  0.5694750000000  0.5364140000000  0.5015900000000 1.0
C      1  0.4973080000000  0.5297690000000  0.5912980000000 1.0
C      1  0.5045830000000  0.5244010000000  0.4403650000000 1.0
C      1  0.5098760000000  0.4501170000000  0.4303980000000 1.0
C      1  0.5332350000000  0.6124560000000  0.4705320000000 1.0
C      1  0.4938370000000  0.4902340000000  0.3515730000000 1.0
C      1  0.4187600000000  0.5498900000000  0.5346860000000 1.0
C      1  0.5582060000000  0.4029880000000  0.5305880000000 1.0
C      1  0.5113540000000  0.3909960000000  0.5177240000000 1.0
C      1  0.5981310000000  0.4780740000000  0.5136250000000 1.0
C      1  0.3989230000000  0.4387530000000  0.4562860000000 1.0
C      1  0.4394870000000  0.3865020000000  0.5393560000000 1.0
C      1  0.5486520000000  0.5904410000000  0.4618800000000 1.0
C      1  0.5988920000000  0.6016080000000  0.5126500000000 1.0
C      1  0.5137380000000  0.5311870000000  0.5380150000000 1.0
C      1  0.5856830000000  0.4548290000000  0.4949410000000 1.0
C      1  0.5083140000000  0.4432600000000  0.3615330000000 1.0
C      1  0.5217300000000  0.4447590000000  0.5927220000000 1.0
C      1  0.4342270000000  0.4503370000000  0.5084570000000 1.0
C      1  0.5363200000000  0.4393270000000  0.4456030000000 1.0
C      1  0.4900110000000  0.6064170000000  0.4934260000000 1.0
C      1  0.5551950000000  0.5363540000000  0.5590160000000 1.0
C      1  0.4807230000000  0.5060490000000  0.6016950000000 1.0
C      1  0.4293860000000  0.4778130000000  0.4182850000000 1.0
C      1  0.3799410000000  0.5873230000000  0.5293780000000 1.0
C      1  0.5054120000000  0.5643700000000  0.5068050000000 1.0
C      1  0.5301530000000  0.5717320000000  0.5219230000000 1.0
C      1  0.5363010000000  0.4934160000000  0.5473530000000 1.0
C      1  0.5581340000000  0.5642180000000  0.4617740000000 1.0
C      1  0.4481760000000  0.4622440000000  0.3804920000000 1.0
C      1  0.5550400000000  0.5074920000000  0.5641720000000 1.0
C      1  0.4704660000000  0.5577160000000  0.3696340000000 1.0
C      1  0.6030530000000  0.5066920000000  0.4734390000000 1.0
C      1  0.5203750000000  0.4237040000000  0.6101510000000 1.0
C      1  0.5951350000000  0.4296440000000  0.5105780000000 1.0
C      1  0.5251810000000  0.4714680000000  0.6027250000000 1.0
C      1  0.5280560000000  0.5265630000000  0.4553710000000 1.0
C      1  0.3615980000000  0.6059810000000  0.5251370000000 1.0
C      1  0.5004360000000  0.4855670000000  0.6090970000000 1.0
C      1  0.5335750000000  0.5114680000000  0.5251850000000 1.0
C      1  0.5472850000000  0.5919610000000  0.5631520000000 1.0
C      1  0.4041200000000  0.5061070000000  0.5243630000000 1.0
C      1  0.4059680000000  0.4538280000000  0.5074260000000 1.0
C      1  0.5833520000000  0.4609250000000  0.4643170000000 1.0
C      1  0.4571560000000  0.4022540000000  0.5254750000000 1.0
C      1  0.4734990000000  0.4898960000000  0.4337670000000 1.0
C      1  0.5282810000000  0.4806240000000  0.4781620000000 1.0
C      1  0.5723010000000  0.5259420000000  0.4373700000000 1.0
C      1  0.5697150000000  0.5762060000000  0.5757240000000 1.0
END
