TITL C-612601-4209-1365 -0.112794353154837 125000 -449.986904034036 0 0 74 (C1) n - 1
REM
REM in /home/nfs/bkarasulu/CARBON/AIRSS/Generating-Clusters/TERSOFF/Only-C1/FIRE-HFTN
REM
REM
REM
REM
REM
REM ./C.cell (11c1c37f851c82e70ff6c80c92926a4b)
REM AIRSS Version 0.9.1 bugfix July 2018 build 013d7b7c2542+ Fri, 06 Jul 2018 19:26:36 +0100
REM compiler GCC version 9.2.1 20190827 (Red Hat 9.2.1-1)
REM options -cpp -mtune=generic -march=x86-64 -g -O0 -fpre-include=/usr/include/finclude/math-vector-fortran.h
REM seed -818448554 -322841622 2047083670 165744322 564877981 562488767 585137034 -341690305 633881510 737045867 1557900204 1773071329 521470382 -257702571 501937595 -1799260321 -943570289 1700763269 -574019380 1515204862 -814180967 -2062429963 662725979 -1272205946 -1077424388 -1429110266 -1127570598 1865753747 -269260948 741629982 -53178634 1693984587 -1067855014
REM
CELL 1.54180   50.00000   50.00000   50.00000   90.00000   90.00000   90.00000
LATT -1
SFAC C  
C      1  0.4503710000000  0.5160530000000  0.4381080000000 1.0
C      1  0.5057290000000  0.5842700000000  0.5326450000000 1.0
C      1  0.4825920000000  0.4591300000000  0.4740550000000 1.0
C      1  0.4213210000000  0.4943470000000  0.5275250000000 1.0
C      1  0.4041890000000  0.5026290000000  0.5064400000000 1.0
C      1  0.5298910000000  0.5162040000000  0.4984280000000 1.0
C      1  0.5022240000000  0.4060230000000  0.4987950000000 1.0
C      1  0.5779330000000  0.4935810000000  0.5003430000000 1.0
C      1  0.4532440000000  0.5342310000000  0.4610080000000 1.0
C      1  0.5499470000000  0.4941820000000  0.5073170000000 1.0
C      1  0.4887910000000  0.4267900000000  0.5410520000000 1.0
C      1  0.5026700000000  0.5033700000000  0.4903840000000 1.0
C      1  0.5588110000000  0.4254700000000  0.5313770000000 1.0
C      1  0.5141990000000  0.4778750000000  0.5362090000000 1.0
C      1  0.5584730000000  0.4950650000000  0.5947460000000 1.0
C      1  0.4310930000000  0.4679190000000  0.5254950000000 1.0
C      1  0.4317060000000  0.4952810000000  0.4401050000000 1.0
C      1  0.4162090000000  0.5116760000000  0.4824440000000 1.0
C      1  0.4765630000000  0.5774310000000  0.4395090000000 1.0
C      1  0.4907010000000  0.4905730000000  0.5332490000000 1.0
C      1  0.5477130000000  0.4028580000000  0.5225730000000 1.0
C      1  0.5255300000000  0.3951670000000  0.5098660000000 1.0
C      1  0.5145840000000  0.4755910000000  0.5908410000000 1.0
C      1  0.4983810000000  0.5124190000000  0.4242640000000 1.0
C      1  0.5866180000000  0.4999090000000  0.4744590000000 1.0
C      1  0.4681900000000  0.6002430000000  0.4533950000000 1.0
C      1  0.4492690000000  0.4546590000000  0.5109650000000 1.0
C      1  0.5259920000000  0.5354310000000  0.5227530000000 1.0
C      1  0.4929690000000  0.4357300000000  0.5657790000000 1.0
C      1  0.4424980000000  0.5244300000000  0.4851200000000 1.0
C      1  0.4897800000000  0.5800560000000  0.4157280000000 1.0
C      1  0.6064670000000  0.4938920000000  0.5446860000000 1.0
C      1  0.4657120000000  0.4414530000000  0.4034460000000 1.0
C      1  0.5436050000000  0.5343570000000  0.4264780000000 1.0
C      1  0.5403270000000  0.5316600000000  0.4749280000000 1.0
C      1  0.4728120000000  0.6129840000000  0.5021350000000 1.0
C      1  0.4947740000000  0.4008840000000  0.4722940000000 1.0
C      1  0.5879410000000  0.5348510000000  0.5606090000000 1.0
C      1  0.4972360000000  0.4839020000000  0.4697970000000 1.0
C      1  0.4866100000000  0.6012500000000  0.5214860000000 1.0
C      1  0.4705990000000  0.5309540000000  0.5723420000000 1.0
C      1  0.5025490000000  0.4919210000000  0.4432860000000 1.0
C      1  0.4968830000000  0.5299340000000  0.5765460000000 1.0
C      1  0.5400570000000  0.4744970000000  0.5258530000000 1.0
C      1  0.3836610000000  0.4959780000000  0.4493270000000 1.0
C      1  0.4709080000000  0.5526050000000  0.4505290000000 1.0
C      1  0.4885560000000  0.4268470000000  0.5129010000000 1.0
C      1  0.4602780000000  0.4511320000000  0.4291010000000 1.0
C      1  0.4740390000000  0.4477190000000  0.4993310000000 1.0
C      1  0.4661160000000  0.6132480000000  0.4764420000000 1.0
C      1  0.5123260000000  0.5599790000000  0.5200620000000 1.0
C      1  0.5972570000000  0.4888010000000  0.5201430000000 1.0
C      1  0.5317810000000  0.4974250000000  0.5864270000000 1.0
C      1  0.5974900000000  0.5089350000000  0.5665640000000 1.0
C      1  0.5182510000000  0.5915190000000  0.5559010000000 1.0
C      1  0.4762010000000  0.4427490000000  0.4510160000000 1.0
C      1  0.5630210000000  0.5417450000000  0.5536470000000 1.0
C      1  0.5557150000000  0.5301990000000  0.4513120000000 1.0
C      1  0.4713900000000  0.4327700000000  0.3795400000000 1.0
C      1  0.5797860000000  0.5160800000000  0.4542390000000 1.0
C      1  0.5549540000000  0.4517780000000  0.5323510000000 1.0
C      1  0.4827370000000  0.5057400000000  0.5106840000000 1.0
C      1  0.5373860000000  0.5311660000000  0.5489650000000 1.0
C      1  0.4494750000000  0.5248100000000  0.5572630000000 1.0
C      1  0.4396180000000  0.4696140000000  0.4327510000000 1.0
C      1  0.5209070000000  0.5261430000000  0.4148870000000 1.0
C      1  0.5843740000000  0.4965920000000  0.5881640000000 1.0
C      1  0.5226320000000  0.5199800000000  0.5710450000000 1.0
C      1  0.5017970000000  0.4533220000000  0.5837430000000 1.0
C      1  0.4726210000000  0.5227480000000  0.4231170000000 1.0
C      1  0.4849150000000  0.4160250000000  0.4525710000000 1.0
C      1  0.4412440000000  0.5141820000000  0.5328820000000 1.0
C      1  0.4574110000000  0.5184280000000  0.5091810000000 1.0
C      1  0.4093970000000  0.5006060000000  0.4570510000000 1.0
END
