TITL C-612603-7354-1187 0.335154922480803 125000 -373.569974753096 0 0 64 (C1) n - 1
REM
REM in /home/nfs/bkarasulu/CARBON/AIRSS/Generating-Clusters/TERSOFF/Only-C1/FIRE-HFTN
REM
REM
REM
REM
REM
REM ./C.cell (11c1c37f851c82e70ff6c80c92926a4b)
REM AIRSS Version 0.9.1 bugfix July 2018 build 013d7b7c2542+ Fri, 06 Jul 2018 19:26:36 +0100
REM compiler GCC version 9.2.1 20190827 (Red Hat 9.2.1-1)
REM options -cpp -mtune=generic -march=x86-64 -g -O0 -fpre-include=/usr/include/finclude/math-vector-fortran.h
REM seed -1908864352 414106257 609250897 1129893554 1586353906 -1106728429 -1861291234 -728748611 2027856075 -1893818536 -928432074 1405070541 -411734127 1345327291 -91038602 1650402247 1412302665 855979864 324144349 804574691 2095248675 -1721657646 1371228731 -1095301697 -824871608 -572940291 -131455897 398676485 -557370518 -2103230148 1982579189 -1945536137 888699231
REM
CELL 1.54180   50.00000   50.00000   50.00000   90.00000   90.00000   90.00000
LATT -1
SFAC C  
C      1  0.4465000000000  0.4882760000000  0.5649530000000 1.0
C      1  0.5718890000000  0.5550780000000  0.4729320000000 1.0
C      1  0.6139370000000  0.5734060000000  0.4446100000000 1.0
C      1  0.3697590000000  0.5142970000000  0.5564260000000 1.0
C      1  0.5472950000000  0.5695330000000  0.4738270000000 1.0
C      1  0.4920750000000  0.4199490000000  0.5375730000000 1.0
C      1  0.5505790000000  0.4809480000000  0.5602190000000 1.0
C      1  0.5067210000000  0.4930400000000  0.5815520000000 1.0
C      1  0.5701470000000  0.5323660000000  0.5151440000000 1.0
C      1  0.5031070000000  0.3953810000000  0.5428700000000 1.0
C      1  0.5718490000000  0.4789740000000  0.4887230000000 1.0
C      1  0.5031390000000  0.5177480000000  0.4602380000000 1.0
C      1  0.3580710000000  0.5215160000000  0.5304310000000 1.0
C      1  0.5177960000000  0.4456960000000  0.4688320000000 1.0
C      1  0.3951920000000  0.5053000000000  0.5620580000000 1.0
C      1  0.5262620000000  0.5154680000000  0.5364610000000 1.0
C      1  0.4626170000000  0.4245950000000  0.4921180000000 1.0
C      1  0.4391330000000  0.4980610000000  0.4822820000000 1.0
C      1  0.5263660000000  0.5610250000000  0.4573020000000 1.0
C      1  0.4622330000000  0.4854130000000  0.4857070000000 1.0
C      1  0.4940340000000  0.4473170000000  0.5798390000000 1.0
C      1  0.5749260000000  0.5044460000000  0.4468180000000 1.0
C      1  0.5196830000000  0.5358540000000  0.4168780000000 1.0
C      1  0.5450100000000  0.5250100000000  0.4111890000000 1.0
C      1  0.4605720000000  0.4813090000000  0.5884560000000 1.0
C      1  0.5215890000000  0.4906120000000  0.5561370000000 1.0
C      1  0.5212330000000  0.4801050000000  0.4358220000000 1.0
C      1  0.5411380000000  0.5878910000000  0.4947240000000 1.0
C      1  0.3473420000000  0.5191520000000  0.5748150000000 1.0
C      1  0.4847010000000  0.4744980000000  0.4981470000000 1.0
C      1  0.5105370000000  0.4621400000000  0.4910170000000 1.0
C      1  0.4995510000000  0.4250500000000  0.4627790000000 1.0
C      1  0.5054150000000  0.5196190000000  0.4890680000000 1.0
C      1  0.4718530000000  0.4310290000000  0.4660480000000 1.0
C      1  0.5014590000000  0.5426080000000  0.3969990000000 1.0
C      1  0.4723230000000  0.4219450000000  0.5171920000000 1.0
C      1  0.4638040000000  0.4532120000000  0.4497720000000 1.0
C      1  0.5138370000000  0.5394910000000  0.4446390000000 1.0
C      1  0.5557590000000  0.5166040000000  0.5326600000000 1.0
C      1  0.3249770000000  0.5282720000000  0.5606930000000 1.0
C      1  0.5212890000000  0.5792780000000  0.5127120000000 1.0
C      1  0.5871860000000  0.4581660000000  0.4792230000000 1.0
C      1  0.5561210000000  0.4741270000000  0.5122860000000 1.0
C      1  0.5012390000000  0.4426140000000  0.5525980000000 1.0
C      1  0.5535250000000  0.6120680000000  0.4969960000000 1.0
C      1  0.3315140000000  0.5297120000000  0.5336480000000 1.0
C      1  0.5735960000000  0.5045020000000  0.4749990000000 1.0
C      1  0.4838230000000  0.5485020000000  0.3787400000000 1.0
C      1  0.4742450000000  0.4773990000000  0.4424670000000 1.0
C      1  0.5108620000000  0.5289650000000  0.5159530000000 1.0
C      1  0.4836950000000  0.4777380000000  0.5265220000000 1.0
C      1  0.5655240000000  0.5129950000000  0.4233780000000 1.0
C      1  0.5100520000000  0.4681000000000  0.5383600000000 1.0
C      1  0.5937760000000  0.5649230000000  0.4587740000000 1.0
C      1  0.5639150000000  0.4887630000000  0.5357880000000 1.0
C      1  0.5734570000000  0.5305040000000  0.4874100000000 1.0
C      1  0.4162630000000  0.5104650000000  0.4806860000000 1.0
C      1  0.5288210000000  0.4643270000000  0.5134690000000 1.0
C      1  0.5314440000000  0.4580670000000  0.4475720000000 1.0
C      1  0.4613620000000  0.4859050000000  0.5411720000000 1.0
C      1  0.4200740000000  0.4968150000000  0.5652100000000 1.0
C      1  0.4977990000000  0.4935140000000  0.4449710000000 1.0
C      1  0.4876150000000  0.4734210000000  0.5894660000000 1.0
C      1  0.5083920000000  0.5568950000000  0.5196490000000 1.0
END
