TITL C-612602-9376-948 0.000160073190727149 125000 -414.624393680644 0 0 67 (C1) n - 1
REM
REM in /home/nfs/bkarasulu/CARBON/AIRSS/Generating-Clusters/TERSOFF/Only-C1/FIRE-HFTN
REM
REM
REM
REM
REM
REM ./C.cell (11c1c37f851c82e70ff6c80c92926a4b)
REM AIRSS Version 0.9.1 bugfix July 2018 build 013d7b7c2542+ Fri, 06 Jul 2018 19:26:36 +0100
REM compiler GCC version 9.2.1 20190827 (Red Hat 9.2.1-1)
REM options -cpp -mtune=generic -march=x86-64 -g -O0 -fpre-include=/usr/include/finclude/math-vector-fortran.h
REM seed -612583678 1236379134 2073511600 -1249413377 893219476 -1214999154 1965397305 -1708062699 387874286 -326127403 -538936085 1706260776 -423526095 1628375093 801230977 -709278445 -1967660362 8095702 -1818457518 1431003912 1333862101 1290121843 -1302746983 -799604866 -2146664443 1246335065 1140498302 -2004511886 -1843024958 -1056292349 -710479430 1029300656 -254866785
REM
CELL 1.54180   50.00000   50.00000   50.00000   90.00000   90.00000   90.00000
LATT -1
SFAC C  
C      1  0.5432840000000  0.4798180000000  0.5636450000000 1.0
C      1  0.5054170000000  0.3927440000000  0.5133950000000 1.0
C      1  0.4429440000000  0.4274590000000  0.4346950000000 1.0
C      1  0.5753360000000  0.4910580000000  0.5263300000000 1.0
C      1  0.5188990000000  0.4144430000000  0.5259440000000 1.0
C      1  0.5660370000000  0.4829920000000  0.5499750000000 1.0
C      1  0.4432720000000  0.5598380000000  0.4918270000000 1.0
C      1  0.5330770000000  0.4970620000000  0.4409190000000 1.0
C      1  0.5704820000000  0.5036040000000  0.5033680000000 1.0
C      1  0.4318260000000  0.5375660000000  0.5066080000000 1.0
C      1  0.4614200000000  0.5796310000000  0.5044260000000 1.0
C      1  0.5154870000000  0.4802170000000  0.5581990000000 1.0
C      1  0.5332110000000  0.4701210000000  0.4502810000000 1.0
C      1  0.4848320000000  0.4122930000000  0.5910950000000 1.0
C      1  0.4890870000000  0.3503670000000  0.5423950000000 1.0
C      1  0.5726490000000  0.5483160000000  0.4864310000000 1.0
C      1  0.4683650000000  0.5767790000000  0.5314880000000 1.0
C      1  0.5582640000000  0.5240710000000  0.4886370000000 1.0
C      1  0.5301410000000  0.5236760000000  0.4830040000000 1.0
C      1  0.4997030000000  0.5342210000000  0.4451510000000 1.0
C      1  0.5074480000000  0.5522890000000  0.5185870000000 1.0
C      1  0.5408600000000  0.5381740000000  0.5618040000000 1.0
C      1  0.4258710000000  0.5126250000000  0.4903900000000 1.0
C      1  0.5519640000000  0.5576400000000  0.5464430000000 1.0
C      1  0.4125000000000  0.5137160000000  0.4656840000000 1.0
C      1  0.4934260000000  0.4805160000000  0.4966330000000 1.0
C      1  0.4825190000000  0.5878340000000  0.4857680000000 1.0
C      1  0.5451540000000  0.5030040000000  0.4170080000000 1.0
C      1  0.4555360000000  0.4482290000000  0.4441450000000 1.0
C      1  0.5101810000000  0.4245140000000  0.4436030000000 1.0
C      1  0.4959800000000  0.5512580000000  0.5652020000000 1.0
C      1  0.5501790000000  0.5722950000000  0.5218350000000 1.0
C      1  0.4523470000000  0.5579760000000  0.4637110000000 1.0
C      1  0.4724920000000  0.5062660000000  0.5675830000000 1.0
C      1  0.5109750000000  0.4644610000000  0.5110510000000 1.0
C      1  0.4757970000000  0.5739450000000  0.4603120000000 1.0
C      1  0.5067840000000  0.4315530000000  0.5458600000000 1.0
C      1  0.4499040000000  0.5362620000000  0.4455380000000 1.0
C      1  0.5011360000000  0.5038250000000  0.5664730000000 1.0
C      1  0.5074700000000  0.4597090000000  0.5393990000000 1.0
C      1  0.5034670000000  0.4057880000000  0.4614160000000 1.0
C      1  0.5209240000000  0.5778780000000  0.4615370000000 1.0
C      1  0.5437690000000  0.4633500000000  0.4755040000000 1.0
C      1  0.5211140000000  0.5182810000000  0.4561100000000 1.0
C      1  0.4918120000000  0.5072960000000  0.5077060000000 1.0
C      1  0.5338140000000  0.4523260000000  0.4990710000000 1.0
C      1  0.5011990000000  0.3946900000000  0.4855740000000 1.0
C      1  0.5240040000000  0.5741060000000  0.5102590000000 1.0
C      1  0.4970580000000  0.3704730000000  0.5278570000000 1.0
C      1  0.5104570000000  0.5277630000000  0.5040190000000 1.0
C      1  0.4645870000000  0.5090410000000  0.5140850000000 1.0
C      1  0.4481540000000  0.4941320000000  0.4944330000000 1.0
C      1  0.4893460000000  0.5600580000000  0.5395450000000 1.0
C      1  0.4741890000000  0.5218360000000  0.4395400000000 1.0
C      1  0.4479410000000  0.5265230000000  0.5291520000000 1.0
C      1  0.4722620000000  0.4938060000000  0.4375950000000 1.0
C      1  0.4244790000000  0.5241400000000  0.4437640000000 1.0
C      1  0.5710990000000  0.5695250000000  0.5030890000000 1.0
C      1  0.5393590000000  0.4271640000000  0.5105260000000 1.0
C      1  0.5124520000000  0.5873990000000  0.4878880000000 1.0
C      1  0.5000240000000  0.5625760000000  0.4486210000000 1.0
C      1  0.4680660000000  0.4768530000000  0.4819940000000 1.0
C      1  0.4661520000000  0.4718710000000  0.4542260000000 1.0
C      1  0.5201430000000  0.4486350000000  0.4375220000000 1.0
C      1  0.4518960000000  0.5206070000000  0.5565500000000 1.0
C      1  0.4954990000000  0.4218050000000  0.5693050000000 1.0
C      1  0.5144760000000  0.5297070000000  0.5682690000000 1.0
END
