TITL C-612604-1799-645 3.12243987921076 125000 -444.531499478867 0 0 75 (C1) n - 1
REM
REM in /home/nfs/bkarasulu/CARBON/AIRSS/Generating-Clusters/TERSOFF/Only-C1/FIRE-HFTN
REM
REM
REM
REM
REM
REM ./C.cell (11c1c37f851c82e70ff6c80c92926a4b)
REM AIRSS Version 0.9.1 bugfix July 2018 build 013d7b7c2542+ Fri, 06 Jul 2018 19:26:36 +0100
REM compiler GCC version 9.2.1 20190827 (Red Hat 9.2.1-1)
REM options -cpp -mtune=generic -march=x86-64 -g -O0 -fpre-include=/usr/include/finclude/math-vector-fortran.h
REM seed 1774018406 244534288 -1232185897 -291130573 -504403184 413401626 -1939592924 715753855 -1546141038 -1472388458 -1501504772 197376386 -817620357 -42297103 -82874779 455688592 -844344871 1644721028 467380971 61101831 920362890 2059718110 -908287215 -805060582 1177323942 -1187821626 -1565983239 -2131931023 -360757634 -873187234 1657478224 1426432227 357472167
REM
CELL 1.54180   50.00000   50.00000   50.00000   90.00000   90.00000   90.00000
LATT -1
SFAC C  
C      1  0.6476960000000  0.5813390000000  0.5769910000000 1.0
C      1  0.5696620000000  0.4004860000000  0.4534590000000 1.0
C      1  0.4402200000000  0.4805460000000  0.4445010000000 1.0
C      1  0.5946390000000  0.4632330000000  0.5482930000000 1.0
C      1  0.3731620000000  0.5284050000000  0.6436420000000 1.0
C      1  0.4786600000000  0.4237580000000  0.4943110000000 1.0
C      1  0.4657760000000  0.5354660000000  0.4916930000000 1.0
C      1  0.4135120000000  0.5058070000000  0.4751660000000 1.0
C      1  0.4206420000000  0.4793190000000  0.4655100000000 1.0
C      1  0.5872200000000  0.5284490000000  0.5077270000000 1.0
C      1  0.4169360000000  0.4588040000000  0.4853940000000 1.0
C      1  0.4639740000000  0.4297540000000  0.4044710000000 1.0
C      1  0.5490700000000  0.4814050000000  0.4593640000000 1.0
C      1  0.4816830000000  0.5018640000000  0.5446570000000 1.0
C      1  0.5529990000000  0.5837470000000  0.5268640000000 1.0
C      1  0.5866430000000  0.4880120000000  0.5531900000000 1.0
C      1  0.5995810000000  0.4395880000000  0.5373690000000 1.0
C      1  0.5752340000000  0.5285030000000  0.5763030000000 1.0
C      1  0.4888510000000  0.5238520000000  0.4745660000000 1.0
C      1  0.4362270000000  0.5306110000000  0.4410590000000 1.0
C      1  0.5270650000000  0.6185430000000  0.4965520000000 1.0
C      1  0.4125180000000  0.5263470000000  0.4560660000000 1.0
C      1  0.4824750000000  0.4087380000000  0.5167550000000 1.0
C      1  0.5079180000000  0.5032170000000  0.5394510000000 1.0
C      1  0.5770990000000  0.5142980000000  0.5529930000000 1.0
C      1  0.4594280000000  0.5095720000000  0.5321310000000 1.0
C      1  0.4315960000000  0.4349800000000  0.4855650000000 1.0
C      1  0.4615530000000  0.4358320000000  0.4308980000000 1.0
C      1  0.5413290000000  0.4374700000000  0.4415720000000 1.0
C      1  0.4529380000000  0.5077090000000  0.4419780000000 1.0
C      1  0.5028270000000  0.6196640000000  0.4856260000000 1.0
C      1  0.6711510000000  0.5790750000000  0.5891300000000 1.0
C      1  0.5999150000000  0.4191760000000  0.5204430000000 1.0
C      1  0.5352440000000  0.3873250000000  0.3901350000000 1.0
C      1  0.4550780000000  0.4214660000000  0.4784480000000 1.0
C      1  0.5424460000000  0.5346700000000  0.5249930000000 1.0
C      1  0.5323830000000  0.4601320000000  0.4553200000000 1.0
C      1  0.4217440000000  0.5098640000000  0.5020500000000 1.0
C      1  0.3999230000000  0.5002340000000  0.5454940000000 1.0
C      1  0.4623530000000  0.4621960000000  0.4407580000000 1.0
C      1  0.4799760000000  0.6075000000000  0.4794500000000 1.0
C      1  0.5025110000000  0.5460460000000  0.4579860000000 1.0
C      1  0.5453210000000  0.6054020000000  0.5107500000000 1.0
C      1  0.4789960000000  0.5035710000000  0.4547070000000 1.0
C      1  0.5221920000000  0.5156880000000  0.5186450000000 1.0
C      1  0.4080260000000  0.4923430000000  0.5201130000000 1.0
C      1  0.5947780000000  0.4045800000000  0.4989000000000 1.0
C      1  0.4583020000000  0.4162230000000  0.4508870000000 1.0
C      1  0.4481660000000  0.5192600000000  0.5081020000000 1.0
C      1  0.4529250000000  0.5769970000000  0.4530640000000 1.0
C      1  0.3864030000000  0.5144140000000  0.5947220000000 1.0
C      1  0.4027280000000  0.4662600000000  0.5093510000000 1.0
C      1  0.6242340000000  0.5835550000000  0.5648740000000 1.0
C      1  0.5057780000000  0.4603330000000  0.4651210000000 1.0
C      1  0.3797270000000  0.5214670000000  0.6193850000000 1.0
C      1  0.5692600000000  0.5259710000000  0.5282400000000 1.0
C      1  0.4833830000000  0.5697430000000  0.5206740000000 1.0
C      1  0.3930860000000  0.5073630000000  0.5700680000000 1.0
C      1  0.5843010000000  0.3980130000000  0.4754320000000 1.0
C      1  0.4654550000000  0.5836310000000  0.4772040000000 1.0
C      1  0.6942190000000  0.5768480000000  0.6010690000000 1.0
C      1  0.5442690000000  0.3990850000000  0.4120940000000 1.0
C      1  0.6006500000000  0.5851190000000  0.5528970000000 1.0
C      1  0.5348190000000  0.5618980000000  0.5290860000000 1.0
C      1  0.4977610000000  0.4423960000000  0.4852850000000 1.0
C      1  0.5259040000000  0.3759740000000  0.3686050000000 1.0
C      1  0.5074690000000  0.5679010000000  0.5319340000000 1.0
C      1  0.5105720000000  0.5141640000000  0.4930240000000 1.0
C      1  0.5769690000000  0.5844980000000  0.5410480000000 1.0
C      1  0.4447850000000  0.5568790000000  0.4375430000000 1.0
C      1  0.5517870000000  0.4122750000000  0.4354890000000 1.0
C      1  0.4857530000000  0.4755240000000  0.4524080000000 1.0
C      1  0.3671260000000  0.4329890000000  0.5324300000000 1.0
C      1  0.4687410000000  0.5636220000000  0.4974360000000 1.0
C      1  0.3842600000000  0.4490160000000  0.5210860000000 1.0
END
