TITL C-612603-7354-1294 45.126403831931 125000 -829.618234699691 0 0 137 (C1) n - 1
REM
REM in /home/nfs/bkarasulu/CARBON/AIRSS/Generating-Clusters/TERSOFF/Only-C1/FIRE-HFTN
REM
REM
REM
REM
REM
REM ./C.cell (11c1c37f851c82e70ff6c80c92926a4b)
REM AIRSS Version 0.9.1 bugfix July 2018 build 013d7b7c2542+ Fri, 06 Jul 2018 19:26:36 +0100
REM compiler GCC version 9.2.1 20190827 (Red Hat 9.2.1-1)
REM options -cpp -mtune=generic -march=x86-64 -g -O0 -fpre-include=/usr/include/finclude/math-vector-fortran.h
REM seed -2103990249 -1831291642 -145733091 1513836182 1635933698 -1327277149 1958635858 188551474 215595926 -1347277290 323098960 1327023073 -1331283976 -1300685565 -630415064 1032265831 -53787255 -421483123 1343401832 1735138130 -54551317 848643991 390615094 329962517 -1443398615 814025190 1840595756 594237353 2001628752 -657823318 -778052801 -100781945 1824374511
REM
CELL 1.54180   50.00000   50.00000   50.00000   90.00000   90.00000   90.00000
LATT -1
SFAC C  
C      1  0.4934130000000  0.5268780000000  0.4489410000000 1.0
C      1  0.5101870000000  0.5582120000000  0.5940170000000 1.0
C      1  0.5504830000000  0.4346030000000  0.4171750000000 1.0
C      1  0.5337370000000  0.6100460000000  0.4684220000000 1.0
C      1  0.4999570000000  0.4275700000000  0.5390310000000 1.0
C      1  0.5171210000000  0.4232900000000  0.5168660000000 1.0
C      1  0.5953330000000  0.4422720000000  0.5202310000000 1.0
C      1  0.4135550000000  0.5765040000000  0.5488250000000 1.0
C      1  0.5218920000000  0.4692220000000  0.5720440000000 1.0
C      1  0.3766180000000  0.5241500000000  0.4445440000000 1.0
C      1  0.5980870000000  0.5195040000000  0.5687250000000 1.0
C      1  0.5712210000000  0.5615120000000  0.5484050000000 1.0
C      1  0.4892910000000  0.4565640000000  0.4599920000000 1.0
C      1  0.4284000000000  0.5268690000000  0.4965810000000 1.0
C      1  0.5903260000000  0.4850320000000  0.4258000000000 1.0
C      1  0.4662220000000  0.5083710000000  0.5981640000000 1.0
C      1  0.5105450000000  0.5169270000000  0.4700460000000 1.0
C      1  0.4602730000000  0.5147940000000  0.5315290000000 1.0
C      1  0.5264690000000  0.5085170000000  0.5963910000000 1.0
C      1  0.5627260000000  0.4272240000000  0.4807510000000 1.0
C      1  0.4281420000000  0.4606970000000  0.5538840000000 1.0
C      1  0.5235760000000  0.4708720000000  0.4341430000000 1.0
C      1  0.5341410000000  0.4268260000000  0.4397430000000 1.0
C      1  0.5594970000000  0.4971040000000  0.5298070000000 1.0
C      1  0.5143340000000  0.4767220000000  0.4086390000000 1.0
C      1  0.4596040000000  0.5880250000000  0.5555030000000 1.0
C      1  0.4582740000000  0.4062960000000  0.5228530000000 1.0
C      1  0.5119040000000  0.5127500000000  0.3792260000000 1.0
C      1  0.5463830000000  0.5391130000000  0.5086950000000 1.0
C      1  0.5160190000000  0.5891340000000  0.4724900000000 1.0
C      1  0.5478110000000  0.5137960000000  0.5806750000000 1.0
C      1  0.5804500000000  0.5449310000000  0.4351820000000 1.0
C      1  0.4465960000000  0.4471890000000  0.4326840000000 1.0
C      1  0.4932680000000  0.4357490000000  0.5903260000000 1.0
C      1  0.5582400000000  0.4578010000000  0.4049100000000 1.0
C      1  0.4018900000000  0.5179540000000  0.4886910000000 1.0
C      1  0.4116800000000  0.5656030000000  0.4338140000000 1.0
C      1  0.3969960000000  0.4961460000000  0.5091480000000 1.0
C      1  0.5535850000000  0.4448150000000  0.5418530000000 1.0
C      1  0.4493830000000  0.6096230000000  0.4996820000000 1.0
C      1  0.4930980000000  0.4472780000000  0.4860830000000 1.0
C      1  0.4505090000000  0.5171800000000  0.4819600000000 1.0
C      1  0.4742960000000  0.4821970000000  0.4596910000000 1.0
C      1  0.5129120000000  0.5451960000000  0.4362030000000 1.0
C      1  0.5098450000000  0.5201790000000  0.5328730000000 1.0
C      1  0.5384520000000  0.5226090000000  0.3867080000000 1.0
C      1  0.5362350000000  0.5256190000000  0.4324830000000 1.0
C      1  0.4136860000000  0.4526500000000  0.4958650000000 1.0
C      1  0.3948870000000  0.4722800000000  0.4926260000000 1.0
C      1  0.4166160000000  0.5290050000000  0.5843060000000 1.0
C      1  0.5558480000000  0.5609550000000  0.4934420000000 1.0
C      1  0.5333730000000  0.5595710000000  0.5804040000000 1.0
C      1  0.4662860000000  0.4887410000000  0.5188430000000 1.0
C      1  0.4781990000000  0.4099150000000  0.5403760000000 1.0
C      1  0.5551140000000  0.5464990000000  0.3882890000000 1.0
C      1  0.5627230000000  0.5854420000000  0.5320180000000 1.0
C      1  0.5311220000000  0.5392840000000  0.5331090000000 1.0
C      1  0.5815800000000  0.5319830000000  0.4593330000000 1.0
C      1  0.4475410000000  0.4536680000000  0.5740840000000 1.0
C      1  0.4327740000000  0.4344810000000  0.4830230000000 1.0
C      1  0.5481270000000  0.5088100000000  0.4106570000000 1.0
C      1  0.5660050000000  0.4850910000000  0.4109660000000 1.0
C      1  0.4744070000000  0.5067100000000  0.4420310000000 1.0
C      1  0.4707460000000  0.4950700000000  0.4883580000000 1.0
C      1  0.3885040000000  0.5099460000000  0.4642670000000 1.0
C      1  0.5258130000000  0.3947070000000  0.4758310000000 1.0
C      1  0.5119010000000  0.4466200000000  0.4440130000000 1.0
C      1  0.6141840000000  0.5084230000000  0.5100670000000 1.0
C      1  0.4602300000000  0.5079920000000  0.4176930000000 1.0
C      1  0.5690850000000  0.5818990000000  0.5045010000000 1.0
C      1  0.4860520000000  0.5499590000000  0.5826040000000 1.0
C      1  0.4381120000000  0.5474830000000  0.5819660000000 1.0
C      1  0.4687960000000  0.4864620000000  0.4009430000000 1.0
C      1  0.4735940000000  0.6017660000000  0.4921930000000 1.0
C      1  0.4631850000000  0.5362570000000  0.5917950000000 1.0
C      1  0.4837990000000  0.5292650000000  0.5395640000000 1.0
C      1  0.5718020000000  0.5518070000000  0.4099780000000 1.0
C      1  0.5811980000000  0.4678410000000  0.5686460000000 1.0
C      1  0.4857330000000  0.5527300000000  0.5542240000000 1.0
C      1  0.4263510000000  0.5488530000000  0.4192290000000 1.0
C      1  0.5885330000000  0.4409500000000  0.4914620000000 1.0
C      1  0.4429980000000  0.4227600000000  0.5075520000000 1.0
C      1  0.4269220000000  0.6064280000000  0.5135120000000 1.0
C      1  0.6088730000000  0.5308190000000  0.5252180000000 1.0
C      1  0.3854520000000  0.4813440000000  0.4671150000000 1.0
C      1  0.5963840000000  0.4922130000000  0.5723550000000 1.0
C      1  0.5939800000000  0.5406930000000  0.5483740000000 1.0
C      1  0.4315570000000  0.3843100000000  0.4417120000000 1.0
C      1  0.5825170000000  0.4484540000000  0.5455470000000 1.0
C      1  0.4966440000000  0.4910200000000  0.3919920000000 1.0
C      1  0.5144480000000  0.5700590000000  0.4507790000000 1.0
C      1  0.4791500000000  0.4704530000000  0.5361510000000 1.0
C      1  0.4424420000000  0.4294500000000  0.4558140000000 1.0
C      1  0.5989460000000  0.4951230000000  0.4896120000000 1.0
C      1  0.3891890000000  0.5792810000000  0.5050510000000 1.0
C      1  0.5571150000000  0.5088890000000  0.5557520000000 1.0
C      1  0.5446240000000  0.5516060000000  0.5558550000000 1.0
C      1  0.4369230000000  0.5714800000000  0.5643560000000 1.0
C      1  0.4810680000000  0.4842550000000  0.5944640000000 1.0
C      1  0.5610550000000  0.5150740000000  0.5058780000000 1.0
C      1  0.5088500000000  0.4877710000000  0.5896860000000 1.0
C      1  0.5455390000000  0.4110880000000  0.4622870000000 1.0
C      1  0.4987080000000  0.5050240000000  0.4911200000000 1.0
C      1  0.5405660000000  0.4839530000000  0.4532270000000 1.0
C      1  0.3967950000000  0.5746490000000  0.4539540000000 1.0
C      1  0.5346530000000  0.5106670000000  0.4570240000000 1.0
C      1  0.5519890000000  0.4675910000000  0.5786730000000 1.0
C      1  0.4115460000000  0.5029930000000  0.5788490000000 1.0
C      1  0.5178080000000  0.4260190000000  0.5808500000000 1.0
C      1  0.4247760000000  0.4465980000000  0.5294440000000 1.0
C      1  0.4080140000000  0.5882400000000  0.5237800000000 1.0
C      1  0.3867820000000  0.5767140000000  0.4785570000000 1.0
C      1  0.4847100000000  0.5793070000000  0.5438120000000 1.0
C      1  0.4416090000000  0.5280120000000  0.4128220000000 1.0
C      1  0.5018870000000  0.3876590000000  0.4626410000000 1.0
C      1  0.5441660000000  0.4494350000000  0.4848150000000 1.0
C      1  0.4995210000000  0.5913660000000  0.4966220000000 1.0
C      1  0.5113390000000  0.4986980000000  0.5147770000000 1.0
C      1  0.5468240000000  0.4711990000000  0.5293310000000 1.0
C      1  0.4503820000000  0.4020160000000  0.4509290000000 1.0
C      1  0.5063340000000  0.5887020000000  0.5254320000000 1.0
C      1  0.4154240000000  0.4867680000000  0.5560320000000 1.0
C      1  0.5992180000000  0.4717530000000  0.4476630000000 1.0
C      1  0.5567590000000  0.4711590000000  0.4717050000000 1.0
C      1  0.4127690000000  0.5015210000000  0.5320930000000 1.0
C      1  0.4720620000000  0.4567460000000  0.5889820000000 1.0
C      1  0.5188080000000  0.4483020000000  0.5001990000000 1.0
C      1  0.5787620000000  0.5153240000000  0.4827570000000 1.0
C      1  0.5887700000000  0.4692210000000  0.4761020000000 1.0
C      1  0.4331730000000  0.5214920000000  0.5253240000000 1.0
C      1  0.4767600000000  0.3932050000000  0.4554330000000 1.0
C      1  0.4993890000000  0.4550320000000  0.5490230000000 1.0
C      1  0.5385790000000  0.4284020000000  0.5619630000000 1.0
C      1  0.5339980000000  0.5936070000000  0.5343890000000 1.0
C      1  0.5222540000000  0.4729520000000  0.5162520000000 1.0
C      1  0.4573410000000  0.4612810000000  0.4113810000000 1.0
C      1  0.5239730000000  0.3992460000000  0.5038480000000 1.0
END
