TITL C-612607-4507-27 0.000349377397160147 125000 -205.285460142432 0 0 35 (C1) n - 1
REM
REM in /home/nfs/bkarasulu/CARBON/AIRSS/Generating-Clusters/TERSOFF/Only-C1/FIRE-HFTN
REM
REM
REM
REM
REM
REM ./C.cell (11c1c37f851c82e70ff6c80c92926a4b)
REM AIRSS Version 0.9.1 bugfix July 2018 build 013d7b7c2542+ Fri, 06 Jul 2018 19:26:36 +0100
REM compiler GCC version 9.2.1 20190827 (Red Hat 9.2.1-1)
REM options -cpp -mtune=generic -march=x86-64 -g -O0 -fpre-include=/usr/include/finclude/math-vector-fortran.h
REM seed 1984877478 -1728763843 669196235 604667408 -1160838576 1683183219 1660048794 -1431500714 -158596744 -1767454730 1762639654 764089119 1156879071 1333257511 351038661 1418065453 646542018 1988635708 1652011493 1987343693 360931717 -1768431238 1444758183 1123171091 -2119010885 -1881693772 969103328 1167790540 1455899621 -1750005053 1652001130 -97535698 432217728
REM
CELL 1.54180   50.00000   50.00000   50.00000   90.00000   90.00000   90.00000
LATT -1
SFAC C  
C      1  0.4785200000000  0.5707960000000  0.5338480000000 1.0
C      1  0.5035880000000  0.5488800000000  0.4667450000000 1.0
C      1  0.5264730000000  0.4856860000000  0.5515690000000 1.0
C      1  0.5406520000000  0.4873190000000  0.5274030000000 1.0
C      1  0.4413910000000  0.5305810000000  0.4732220000000 1.0
C      1  0.4770950000000  0.4626980000000  0.4714810000000 1.0
C      1  0.4297780000000  0.5111270000000  0.4887090000000 1.0
C      1  0.5650140000000  0.4264010000000  0.4878590000000 1.0
C      1  0.5556270000000  0.4526440000000  0.4883220000000 1.0
C      1  0.4564050000000  0.4698050000000  0.4906020000000 1.0
C      1  0.5363230000000  0.4937490000000  0.5776320000000 1.0
C      1  0.5524000000000  0.4671920000000  0.4645200000000 1.0
C      1  0.5265880000000  0.5326730000000  0.4704980000000 1.0
C      1  0.4975880000000  0.4916250000000  0.5530810000000 1.0
C      1  0.5433580000000  0.5127600000000  0.5157190000000 1.0
C      1  0.4777280000000  0.4793180000000  0.5381270000000 1.0
C      1  0.5490660000000  0.4651400000000  0.5125970000000 1.0
C      1  0.4334750000000  0.4845040000000  0.4509910000000 1.0
C      1  0.4595590000000  0.5249850000000  0.4515440000000 1.0
C      1  0.4334620000000  0.4839640000000  0.4800430000000 1.0
C      1  0.5171240000000  0.5086370000000  0.5909440000000 1.0
C      1  0.4926810000000  0.4404950000000  0.4745400000000 1.0
C      1  0.4630440000000  0.4708170000000  0.5177180000000 1.0
C      1  0.5734650000000  0.4017520000000  0.4873830000000 1.0
C      1  0.4785570000000  0.5344540000000  0.5706680000000 1.0
C      1  0.4792080000000  0.4798490000000  0.4486460000000 1.0
C      1  0.4829570000000  0.5401830000000  0.4497390000000 1.0
C      1  0.4975760000000  0.5687790000000  0.4856300000000 1.0
C      1  0.5451470000000  0.4889000000000  0.4508840000000 1.0
C      1  0.4933340000000  0.5112750000000  0.5745960000000 1.0
C      1  0.4743570000000  0.5559620000000  0.5555390000000 1.0
C      1  0.4876780000000  0.5756740000000  0.5093550000000 1.0
C      1  0.5375810000000  0.5299300000000  0.4962410000000 1.0
C      1  0.5354030000000  0.5137660000000  0.4516700000000 1.0
C      1  0.4577980000000  0.4976810000000  0.4419330000000 1.0
END
