TITL C-612605-9286-460 -9.75505811122936e-05 125000 -1172.81153977883 0 0 187 (C1) n - 1
REM
REM in /home/nfs/bkarasulu/CARBON/AIRSS/Generating-Clusters/TERSOFF/Only-C1/FIRE-HFTN
REM
REM
REM
REM
REM
REM ./C.cell (11c1c37f851c82e70ff6c80c92926a4b)
REM AIRSS Version 0.9.1 bugfix July 2018 build 013d7b7c2542+ Fri, 06 Jul 2018 19:26:36 +0100
REM compiler GCC version 9.2.1 20190827 (Red Hat 9.2.1-1)
REM options -cpp -mtune=generic -march=x86-64 -g -O0 -fpre-include=/usr/include/finclude/math-vector-fortran.h
REM seed 1456409906 -349571162 1734858680 -2035330395 -1116705281 133459220 -340793169 -300654305 950811257 839676926 -1409820950 1255836287 68005591 -1297907793 1375645864 1467614663 -1451548328 -1518494753 1651806324 1478808050 225246753 -1175408766 845124828 -1171419487 -1607775022 -1637313610 1689217096 -51664655 927282580 1433267931 -1137256279 -881225556 1881801309
REM
CELL 1.54180   50.00000   50.00000   50.00000   90.00000   90.00000   90.00000
LATT -1
SFAC C  
C      1  0.4973520000000  0.5426740000000  0.3715430000000 1.0
C      1  0.4472290000000  0.4373040000000  0.5963000000000 1.0
C      1  0.5508280000000  0.4960660000000  0.4647310000000 1.0
C      1  0.4120400000000  0.4196030000000  0.4867770000000 1.0
C      1  0.5700560000000  0.5278750000000  0.4298700000000 1.0
C      1  0.5673250000000  0.4863020000000  0.5421790000000 1.0
C      1  0.4916410000000  0.4713050000000  0.4714930000000 1.0
C      1  0.5975080000000  0.4989950000000  0.5771470000000 1.0
C      1  0.3792330000000  0.5521760000000  0.4263270000000 1.0
C      1  0.6063370000000  0.5456070000000  0.4635230000000 1.0
C      1  0.4545010000000  0.5121110000000  0.5424340000000 1.0
C      1  0.4999810000000  0.4829770000000  0.4972400000000 1.0
C      1  0.4078620000000  0.4801850000000  0.3419050000000 1.0
C      1  0.4782040000000  0.4544040000000  0.3807330000000 1.0
C      1  0.6171850000000  0.5207370000000  0.4728860000000 1.0
C      1  0.6119890000000  0.5062620000000  0.4994070000000 1.0
C      1  0.4852070000000  0.5570320000000  0.3931770000000 1.0
C      1  0.5109360000000  0.4368470000000  0.5139620000000 1.0
C      1  0.5220490000000  0.5038570000000  0.4619960000000 1.0
C      1  0.5480820000000  0.4142540000000  0.5837280000000 1.0
C      1  0.6005070000000  0.5358090000000  0.5468200000000 1.0
C      1  0.5650490000000  0.3931450000000  0.5078890000000 1.0
C      1  0.5944220000000  0.4608130000000  0.4475650000000 1.0
C      1  0.6104820000000  0.4559930000000  0.5120280000000 1.0
C      1  0.4761180000000  0.5126610000000  0.4136700000000 1.0
C      1  0.5854920000000  0.5810450000000  0.5287740000000 1.0
C      1  0.3747460000000  0.5307770000000  0.4449140000000 1.0
C      1  0.4968700000000  0.4948290000000  0.4197530000000 1.0
C      1  0.3941750000000  0.5729940000000  0.5100000000000 1.0
C      1  0.3879290000000  0.4631910000000  0.4871290000000 1.0
C      1  0.5569990000000  0.4379650000000  0.5707640000000 1.0
C      1  0.5808440000000  0.4797640000000  0.4315280000000 1.0
C      1  0.5567760000000  0.5067850000000  0.6143650000000 1.0
C      1  0.5305980000000  0.5607700000000  0.4539080000000 1.0
C      1  0.4807470000000  0.4949610000000  0.6082850000000 1.0
C      1  0.5536910000000  0.5364970000000  0.4972320000000 1.0
C      1  0.4206280000000  0.4958200000000  0.5135540000000 1.0
C      1  0.5097120000000  0.4088940000000  0.5541260000000 1.0
C      1  0.3508410000000  0.4909780000000  0.4912030000000 1.0
C      1  0.4894470000000  0.5937920000000  0.4903550000000 1.0
C      1  0.4851080000000  0.4244260000000  0.4171520000000 1.0
C      1  0.4906970000000  0.5292130000000  0.5066100000000 1.0
C      1  0.5738790000000  0.5754120000000  0.6127150000000 1.0
C      1  0.6167190000000  0.5541460000000  0.6129010000000 1.0
C      1  0.5548880000000  0.6281680000000  0.5162040000000 1.0
C      1  0.5094530000000  0.4490030000000  0.6121100000000 1.0
C      1  0.4569280000000  0.5435690000000  0.4586800000000 1.0
C      1  0.6098020000000  0.5240670000000  0.5711480000000 1.0
C      1  0.5052050000000  0.5094420000000  0.6069420000000 1.0
C      1  0.3924260000000  0.5454000000000  0.5159410000000 1.0
C      1  0.4880260000000  0.4267430000000  0.5568610000000 1.0
C      1  0.4984820000000  0.6123230000000  0.4700560000000 1.0
C      1  0.4328880000000  0.4544110000000  0.5367300000000 1.0
C      1  0.4106570000000  0.4048360000000  0.5376010000000 1.0
C      1  0.4799510000000  0.4014200000000  0.4323900000000 1.0
C      1  0.5401300000000  0.6095090000000  0.4492120000000 1.0
C      1  0.6036700000000  0.5696340000000  0.4806750000000 1.0
C      1  0.5027260000000  0.4659100000000  0.5204680000000 1.0
C      1  0.4779510000000  0.5498970000000  0.4407770000000 1.0
C      1  0.5798130000000  0.5394240000000  0.5067900000000 1.0
C      1  0.5088980000000  0.5779370000000  0.5043950000000 1.0
C      1  0.3997480000000  0.4506290000000  0.4440140000000 1.0
C      1  0.5600570000000  0.5155880000000  0.6407080000000 1.0
C      1  0.4430400000000  0.6080260000000  0.4913160000000 1.0
C      1  0.6124540000000  0.4767090000000  0.4927720000000 1.0
C      1  0.4608130000000  0.3776240000000  0.4999740000000 1.0
C      1  0.4644600000000  0.5184630000000  0.5147010000000 1.0
C      1  0.4531110000000  0.5622790000000  0.4793190000000 1.0
C      1  0.4293380000000  0.5146250000000  0.4297610000000 1.0
C      1  0.5260860000000  0.4006480000000  0.5754960000000 1.0
C      1  0.4583180000000  0.3719160000000  0.5259500000000 1.0
C      1  0.4957900000000  0.4527190000000  0.5657250000000 1.0
C      1  0.5407370000000  0.3954830000000  0.5190530000000 1.0
C      1  0.5830140000000  0.5603940000000  0.5498630000000 1.0
C      1  0.4617240000000  0.5872120000000  0.4896490000000 1.0
C      1  0.5807800000000  0.4366700000000  0.4520130000000 1.0
C      1  0.5091870000000  0.4081630000000  0.4712170000000 1.0
C      1  0.5671760000000  0.5019680000000  0.4420950000000 1.0
C      1  0.5197720000000  0.4578610000000  0.4365560000000 1.0
C      1  0.4752200000000  0.5407200000000  0.4142720000000 1.0
C      1  0.4808270000000  0.4463750000000  0.4788210000000 1.0
C      1  0.3977530000000  0.5264310000000  0.5384450000000 1.0
C      1  0.5738900000000  0.5758760000000  0.4454240000000 1.0
C      1  0.5236730000000  0.5331010000000  0.3754500000000 1.0
C      1  0.5594570000000  0.5574620000000  0.5660310000000 1.0
C      1  0.6113460000000  0.4666550000000  0.5390460000000 1.0
C      1  0.5660480000000  0.4195270000000  0.4687420000000 1.0
C      1  0.4904210000000  0.6001450000000  0.4188500000000 1.0
C      1  0.4639400000000  0.4340790000000  0.6187830000000 1.0
C      1  0.5111990000000  0.5104890000000  0.4920050000000 1.0
C      1  0.5565650000000  0.4476700000000  0.5228370000000 1.0
C      1  0.4588870000000  0.3933110000000  0.4764990000000 1.0
C      1  0.3730520000000  0.5093570000000  0.5367640000000 1.0
C      1  0.4274680000000  0.4115530000000  0.4427220000000 1.0
C      1  0.5800620000000  0.4980150000000  0.5998150000000 1.0
C      1  0.3611460000000  0.5093050000000  0.5099470000000 1.0
C      1  0.5324330000000  0.5114840000000  0.5995710000000 1.0
C      1  0.3830300000000  0.5853350000000  0.4866040000000 1.0
C      1  0.4697070000000  0.4265630000000  0.5354090000000 1.0
C      1  0.4327110000000  0.4059520000000  0.4703650000000 1.0
C      1  0.5608740000000  0.4746450000000  0.5163310000000 1.0
C      1  0.3951150000000  0.5978950000000  0.4419350000000 1.0
C      1  0.4058250000000  0.5059120000000  0.4176640000000 1.0
C      1  0.5304710000000  0.5084880000000  0.3871340000000 1.0
C      1  0.5256710000000  0.6219490000000  0.4709360000000 1.0
C      1  0.5155870000000  0.4562240000000  0.5856010000000 1.0
C      1  0.5539360000000  0.4906140000000  0.4942150000000 1.0
C      1  0.5799870000000  0.4126340000000  0.4932180000000 1.0
C      1  0.4040900000000  0.4988620000000  0.3908670000000 1.0
C      1  0.4836890000000  0.3968010000000  0.4601910000000 1.0
C      1  0.4432610000000  0.5065130000000  0.4986210000000 1.0
C      1  0.5374250000000  0.5127640000000  0.5713240000000 1.0
C      1  0.5379140000000  0.6333180000000  0.4946840000000 1.0
C      1  0.4720860000000  0.4941460000000  0.5576320000000 1.0
C      1  0.3836060000000  0.5045010000000  0.4356060000000 1.0
C      1  0.4440260000000  0.4975430000000  0.4723660000000 1.0
C      1  0.4087840000000  0.4498610000000  0.5239940000000 1.0
C      1  0.5683790000000  0.4341180000000  0.5453350000000 1.0
C      1  0.5361260000000  0.5788890000000  0.4943570000000 1.0
C      1  0.5826430000000  0.5870780000000  0.4707240000000 1.0
C      1  0.5380730000000  0.4099380000000  0.4651460000000 1.0
C      1  0.3787640000000  0.4786760000000  0.4463510000000 1.0
C      1  0.5026260000000  0.5531770000000  0.5189620000000 1.0
C      1  0.3880110000000  0.5775830000000  0.4258030000000 1.0
C      1  0.5381260000000  0.5390630000000  0.5593820000000 1.0
C      1  0.4876690000000  0.6104710000000  0.4436140000000 1.0
C      1  0.5728670000000  0.5332280000000  0.6561050000000 1.0
C      1  0.3749580000000  0.5309640000000  0.4969320000000 1.0
C      1  0.5701950000000  0.6037070000000  0.5173220000000 1.0
C      1  0.4649410000000  0.4868590000000  0.5854660000000 1.0
C      1  0.5389440000000  0.5137120000000  0.5040680000000 1.0
C      1  0.4356950000000  0.4156880000000  0.5808860000000 1.0
C      1  0.4540040000000  0.4444550000000  0.5206040000000 1.0
C      1  0.5923840000000  0.4214320000000  0.5376070000000 1.0
C      1  0.4689160000000  0.4875600000000  0.6557440000000 1.0
C      1  0.5169180000000  0.5482950000000  0.5431060000000 1.0
C      1  0.3985830000000  0.4413380000000  0.4720480000000 1.0
C      1  0.4910440000000  0.4738200000000  0.5464060000000 1.0
C      1  0.5550950000000  0.5335580000000  0.4067790000000 1.0
C      1  0.4231470000000  0.5119600000000  0.5389240000000 1.0
C      1  0.5944030000000  0.5643000000000  0.5066340000000 1.0
C      1  0.5057240000000  0.4831450000000  0.4468220000000 1.0
C      1  0.5284100000000  0.5768150000000  0.3957500000000 1.0
C      1  0.5404990000000  0.5542940000000  0.4801110000000 1.0
C      1  0.5214520000000  0.4135260000000  0.5285420000000 1.0
C      1  0.6006480000000  0.5678060000000  0.6760090000000 1.0
C      1  0.6245190000000  0.4990230000000  0.4549520000000 1.0
C      1  0.5408420000000  0.5517340000000  0.3909900000000 1.0
C      1  0.5413360000000  0.4619890000000  0.5751240000000 1.0
C      1  0.6219310000000  0.5391860000000  0.5913450000000 1.0
C      1  0.3978040000000  0.6027920000000  0.4696560000000 1.0
C      1  0.5039360000000  0.5556740000000  0.4486730000000 1.0
C      1  0.4394310000000  0.4436630000000  0.4101070000000 1.0
C      1  0.3635270000000  0.5690740000000  0.4735070000000 1.0
C      1  0.4071610000000  0.4222580000000  0.5154610000000 1.0
C      1  0.5899000000000  0.5555180000000  0.6541880000000 1.0
C      1  0.5464070000000  0.4874030000000  0.5613510000000 1.0
C      1  0.5098500000000  0.4370980000000  0.4227270000000 1.0
C      1  0.5950220000000  0.5643560000000  0.6276330000000 1.0
C      1  0.4661740000000  0.4393880000000  0.4014560000000 1.0
C      1  0.4556750000000  0.4501560000000  0.4917650000000 1.0
C      1  0.4053940000000  0.4898680000000  0.3659820000000 1.0
C      1  0.4027280000000  0.4730240000000  0.5087780000000 1.0
C      1  0.4198350000000  0.6158760000000  0.4807310000000 1.0
C      1  0.3685280000000  0.5409180000000  0.4713060000000 1.0
C      1  0.5619130000000  0.5923130000000  0.4915020000000 1.0
C      1  0.5854100000000  0.5488150000000  0.4424320000000 1.0
C      1  0.5596120000000  0.5710880000000  0.5905780000000 1.0
C      1  0.6143310000000  0.4730960000000  0.4638990000000 1.0
C      1  0.5003360000000  0.5807230000000  0.4008820000000 1.0
C      1  0.4481630000000  0.3789680000000  0.5498130000000 1.0
C      1  0.5464160000000  0.5821370000000  0.4423950000000 1.0
C      1  0.5004140000000  0.4289910000000  0.4885900000000 1.0
C      1  0.4423300000000  0.4691020000000  0.4739500000000 1.0
C      1  0.4850600000000  0.4513780000000  0.6262580000000 1.0
C      1  0.4298660000000  0.3989640000000  0.5581340000000 1.0
C      1  0.4435340000000  0.5185050000000  0.4534910000000 1.0
C      1  0.5994460000000  0.4283420000000  0.5098380000000 1.0
C      1  0.3678020000000  0.4774000000000  0.4733320000000 1.0
C      1  0.4776970000000  0.4784820000000  0.6316520000000 1.0
C      1  0.4998480000000  0.4703530000000  0.3788050000000 1.0
C      1  0.5987560000000  0.5220350000000  0.5200490000000 1.0
C      1  0.4201650000000  0.4361060000000  0.4293890000000 1.0
C      1  0.5125000000000  0.4889440000000  0.3959470000000 1.0
C      1  0.5934310000000  0.4828410000000  0.5538490000000 1.0
C      1  0.4307560000000  0.4647280000000  0.5621400000000 1.0
C      1  0.4462690000000  0.4642370000000  0.5853180000000 1.0
END
