TITL C-612601-4209-1014 326400.788752208 125000 -764.424508151756 0 0 130 (C1) n - 1
REM
REM in /home/nfs/bkarasulu/CARBON/AIRSS/Generating-Clusters/TERSOFF/Only-C1/FIRE-HFTN
REM
REM
REM
REM
REM
REM ./C.cell (11c1c37f851c82e70ff6c80c92926a4b)
REM AIRSS Version 0.9.1 bugfix July 2018 build 013d7b7c2542+ Fri, 06 Jul 2018 19:26:36 +0100
REM compiler GCC version 9.2.1 20190827 (Red Hat 9.2.1-1)
REM options -cpp -mtune=generic -march=x86-64 -g -O0 -fpre-include=/usr/include/finclude/math-vector-fortran.h
REM seed -1890427832 1815293529 1150654269 1367684525 -1203742879 1197666196 -1719921750 828114124 -811559865 811483592 -972640914 1411261213 1514165699 -628961059 -1201238440 1600171746 202602394 871359893 1220934236 194989983 -1583358713 135932632 1635111801 1888662284 -784805631 -165968987 -524610463 -110507485 -1023271158 -171922191 962582425 -715652948 1823326750
REM
CELL 1.54180   50.00000   50.00000   50.00000   90.00000   90.00000   90.00000
LATT -1
SFAC C  
C      1  0.4195590000000  0.5824250000000  0.4723020000000 1.0
C      1  0.4531990000000  0.4673850000000  0.4513450000000 1.0
C      1  0.4809960000000  0.4767380000000  0.5306380000000 1.0
C      1  0.5645020000000  0.5566080000000  0.4553330000000 1.0
C      1  0.4645450000000  0.5835890000000  0.4485830000000 1.0
C      1  0.5322380000000  0.5614230000000  0.5676810000000 1.0
C      1  0.5304400000000  0.4323770000000  0.4886120000000 1.0
C      1  0.5094730000000  0.3876690000000  0.5044060000000 1.0
C      1  0.5337470000000  0.4873350000000  0.4777960000000 1.0
C      1  0.5067650000000  0.5533580000000  0.4109520000000 1.0
C      1  0.5535180000000  0.5707530000000  0.5275380000000 1.0
C      1  0.5638420000000  0.4480720000000  0.5242530000000 1.0
C      1  0.4900170000000  0.4543080000000  0.5900030000000 1.0
C      1  0.5544470000000  0.4295490000000  0.5058730000000 1.0
C      1  0.5427010000000  0.4294460000000  0.4619440000000 1.0
C      1  0.5646340000000  0.5169690000000  0.5823520000000 1.0
C      1  0.4377450000000  0.5784020000000  0.5150170000000 1.0
C      1  0.5325550000000  0.5898380000000  0.5626560000000 1.0
C      1  0.4330280000000  0.4209890000000  0.4641250000000 1.0
C      1  0.4535320000000  0.4404390000000  0.4639840000000 1.0
C      1  0.4207190000000  0.5033490000000  0.4364930000000 1.0
C      1  0.5283320000000  0.5458950000000  0.5905020000000 1.0
C      1  0.4418470000000  0.5196120000000  0.5576380000000 1.0
C      1  0.4210190000000  0.5388540000000  0.5534230000000 1.0
C      1  0.4399330000000  0.5937160000000  0.4583870000000 1.0
C      1  0.4884130000000  0.5279450000000  0.5513240000000 1.0
C      1  0.5505920000000  0.5534390000000  0.4309930000000 1.0
C      1  0.5056440000000  0.3965140000000  0.4765060000000 1.0
C      1  0.4276310000000  0.5658220000000  0.5588970000000 1.0
C      1  0.5225300000000  0.4639050000000  0.4017950000000 1.0
C      1  0.5027880000000  0.4434200000000  0.4087350000000 1.0
C      1  0.4078180000000  0.5411990000000  0.5027020000000 1.0
C      1  0.4501570000000  0.5103330000000  0.4890560000000 1.0
C      1  0.5145200000000  0.4991640000000  0.5964060000000 1.0
C      1  0.4198200000000  0.5671630000000  0.4960940000000 1.0
C      1  0.5171710000000  0.5285650000000  0.4663470000000 1.0
C      1  0.4072100000000  0.5178200000000  0.4851430000000 1.0
C      1  0.3996460000000  0.4868210000000  0.5021200000000 1.0
C      1  0.5128290000000  0.4563980000000  0.5511080000000 1.0
C      1  0.4045320000000  0.4665280000000  0.4579320000000 1.0
C      1  0.4988620000000  0.4587070000000  0.4514170000000 1.0
C      1  0.5903110000000  0.5450880000000  0.4567540000000 1.0
C      1  0.4893470000000  0.5254570000000  0.5003970000000 1.0
C      1  0.4959580000000  0.3636410000000  0.5106730000000 1.0
C      1  0.5776170000000  0.5346660000000  0.5105750000000 1.0
C      1  0.5174490000000  0.4848620000000  0.5528370000000 1.0
C      1  0.5171630000000  0.4695500000000  0.5947280000000 1.0
C      1  0.5425200000000  0.4964960000000  0.5489660000000 1.0
C      1  0.5439510000000  0.4763020000000  0.4550240000000 1.0
C      1  0.5020160000000  0.4099200000000  0.4525070000000 1.0
C      1  0.4817460000000  0.5438400000000  0.4862190000000 1.0
C      1  0.5771740000000  0.4176580000000  0.4926290000000 1.0
C      1  0.4692720000000  0.5253800000000  0.5753970000000 1.0
C      1  0.5164120000000  0.4842670000000  0.4999670000000 1.0
C      1  0.4820880000000  0.5446090000000  0.4222920000000 1.0
C      1  0.5518970000000  0.5638780000000  0.4800280000000 1.0
C      1  0.4962950000000  0.4416200000000  0.4960120000000 1.0
C      1  0.4750840000000  0.5752360000000  0.5785620000000 1.0
C      1  0.5927470000000  0.4885570000000  0.5238600000000 1.0
C      1  0.4581180000000  0.4761820000000  0.5469140000000 1.0
C      1  0.5417720000000  0.5960270000000  0.5358060000000 1.0
C      1  0.5165000000000  0.6085790000000  0.4925110000000 1.0
C      1  0.4723050000000  0.5034270000000  0.6207170000000 1.0
C      1  0.4961240000000  0.4388890000000  0.5657730000000 1.0
C      1  0.5888470000000  0.4355140000000  0.4733220000000 1.0
C      1  0.4986700000000  0.4652860000000  0.5106770000000 1.0
C      1  0.4735170000000  0.5751430000000  0.5500890000000 1.0
C      1  0.4465990000000  0.5779700000000  0.5412790000000 1.0
C      1  0.4906950000000  0.5549270000000  0.5380080000000 1.0
C      1  0.5603680000000  0.4763290000000  0.5603630000000 1.0
C      1  0.5296140000000  0.6116710000000  0.5158950000000 1.0
C      1  0.5378430000000  0.5129280000000  0.4049730000000 1.0
C      1  0.4963750000000  0.5008660000000  0.5404890000000 1.0
C      1  0.5443730000000  0.4289190000000  0.5687660000000 1.0
C      1  0.4902410000000  0.5953320000000  0.4523650000000 1.0
C      1  0.5369190000000  0.5187100000000  0.5928230000000 1.0
C      1  0.6031470000000  0.4573950000000  0.4845220000000 1.0
C      1  0.4620070000000  0.5570050000000  0.4384700000000 1.0
C      1  0.5655130000000  0.4649930000000  0.4406880000000 1.0
C      1  0.4042790000000  0.5359920000000  0.5305780000000 1.0
C      1  0.5458250000000  0.4569370000000  0.5790420000000 1.0
C      1  0.4674380000000  0.4428670000000  0.4891780000000 1.0
C      1  0.4837070000000  0.4156380000000  0.5593290000000 1.0
C      1  0.4451980000000  0.4922460000000  0.5084410000000 1.0
C      1  0.4719780000000  0.4781230000000  0.3947790000000 1.0
C      1  0.4203480000000  0.5226940000000  0.4577160000000 1.0
C      1  0.5540220000000  0.5200310000000  0.5024920000000 1.0
C      1  0.5751450000000  0.4808770000000  0.4197920000000 1.0
C      1  0.5170000000000  0.5610160000000  0.4817040000000 1.0
C      1  0.4814880000000  0.3429950000000  0.5172700000000 1.0
C      1  0.4270310000000  0.4775580000000  0.4453030000000 1.0
C      1  0.5641200000000  0.5021680000000  0.4072610000000 1.0
C      1  0.6039120000000  0.4828100000000  0.4974520000000 1.0
C      1  0.5324930000000  0.5405920000000  0.4133040000000 1.0
C      1  0.3956220000000  0.4367580000000  0.4923260000000 1.0
C      1  0.5390630000000  0.5151590000000  0.4786220000000 1.0
C      1  0.5101980000000  0.5100250000000  0.5150830000000 1.0
C      1  0.4921010000000  0.5077330000000  0.4512030000000 1.0
C      1  0.4676050000000  0.5519770000000  0.5905070000000 1.0
C      1  0.4423710000000  0.4629490000000  0.5665290000000 1.0
C      1  0.6115590000000  0.5045930000000  0.4811130000000 1.0
C      1  0.5675250000000  0.5618200000000  0.5048120000000 1.0
C      1  0.4803110000000  0.4803780000000  0.4538110000000 1.0
C      1  0.4509660000000  0.4641760000000  0.5025280000000 1.0
C      1  0.4444210000000  0.4993980000000  0.5368180000000 1.0
C      1  0.4859450000000  0.5081710000000  0.5971400000000 1.0
C      1  0.5175920000000  0.4926180000000  0.4008220000000 1.0
C      1  0.5820840000000  0.5208790000000  0.5609730000000 1.0
C      1  0.5411680000000  0.5480820000000  0.5428490000000 1.0
C      1  0.5687210000000  0.4396390000000  0.4529440000000 1.0
C      1  0.4838740000000  0.5166290000000  0.4251850000000 1.0
C      1  0.5374800000000  0.5201650000000  0.5280930000000 1.0
C      1  0.6064500000000  0.5257850000000  0.4657090000000 1.0
C      1  0.4400200000000  0.5425810000000  0.4503110000000 1.0
C      1  0.5360210000000  0.4105890000000  0.5495620000000 1.0
C      1  0.4145250000000  0.5094200000000  0.4106620000000 1.0
C      1  0.5074330000000  0.5885700000000  0.4741680000000 1.0
C      1  0.4149890000000  0.4659310000000  0.5540470000000 1.0
C      1  0.5075920000000  0.5618060000000  0.5160270000000 1.0
C      1  0.5019610000000  0.4343090000000  0.4365570000000 1.0
C      1  0.4602130000000  0.4576070000000  0.5894160000000 1.0
C      1  0.4894420000000  0.4989040000000  0.4037010000000 1.0
C      1  0.4029690000000  0.4781510000000  0.5312050000000 1.0
C      1  0.5241290000000  0.3993490000000  0.5271840000000 1.0
C      1  0.5768000000000  0.4686220000000  0.5380580000000 1.0
C      1  0.3959890000000  0.4641010000000  0.4845360000000 1.0
C      1  0.4112020000000  0.4181400000000  0.4800020000000 1.0
C      1  0.4989050000000  0.6139770000000  0.4341450000000 1.0
C      1  0.5889860000000  0.5171460000000  0.5324440000000 1.0
C      1  0.4776960000000  0.4513650000000  0.3969840000000 1.0
END
