TITL C-612600-6631-360 1749.11304570641 125000 -991.72301235902 0 0 159 (C1) n - 1
REM
REM in /home/nfs/bkarasulu/CARBON/AIRSS/Generating-Clusters/TERSOFF/Only-C1/FIRE-HFTN
REM
REM
REM
REM
REM
REM ./C.cell (11c1c37f851c82e70ff6c80c92926a4b)
REM AIRSS Version 0.9.1 bugfix July 2018 build 013d7b7c2542+ Fri, 06 Jul 2018 19:26:36 +0100
REM compiler GCC version 9.2.1 20190827 (Red Hat 9.2.1-1)
REM options -cpp -mtune=generic -march=x86-64 -g -O0 -fpre-include=/usr/include/finclude/math-vector-fortran.h
REM seed 976675868 -540925898 -2088912356 837395596 269405017 -415464940 414681170 1956438372 1910538033 -1361861237 -47630553 783874195 1272560369 18216094 1794527454 -692485094 941581219 -2053213275 684118212 1831381848 2053942550 -978800255 1088020984 1379540841 -2141325102 -616709191 1303829522 -1807562476 -1213953347 1060508030 -537684414 1698192552 -538350128
REM
CELL 1.54180   50.00000   50.00000   50.00000   90.00000   90.00000   90.00000
LATT -1
SFAC C  
C      1  0.4141980000000  0.4460520000000  0.5380600000000 1.0
C      1  0.4655980000000  0.4858440000000  0.5467850000000 1.0
C      1  0.6002340000000  0.5626730000000  0.5060430000000 1.0
C      1  0.5593300000000  0.4250100000000  0.4618310000000 1.0
C      1  0.4565060000000  0.5753430000000  0.5100240000000 1.0
C      1  0.4472300000000  0.5006450000000  0.4296290000000 1.0
C      1  0.5864590000000  0.5512340000000  0.5500510000000 1.0
C      1  0.4183280000000  0.4615080000000  0.4520730000000 1.0
C      1  0.5293360000000  0.5152310000000  0.3592670000000 1.0
C      1  0.4467320000000  0.4202030000000  0.5664960000000 1.0
C      1  0.5179370000000  0.4854870000000  0.5474150000000 1.0
C      1  0.5589650000000  0.5495320000000  0.5619310000000 1.0
C      1  0.5654300000000  0.5925950000000  0.4951270000000 1.0
C      1  0.4206860000000  0.4337770000000  0.4468230000000 1.0
C      1  0.4402210000000  0.5280020000000  0.4212600000000 1.0
C      1  0.5318040000000  0.5932790000000  0.4546830000000 1.0
C      1  0.5267350000000  0.4605360000000  0.5370990000000 1.0
C      1  0.4234410000000  0.3965310000000  0.4746680000000 1.0
C      1  0.5974330000000  0.5170130000000  0.4914990000000 1.0
C      1  0.4100260000000  0.4215890000000  0.4717060000000 1.0
C      1  0.6083500000000  0.4738640000000  0.4723800000000 1.0
C      1  0.4016550000000  0.4868900000000  0.5121620000000 1.0
C      1  0.4463690000000  0.3894920000000  0.4611180000000 1.0
C      1  0.5520150000000  0.4568840000000  0.5253310000000 1.0
C      1  0.4621100000000  0.4561150000000  0.4756940000000 1.0
C      1  0.5808180000000  0.4656690000000  0.4275600000000 1.0
C      1  0.4402150000000  0.4027740000000  0.5232780000000 1.0
C      1  0.5383310000000  0.5538920000000  0.6572540000000 1.0
C      1  0.4862450000000  0.6329580000000  0.5474470000000 1.0
C      1  0.5060180000000  0.5598220000000  0.4022640000000 1.0
C      1  0.5132940000000  0.5469270000000  0.6104790000000 1.0
C      1  0.4671590000000  0.5673290000000  0.4840040000000 1.0
C      1  0.5725520000000  0.5172850000000  0.4058490000000 1.0
C      1  0.3503900000000  0.4598490000000  0.4710320000000 1.0
C      1  0.4177050000000  0.4978380000000  0.5977240000000 1.0
C      1  0.5489450000000  0.5340430000000  0.4641590000000 1.0
C      1  0.5792300000000  0.4951970000000  0.4240700000000 1.0
C      1  0.4949900000000  0.4236000000000  0.5837030000000 1.0
C      1  0.4806630000000  0.5531370000000  0.4128910000000 1.0
C      1  0.4663500000000  0.5637700000000  0.5587180000000 1.0
C      1  0.5556940000000  0.5066310000000  0.4637600000000 1.0
C      1  0.5494380000000  0.5968100000000  0.5460510000000 1.0
C      1  0.4971070000000  0.4751950000000  0.3940780000000 1.0
C      1  0.5395560000000  0.5743930000000  0.5626380000000 1.0
C      1  0.4541500000000  0.4763780000000  0.4143320000000 1.0
C      1  0.4813510000000  0.5471680000000  0.4412510000000 1.0
C      1  0.5117290000000  0.3989230000000  0.5441860000000 1.0
C      1  0.3945850000000  0.4423250000000  0.4880000000000 1.0
C      1  0.4672830000000  0.3933940000000  0.5208240000000 1.0
C      1  0.5964780000000  0.4561490000000  0.4508770000000 1.0
C      1  0.5182140000000  0.4156050000000  0.5217020000000 1.0
C      1  0.4690930000000  0.4768490000000  0.3904220000000 1.0
C      1  0.5336260000000  0.5572540000000  0.4116260000000 1.0
C      1  0.4827860000000  0.3932430000000  0.5455960000000 1.0
C      1  0.5673450000000  0.4723160000000  0.5953950000000 1.0
C      1  0.5822800000000  0.5707390000000  0.4852760000000 1.0
C      1  0.4689770000000  0.6287480000000  0.4737740000000 1.0
C      1  0.4125980000000  0.5283950000000  0.4634590000000 1.0
C      1  0.5507870000000  0.4592230000000  0.4963120000000 1.0
C      1  0.5483510000000  0.4905730000000  0.4889940000000 1.0
C      1  0.4929330000000  0.4101890000000  0.4489640000000 1.0
C      1  0.4567550000000  0.5420010000000  0.4023940000000 1.0
C      1  0.4193390000000  0.5433060000000  0.6136580000000 1.0
C      1  0.4460200000000  0.4279400000000  0.4333130000000 1.0
C      1  0.5174200000000  0.4928510000000  0.4924820000000 1.0
C      1  0.4467160000000  0.4970880000000  0.4588690000000 1.0
C      1  0.5395980000000  0.5772340000000  0.4317640000000 1.0
C      1  0.5803190000000  0.5035390000000  0.4510540000000 1.0
C      1  0.6011460000000  0.5010180000000  0.4696720000000 1.0
C      1  0.4719760000000  0.4691380000000  0.6028860000000 1.0
C      1  0.3924400000000  0.5304120000000  0.4865230000000 1.0
C      1  0.4823920000000  0.4489480000000  0.5239000000000 1.0
C      1  0.4807490000000  0.3931680000000  0.4955480000000 1.0
C      1  0.5109300000000  0.4519890000000  0.4079510000000 1.0
C      1  0.4628080000000  0.4063920000000  0.4443150000000 1.0
C      1  0.5998550000000  0.4334290000000  0.4914310000000 1.0
C      1  0.5219720000000  0.5391640000000  0.4671060000000 1.0
C      1  0.5153250000000  0.5545610000000  0.4903260000000 1.0
C      1  0.3975200000000  0.5046480000000  0.4480840000000 1.0
C      1  0.5103390000000  0.5786790000000  0.5728020000000 1.0
C      1  0.4990220000000  0.5124460000000  0.4998210000000 1.0
C      1  0.5923180000000  0.4993210000000  0.5321350000000 1.0
C      1  0.4910040000000  0.4970130000000  0.5430080000000 1.0
C      1  0.4022480000000  0.4563730000000  0.5128940000000 1.0
C      1  0.5252880000000  0.5505470000000  0.6349430000000 1.0
C      1  0.5039230000000  0.4696510000000  0.4849960000000 1.0
C      1  0.5329990000000  0.4668700000000  0.4203390000000 1.0
C      1  0.4578640000000  0.5552760000000  0.4581820000000 1.0
C      1  0.5695760000000  0.5530690000000  0.4674690000000 1.0
C      1  0.5110870000000  0.5344770000000  0.5649540000000 1.0
C      1  0.3776280000000  0.4599720000000  0.4707970000000 1.0
C      1  0.4627730000000  0.6030430000000  0.5168990000000 1.0
C      1  0.5045710000000  0.5943010000000  0.4636570000000 1.0
C      1  0.4607230000000  0.4521010000000  0.4287140000000 1.0
C      1  0.5976510000000  0.4722690000000  0.5248750000000 1.0
C      1  0.4916170000000  0.5190400000000  0.5257130000000 1.0
C      1  0.5069150000000  0.5398050000000  0.5371970000000 1.0
C      1  0.4395760000000  0.5158480000000  0.5045210000000 1.0
C      1  0.6002340000000  0.5265610000000  0.5373950000000 1.0
C      1  0.4310620000000  0.5450810000000  0.4446900000000 1.0
C      1  0.5400260000000  0.4980550000000  0.5623350000000 1.0
C      1  0.5674230000000  0.5914240000000  0.5246330000000 1.0
C      1  0.4720850000000  0.4066910000000  0.5700970000000 1.0
C      1  0.5031170000000  0.5296520000000  0.4477670000000 1.0
C      1  0.4552730000000  0.4468100000000  0.5680730000000 1.0
C      1  0.4601540000000  0.5235240000000  0.5958490000000 1.0
C      1  0.4196720000000  0.4689370000000  0.5568710000000 1.0
C      1  0.4681210000000  0.4580170000000  0.5462170000000 1.0
C      1  0.5776590000000  0.4553460000000  0.5364020000000 1.0
C      1  0.4371760000000  0.4891640000000  0.5450210000000 1.0
C      1  0.4958850000000  0.5741560000000  0.4825700000000 1.0
C      1  0.3941860000000  0.4765250000000  0.4535070000000 1.0
C      1  0.5134400000000  0.4240500000000  0.4290310000000 1.0
C      1  0.4962990000000  0.5644010000000  0.5955430000000 1.0
C      1  0.5279450000000  0.5158610000000  0.3865160000000 1.0
C      1  0.6073030000000  0.4610630000000  0.4991200000000 1.0
C      1  0.6069510000000  0.5354900000000  0.5096610000000 1.0
C      1  0.5192520000000  0.4820610000000  0.4404200000000 1.0
C      1  0.5184030000000  0.4108490000000  0.5704980000000 1.0
C      1  0.4290790000000  0.4202440000000  0.5429310000000 1.0
C      1  0.5462000000000  0.4272020000000  0.4364900000000 1.0
C      1  0.5434900000000  0.6226990000000  0.5528050000000 1.0
C      1  0.5084560000000  0.5017640000000  0.4014930000000 1.0
C      1  0.5894150000000  0.5733860000000  0.5311680000000 1.0
C      1  0.4799060000000  0.4584150000000  0.4975760000000 1.0
C      1  0.5931670000000  0.5262210000000  0.3896520000000 1.0
C      1  0.4359150000000  0.5152430000000  0.4773480000000 1.0
C      1  0.4706020000000  0.5501300000000  0.5850870000000 1.0
C      1  0.5229640000000  0.4154450000000  0.4932130000000 1.0
C      1  0.5089150000000  0.5069340000000  0.4306750000000 1.0
C      1  0.4962270000000  0.4521630000000  0.5956090000000 1.0
C      1  0.5646240000000  0.5070040000000  0.5085080000000 1.0
C      1  0.4400710000000  0.4711700000000  0.4670900000000 1.0
C      1  0.4320460000000  0.5217730000000  0.6024420000000 1.0
C      1  0.5176380000000  0.4740200000000  0.5965430000000 1.0
C      1  0.4871010000000  0.5851020000000  0.5557200000000 1.0
C      1  0.5434180000000  0.4334800000000  0.4837200000000 1.0
C      1  0.5871930000000  0.4317160000000  0.4650470000000 1.0
C      1  0.5148650000000  0.5251370000000  0.5922040000000 1.0
C      1  0.5029910000000  0.4666660000000  0.4570290000000 1.0
C      1  0.5563530000000  0.4515650000000  0.4232400000000 1.0
C      1  0.4794500000000  0.6075310000000  0.5399670000000 1.0
C      1  0.5497280000000  0.6032960000000  0.4744850000000 1.0
C      1  0.4583670000000  0.6231580000000  0.4977840000000 1.0
C      1  0.5487290000000  0.5267620000000  0.5229460000000 1.0
C      1  0.4755410000000  0.4986060000000  0.6012100000000 1.0
C      1  0.4879960000000  0.6165230000000  0.4593150000000 1.0
C      1  0.5005350000000  0.4049590000000  0.4777540000000 1.0
C      1  0.4110080000000  0.4766300000000  0.5825200000000 1.0
C      1  0.4779930000000  0.4557690000000  0.4507920000000 1.0
C      1  0.5084970000000  0.4411210000000  0.5298570000000 1.0
C      1  0.3851130000000  0.5077420000000  0.5010010000000 1.0
C      1  0.5043220000000  0.5003860000000  0.6000550000000 1.0
C      1  0.5266370000000  0.5456710000000  0.5160030000000 1.0
C      1  0.4259280000000  0.4993640000000  0.5219860000000 1.0
C      1  0.5503610000000  0.5228510000000  0.5523470000000 1.0
C      1  0.4526040000000  0.5595920000000  0.5339060000000 1.0
C      1  0.5466310000000  0.5314320000000  0.4026220000000 1.0
C      1  0.5434670000000  0.4805600000000  0.5853470000000 1.0
END
