TITL C-612600-6631-895 0.000714024962683963 125000 -236.446447987125 0 0 40 (C1) n - 1
REM
REM in /home/nfs/bkarasulu/CARBON/AIRSS/Generating-Clusters/TERSOFF/Only-C1/FIRE-HFTN
REM
REM
REM
REM
REM
REM ./C.cell (11c1c37f851c82e70ff6c80c92926a4b)
REM AIRSS Version 0.9.1 bugfix July 2018 build 013d7b7c2542+ Fri, 06 Jul 2018 19:26:36 +0100
REM compiler GCC version 9.2.1 20190827 (Red Hat 9.2.1-1)
REM options -cpp -mtune=generic -march=x86-64 -g -O0 -fpre-include=/usr/include/finclude/math-vector-fortran.h
REM seed 213668675 1722099344 1240879488 1356129349 -1449064526 -1681378727 -657180345 729395344 1126221343 -1813367169 -3557935 -1755768474 -2062244311 1569922099 386702251 -1151994684 344999175 2107439630 174847793 718661123 641259429 1508468423 528136145 -2121896511 -639307957 2083499574 1331493278 -651812500 1357841240 -1845976687 1885977592 1151919874 1141146908
REM
CELL 1.54180   50.00000   50.00000   50.00000   90.00000   90.00000   90.00000
LATT -1
SFAC C  
C      1  0.4598050000000  0.5132240000000  0.5472380000000 1.0
C      1  0.5783550000000  0.4735750000000  0.5227940000000 1.0
C      1  0.5059070000000  0.5086220000000  0.5301990000000 1.0
C      1  0.4953040000000  0.4312490000000  0.4942870000000 1.0
C      1  0.5940380000000  0.5034380000000  0.4484960000000 1.0
C      1  0.5458070000000  0.5042210000000  0.4345150000000 1.0
C      1  0.5257610000000  0.4874340000000  0.4728960000000 1.0
C      1  0.4514550000000  0.4869170000000  0.5376880000000 1.0
C      1  0.4934830000000  0.4601950000000  0.5335010000000 1.0
C      1  0.4338770000000  0.5339570000000  0.4854870000000 1.0
C      1  0.4379860000000  0.4916370000000  0.5121500000000 1.0
C      1  0.4338170000000  0.5203200000000  0.5097470000000 1.0
C      1  0.5251660000000  0.5289400000000  0.5231520000000 1.0
C      1  0.4890030000000  0.4558710000000  0.4818900000000 1.0
C      1  0.4433340000000  0.5330170000000  0.5341160000000 1.0
C      1  0.5236410000000  0.5436210000000  0.5694260000000 1.0
C      1  0.5253780000000  0.5404830000000  0.4977840000000 1.0
C      1  0.5158780000000  0.5519610000000  0.4758190000000 1.0
C      1  0.5367360000000  0.5421170000000  0.5456050000000 1.0
C      1  0.4714860000000  0.5551800000000  0.4569450000000 1.0
C      1  0.5065740000000  0.4772830000000  0.4902980000000 1.0
C      1  0.4678140000000  0.4651780000000  0.5442160000000 1.0
C      1  0.5548280000000  0.4884860000000  0.4768660000000 1.0
C      1  0.4994570000000  0.5315260000000  0.5724860000000 1.0
C      1  0.4422560000000  0.4748370000000  0.4901830000000 1.0
C      1  0.5083580000000  0.3903210000000  0.5118710000000 1.0
C      1  0.5197840000000  0.5840450000000  0.4113620000000 1.0
C      1  0.5094970000000  0.5728540000000  0.4325320000000 1.0
C      1  0.4995910000000  0.4343170000000  0.5239440000000 1.0
C      1  0.4485980000000  0.5462660000000  0.4670570000000 1.0
C      1  0.5680570000000  0.4805400000000  0.4998930000000 1.0
C      1  0.5047520000000  0.4826690000000  0.5185830000000 1.0
C      1  0.5009770000000  0.4035320000000  0.4885530000000 1.0
C      1  0.5676220000000  0.4991650000000  0.4527550000000 1.0
C      1  0.4874680000000  0.5166770000000  0.5515080000000 1.0
C      1  0.4621010000000  0.4625350000000  0.4769570000000 1.0
C      1  0.4376540000000  0.5580290000000  0.5428990000000 1.0
C      1  0.4989790000000  0.5601310000000  0.4550340000000 1.0
C      1  0.5077530000000  0.4081790000000  0.5331700000000 1.0
C      1  0.5216620000000  0.4974480000000  0.4460980000000 1.0
END
