TITL C-612606-7351-134 1.54760189827154 125000 -706.96637223515 0 0 115 (C1) n - 1
REM
REM in /home/nfs/bkarasulu/CARBON/AIRSS/Generating-Clusters/TERSOFF/Only-C1/FIRE-HFTN
REM
REM
REM
REM
REM
REM ./C.cell (11c1c37f851c82e70ff6c80c92926a4b)
REM AIRSS Version 0.9.1 bugfix July 2018 build 013d7b7c2542+ Fri, 06 Jul 2018 19:26:36 +0100
REM compiler GCC version 9.2.1 20190827 (Red Hat 9.2.1-1)
REM options -cpp -mtune=generic -march=x86-64 -g -O0 -fpre-include=/usr/include/finclude/math-vector-fortran.h
REM seed 1994736829 1429180905 -1413728794 -1948878933 183271418 693817936 -1718269697 -118226959 -1461803774 -875882428 1873995047 1583131692 -1455381608 -73342564 1490366404 -638770934 368592062 -2125695986 690412446 1073771278 455194233 1392606784 -169625730 -1055006536 -1450697576 1170133881 1873685185 898169958 -1177598278 1080781575 381633201 666172511 1245680440
REM
CELL 1.54180   50.00000   50.00000   50.00000   90.00000   90.00000   90.00000
LATT -1
SFAC C  
C      1  0.4033300000000  0.4497980000000  0.4854640000000 1.0
C      1  0.4184110000000  0.5532740000000  0.5218440000000 1.0
C      1  0.5600920000000  0.4616210000000  0.3807650000000 1.0
C      1  0.5054230000000  0.5152960000000  0.5982300000000 1.0
C      1  0.4802100000000  0.4442980000000  0.5751430000000 1.0
C      1  0.4782570000000  0.5305920000000  0.4251430000000 1.0
C      1  0.4654260000000  0.5423160000000  0.5944470000000 1.0
C      1  0.4541690000000  0.4889970000000  0.4384750000000 1.0
C      1  0.5107120000000  0.5245020000000  0.5714310000000 1.0
C      1  0.4983670000000  0.5732380000000  0.4354180000000 1.0
C      1  0.4963900000000  0.6211220000000  0.4365060000000 1.0
C      1  0.4536860000000  0.4922250000000  0.5619550000000 1.0
C      1  0.5566940000000  0.4083720000000  0.4489780000000 1.0
C      1  0.5508670000000  0.4573460000000  0.5080630000000 1.0
C      1  0.4392760000000  0.5683580000000  0.5098980000000 1.0
C      1  0.5351540000000  0.5370220000000  0.4691880000000 1.0
C      1  0.3807410000000  0.4532660000000  0.4717320000000 1.0
C      1  0.4908280000000  0.4559950000000  0.4367020000000 1.0
C      1  0.4145070000000  0.4389480000000  0.5444430000000 1.0
C      1  0.5176980000000  0.4883980000000  0.5417350000000 1.0
C      1  0.5555220000000  0.3735570000000  0.4108080000000 1.0
C      1  0.4876260000000  0.5907470000000  0.5245190000000 1.0
C      1  0.5598230000000  0.4354870000000  0.4546470000000 1.0
C      1  0.5746330000000  0.5229980000000  0.4426940000000 1.0
C      1  0.4150150000000  0.4648910000000  0.5509130000000 1.0
C      1  0.5066600000000  0.5850890000000  0.5030250000000 1.0
C      1  0.4369100000000  0.5682210000000  0.4816680000000 1.0
C      1  0.5570380000000  0.3748850000000  0.3842540000000 1.0
C      1  0.4862890000000  0.4881530000000  0.4013390000000 1.0
C      1  0.5335770000000  0.5676750000000  0.5625000000000 1.0
C      1  0.4140670000000  0.5158060000000  0.5508750000000 1.0
C      1  0.6175850000000  0.4508990000000  0.5721170000000 1.0
C      1  0.5105860000000  0.5982170000000  0.4316310000000 1.0
C      1  0.5114390000000  0.4529570000000  0.4568500000000 1.0
C      1  0.4788500000000  0.5360620000000  0.4537100000000 1.0
C      1  0.5262690000000  0.6405800000000  0.5634480000000 1.0
C      1  0.5608620000000  0.4166060000000  0.3555340000000 1.0
C      1  0.4945560000000  0.5987110000000  0.5519180000000 1.0
C      1  0.5568440000000  0.4727050000000  0.4046540000000 1.0
C      1  0.4733910000000  0.4962190000000  0.5139850000000 1.0
C      1  0.4729310000000  0.4998210000000  0.5424860000000 1.0
C      1  0.5318830000000  0.5111330000000  0.4593310000000 1.0
C      1  0.5335310000000  0.5409100000000  0.5669900000000 1.0
C      1  0.4193880000000  0.4167130000000  0.5303530000000 1.0
C      1  0.4606050000000  0.5765180000000  0.5273030000000 1.0
C      1  0.4265810000000  0.4032420000000  0.5083330000000 1.0
C      1  0.5582270000000  0.5274860000000  0.5684990000000 1.0
C      1  0.4626340000000  0.4609930000000  0.4421000000000 1.0
C      1  0.4257580000000  0.5504900000000  0.4643870000000 1.0
C      1  0.4546650000000  0.4565130000000  0.4956700000000 1.0
C      1  0.4803060000000  0.4661510000000  0.5937490000000 1.0
C      1  0.5534990000000  0.5030150000000  0.4428750000000 1.0
C      1  0.5429120000000  0.5388600000000  0.4962370000000 1.0
C      1  0.4222550000000  0.5351520000000  0.5699880000000 1.0
C      1  0.6002780000000  0.4691440000000  0.5638090000000 1.0
C      1  0.4901460000000  0.5546440000000  0.4144480000000 1.0
C      1  0.4441040000000  0.5060310000000  0.4597800000000 1.0
C      1  0.5345960000000  0.5914090000000  0.4963720000000 1.0
C      1  0.4759480000000  0.5158730000000  0.5996020000000 1.0
C      1  0.4986350000000  0.5057200000000  0.5533560000000 1.0
C      1  0.4917170000000  0.5607510000000  0.4608300000000 1.0
C      1  0.5638370000000  0.5002250000000  0.5729610000000 1.0
C      1  0.4777150000000  0.4718620000000  0.4985820000000 1.0
C      1  0.5814800000000  0.4875110000000  0.5541150000000 1.0
C      1  0.5397230000000  0.4546190000000  0.4473390000000 1.0
C      1  0.5589620000000  0.5836970000000  0.4851420000000 1.0
C      1  0.4403830000000  0.4157530000000  0.4600180000000 1.0
C      1  0.4968680000000  0.4461360000000  0.5522730000000 1.0
C      1  0.5040700000000  0.4695460000000  0.6091870000000 1.0
C      1  0.5228130000000  0.4561920000000  0.5084000000000 1.0
C      1  0.5471960000000  0.4889220000000  0.5934450000000 1.0
C      1  0.4976790000000  0.4652520000000  0.4106120000000 1.0
C      1  0.4204790000000  0.5222800000000  0.4626350000000 1.0
C      1  0.4281470000000  0.4554580000000  0.4932440000000 1.0
C      1  0.3968330000000  0.5131120000000  0.4753490000000 1.0
C      1  0.4822150000000  0.5667090000000  0.5948240000000 1.0
C      1  0.5314910000000  0.5054010000000  0.5247860000000 1.0
C      1  0.4699720000000  0.5042580000000  0.4181560000000 1.0
C      1  0.3687970000000  0.4743870000000  0.4603250000000 1.0
C      1  0.6348570000000  0.4325340000000  0.5802990000000 1.0
C      1  0.3959650000000  0.5151600000000  0.5034890000000 1.0
C      1  0.4972340000000  0.5377410000000  0.5039680000000 1.0
C      1  0.5366000000000  0.5994210000000  0.4231550000000 1.0
C      1  0.5812100000000  0.4928500000000  0.5254380000000 1.0
C      1  0.4469580000000  0.4380910000000  0.4467350000000 1.0
C      1  0.4262580000000  0.4902670000000  0.5546730000000 1.0
C      1  0.5591660000000  0.3911780000000  0.3632770000000 1.0
C      1  0.5232120000000  0.5290960000000  0.5127570000000 1.0
C      1  0.5821550000000  0.5466360000000  0.4549970000000 1.0
C      1  0.5164070000000  0.4943540000000  0.4755390000000 1.0
C      1  0.5917340000000  0.4618460000000  0.4861550000000 1.0
C      1  0.5553340000000  0.3864240000000  0.4340870000000 1.0
C      1  0.4075350000000  0.5274130000000  0.5257660000000 1.0
C      1  0.5836180000000  0.4455990000000  0.4661850000000 1.0
C      1  0.4974440000000  0.5624860000000  0.4883960000000 1.0
C      1  0.5773500000000  0.5605800000000  0.4801220000000 1.0
C      1  0.4339790000000  0.4027160000000  0.4825630000000 1.0
C      1  0.3763180000000  0.5001190000000  0.4614250000000 1.0
C      1  0.4648310000000  0.4905330000000  0.5886210000000 1.0
C      1  0.4800210000000  0.5826510000000  0.5707800000000 1.0
C      1  0.5106750000000  0.6203680000000  0.5582130000000 1.0
C      1  0.5501990000000  0.4770290000000  0.4315170000000 1.0
C      1  0.5613000000000  0.4422430000000  0.3626270000000 1.0
C      1  0.5123780000000  0.4615580000000  0.5347550000000 1.0
C      1  0.6518450000000  0.4144690000000  0.5883450000000 1.0
C      1  0.5831140000000  0.5194030000000  0.5146760000000 1.0
C      1  0.4575890000000  0.5694490000000  0.5558440000000 1.0
C      1  0.4463720000000  0.5488310000000  0.5729990000000 1.0
C      1  0.5210220000000  0.4918540000000  0.6049730000000 1.0
C      1  0.4651000000000  0.4220230000000  0.5798760000000 1.0
C      1  0.4762200000000  0.5194530000000  0.4984010000000 1.0
C      1  0.5708840000000  0.5407620000000  0.5007780000000 1.0
C      1  0.5756720000000  0.4708580000000  0.5075240000000 1.0
C      1  0.5063240000000  0.4671360000000  0.4843230000000 1.0
C      1  0.4660800000000  0.5195250000000  0.4721800000000 1.0
END
