TITL C-612600-6631-548 16.2453082788591 125000 -801.686738953397 0 0 132 (C1) n - 1
REM
REM in /home/nfs/bkarasulu/CARBON/AIRSS/Generating-Clusters/TERSOFF/Only-C1/FIRE-HFTN
REM
REM
REM
REM
REM
REM ./C.cell (11c1c37f851c82e70ff6c80c92926a4b)
REM AIRSS Version 0.9.1 bugfix July 2018 build 013d7b7c2542+ Fri, 06 Jul 2018 19:26:36 +0100
REM compiler GCC version 9.2.1 20190827 (Red Hat 9.2.1-1)
REM options -cpp -mtune=generic -march=x86-64 -g -O0 -fpre-include=/usr/include/finclude/math-vector-fortran.h
REM seed 1602792517 1746705102 -375228750 168362575 191545294 -1544496143 1244244001 -223652379 -458311748 741684690 -446047538 1426492434 35161435 483381380 994447520 -1976592356 1534813647 1187463 -669192819 844724579 -217569964 1432426603 1732419583 1545166458 -2105111245 925558588 -1506289099 302999012 1783598456 -1226050892 -272469661 -445506665 774236585
REM
CELL 1.54180   50.00000   50.00000   50.00000   90.00000   90.00000   90.00000
LATT -1
SFAC C  
C      1  0.5686670000000  0.4416170000000  0.4876660000000 1.0
C      1  0.5032000000000  0.5721530000000  0.4158350000000 1.0
C      1  0.5255880000000  0.4085410000000  0.4657750000000 1.0
C      1  0.5887790000000  0.4883260000000  0.4606040000000 1.0
C      1  0.5714220000000  0.4715000000000  0.4166210000000 1.0
C      1  0.5000060000000  0.5013340000000  0.3965730000000 1.0
C      1  0.4907700000000  0.4792180000000  0.4086670000000 1.0
C      1  0.5418020000000  0.5771500000000  0.5104600000000 1.0
C      1  0.3634290000000  0.4916730000000  0.5209270000000 1.0
C      1  0.4361280000000  0.5725090000000  0.4960870000000 1.0
C      1  0.5335200000000  0.4415390000000  0.4099580000000 1.0
C      1  0.4162390000000  0.5116660000000  0.5438720000000 1.0
C      1  0.4201910000000  0.5353030000000  0.4379990000000 1.0
C      1  0.4614780000000  0.4937020000000  0.5376620000000 1.0
C      1  0.5114070000000  0.4325010000000  0.5804960000000 1.0
C      1  0.4201120000000  0.5500930000000  0.5079020000000 1.0
C      1  0.3813350000000  0.4781510000000  0.5355440000000 1.0
C      1  0.5119430000000  0.4960630000000  0.5146860000000 1.0
C      1  0.6027460000000  0.4423090000000  0.5393340000000 1.0
C      1  0.4289930000000  0.5235390000000  0.5678480000000 1.0
C      1  0.5590840000000  0.5771650000000  0.4861180000000 1.0
C      1  0.5124970000000  0.5631630000000  0.6449360000000 1.0
C      1  0.4446900000000  0.5784330000000  0.4478000000000 1.0
C      1  0.5243560000000  0.5151420000000  0.5575440000000 1.0
C      1  0.5610930000000  0.4417200000000  0.5165030000000 1.0
C      1  0.5743150000000  0.4411450000000  0.5425320000000 1.0
C      1  0.5207270000000  0.5446700000000  0.5511870000000 1.0
C      1  0.4089450000000  0.4821620000000  0.5407260000000 1.0
C      1  0.4933890000000  0.4890180000000  0.4951900000000 1.0
C      1  0.5080760000000  0.4127870000000  0.4408860000000 1.0
C      1  0.5018300000000  0.5497290000000  0.6253070000000 1.0
C      1  0.5034690000000  0.5391340000000  0.5086480000000 1.0
C      1  0.4645110000000  0.5841080000000  0.5320980000000 1.0
C      1  0.5083900000000  0.4431890000000  0.5293500000000 1.0
C      1  0.5374920000000  0.5055700000000  0.4582090000000 1.0
C      1  0.4536990000000  0.4554950000000  0.4688580000000 1.0
C      1  0.4284130000000  0.4599500000000  0.5330380000000 1.0
C      1  0.5649630000000  0.5202280000000  0.4234190000000 1.0
C      1  0.5542050000000  0.5679320000000  0.4377160000000 1.0
C      1  0.5155760000000  0.5132010000000  0.4433130000000 1.0
C      1  0.5890690000000  0.4623400000000  0.4775670000000 1.0
C      1  0.4908020000000  0.4586260000000  0.4281970000000 1.0
C      1  0.4362450000000  0.4313830000000  0.5338720000000 1.0
C      1  0.5813560000000  0.4881990000000  0.5950210000000 1.0
C      1  0.4701440000000  0.5919060000000  0.4523910000000 1.0
C      1  0.6007950000000  0.5495930000000  0.5031160000000 1.0
C      1  0.5131520000000  0.4910830000000  0.5425120000000 1.0
C      1  0.5589870000000  0.4506950000000  0.4024240000000 1.0
C      1  0.5395040000000  0.4783870000000  0.4631240000000 1.0
C      1  0.4852790000000  0.5709020000000  0.3928200000000 1.0
C      1  0.4980270000000  0.3867050000000  0.5933820000000 1.0
C      1  0.5100270000000  0.4365690000000  0.4245850000000 1.0
C      1  0.5047650000000  0.6032980000000  0.4832850000000 1.0
C      1  0.5397950000000  0.5613930000000  0.5352780000000 1.0
C      1  0.4786940000000  0.5335300000000  0.5189660000000 1.0
C      1  0.5749220000000  0.4973850000000  0.5389690000000 1.0
C      1  0.4437710000000  0.4750270000000  0.4882810000000 1.0
C      1  0.5986550000000  0.5200660000000  0.5031490000000 1.0
C      1  0.5717750000000  0.4392560000000  0.3810960000000 1.0
C      1  0.4764030000000  0.5357810000000  0.4548450000000 1.0
C      1  0.3743970000000  0.5290830000000  0.4582480000000 1.0
C      1  0.5057300000000  0.3973350000000  0.4856330000000 1.0
C      1  0.5066860000000  0.3980750000000  0.5134870000000 1.0
C      1  0.4535210000000  0.4105000000000  0.4856470000000 1.0
C      1  0.5054730000000  0.5286670000000  0.3934310000000 1.0
C      1  0.5186620000000  0.5969460000000  0.4574530000000 1.0
C      1  0.4258210000000  0.5787570000000  0.4697400000000 1.0
C      1  0.4837140000000  0.5206300000000  0.5847780000000 1.0
C      1  0.4784690000000  0.3970510000000  0.4751150000000 1.0
C      1  0.4919570000000  0.5358980000000  0.6049720000000 1.0
C      1  0.5822350000000  0.5601980000000  0.4833710000000 1.0
C      1  0.4589710000000  0.5877930000000  0.5042020000000 1.0
C      1  0.4413340000000  0.5031830000000  0.5836590000000 1.0
C      1  0.3744670000000  0.5301890000000  0.4872280000000 1.0
C      1  0.4676600000000  0.5647920000000  0.5534030000000 1.0
C      1  0.4567820000000  0.5190640000000  0.5254130000000 1.0
C      1  0.5034380000000  0.4645080000000  0.5471560000000 1.0
C      1  0.5029410000000  0.5598690000000  0.4913430000000 1.0
C      1  0.5239310000000  0.5204320000000  0.5093170000000 1.0
C      1  0.3617940000000  0.5122210000000  0.5040250000000 1.0
C      1  0.5307490000000  0.4637890000000  0.6068240000000 1.0
C      1  0.3950220000000  0.5458300000000  0.4470010000000 1.0
C      1  0.5456830000000  0.4303030000000  0.4717920000000 1.0
C      1  0.4963120000000  0.4173380000000  0.5310420000000 1.0
C      1  0.5963130000000  0.5134310000000  0.4741650000000 1.0
C      1  0.5061300000000  0.4767300000000  0.6094040000000 1.0
C      1  0.4534070000000  0.4206670000000  0.5540970000000 1.0
C      1  0.5290950000000  0.4537210000000  0.4688940000000 1.0
C      1  0.4968000000000  0.4085290000000  0.5773240000000 1.0
C      1  0.6132180000000  0.4590950000000  0.4933040000000 1.0
C      1  0.5811170000000  0.4633400000000  0.5851690000000 1.0
C      1  0.5424290000000  0.5108910000000  0.5790100000000 1.0
C      1  0.4868290000000  0.5552530000000  0.4694550000000 1.0
C      1  0.4851160000000  0.4747200000000  0.5891470000000 1.0
C      1  0.4802770000000  0.4111140000000  0.5539500000000 1.0
C      1  0.4463850000000  0.4287160000000  0.4634660000000 1.0
C      1  0.5741490000000  0.5119260000000  0.5161370000000 1.0
C      1  0.4812880000000  0.4024760000000  0.4456070000000 1.0
C      1  0.5334840000000  0.4438170000000  0.5184700000000 1.0
C      1  0.5451850000000  0.5836740000000  0.4600140000000 1.0
C      1  0.4001750000000  0.5659230000000  0.4680320000000 1.0
C      1  0.4281440000000  0.5119480000000  0.4522730000000 1.0
C      1  0.4388850000000  0.5560780000000  0.4305780000000 1.0
C      1  0.5208130000000  0.5471350000000  0.4112980000000 1.0
C      1  0.4487770000000  0.4746590000000  0.5182780000000 1.0
C      1  0.5157300000000  0.5834590000000  0.5005370000000 1.0
C      1  0.4292000000000  0.5270640000000  0.5221700000000 1.0
C      1  0.5018520000000  0.4490400000000  0.4725120000000 1.0
C      1  0.5503330000000  0.5197400000000  0.5016180000000 1.0
C      1  0.5631350000000  0.4464540000000  0.5702790000000 1.0
C      1  0.5714620000000  0.5328320000000  0.6108470000000 1.0
C      1  0.4567680000000  0.4163120000000  0.4395160000000 1.0
C      1  0.3944520000000  0.5503370000000  0.4935370000000 1.0
C      1  0.4953660000000  0.4551340000000  0.5718610000000 1.0
C      1  0.4972600000000  0.5888130000000  0.4384930000000 1.0
C      1  0.4687530000000  0.4959920000000  0.5749290000000 1.0
C      1  0.5476890000000  0.5447000000000  0.4221750000000 1.0
C      1  0.5526400000000  0.5234260000000  0.4733850000000 1.0
C      1  0.4842610000000  0.4902030000000  0.4684450000000 1.0
C      1  0.4314690000000  0.4969610000000  0.4744920000000 1.0
C      1  0.4751810000000  0.6000920000000  0.4816520000000 1.0
C      1  0.4890750000000  0.5116270000000  0.4515210000000 1.0
C      1  0.4804830000000  0.4629850000000  0.4570500000000 1.0
C      1  0.5378100000000  0.4432680000000  0.5862370000000 1.0
C      1  0.4867160000000  0.5464020000000  0.3801850000000 1.0
C      1  0.5652650000000  0.5112240000000  0.5953940000000 1.0
C      1  0.4448930000000  0.5489100000000  0.5642690000000 1.0
C      1  0.6178440000000  0.4505170000000  0.5184880000000 1.0
C      1  0.4953050000000  0.5571820000000  0.5578430000000 1.0
C      1  0.5766260000000  0.4939970000000  0.4331680000000 1.0
C      1  0.4393950000000  0.4162870000000  0.5094830000000 1.0
C      1  0.5776320000000  0.5357940000000  0.4667900000000 1.0
END
