TITL C-612607-4507-1265 0.113006020358704 125000 -110.270261163535 0 0 20 (C1) n - 1
REM
REM in /home/nfs/bkarasulu/CARBON/AIRSS/Generating-Clusters/TERSOFF/Only-C1/FIRE-HFTN
REM
REM
REM
REM
REM
REM ./C.cell (11c1c37f851c82e70ff6c80c92926a4b)
REM AIRSS Version 0.9.1 bugfix July 2018 build 013d7b7c2542+ Fri, 06 Jul 2018 19:26:36 +0100
REM compiler GCC version 9.2.1 20190827 (Red Hat 9.2.1-1)
REM options -cpp -mtune=generic -march=x86-64 -g -O0 -fpre-include=/usr/include/finclude/math-vector-fortran.h
REM seed 1585754228 983458061 649091179 1669562316 -1060409052 343752336 -1156061542 579377678 -192257482 -361494558 987558837 -1378557375 2025819986 -1289475131 1160809895 -701019659 1697490459 -1893910634 -1478957686 1278645371 1602458612 267177996 -761047981 948723514 -204175223 255310434 720696704 -1007462023 59220768 -755806417 -1120144351 -1538647302 1396176887
REM
CELL 1.54180   50.00000   50.00000   50.00000   90.00000   90.00000   90.00000
LATT -1
SFAC C  
C      1  0.5225010000000  0.4935230000000  0.4667750000000 1.0
C      1  0.5549060000000  0.4628080000000  0.4846070000000 1.0
C      1  0.4530770000000  0.5212790000000  0.4532740000000 1.0
C      1  0.4435980000000  0.5009750000000  0.5033980000000 1.0
C      1  0.5709070000000  0.5526300000000  0.5587650000000 1.0
C      1  0.4214410000000  0.5471990000000  0.4181120000000 1.0
C      1  0.5413620000000  0.4594160000000  0.5521610000000 1.0
C      1  0.5490890000000  0.5067540000000  0.5452660000000 1.0
C      1  0.4934590000000  0.4845040000000  0.5161000000000 1.0
C      1  0.5333760000000  0.4792730000000  0.4882800000000 1.0
C      1  0.4367460000000  0.5346760000000  0.4350880000000 1.0
C      1  0.5600950000000  0.5298630000000  0.5521010000000 1.0
C      1  0.4679410000000  0.4910060000000  0.5130240000000 1.0
C      1  0.4431500000000  0.5127340000000  0.4779970000000 1.0
C      1  0.5373550000000  0.4827070000000  0.5372830000000 1.0
C      1  0.4799060000000  0.5159540000000  0.4473820000000 1.0
C      1  0.5449970000000  0.4373370000000  0.5655190000000 1.0
C      1  0.5040160000000  0.5061370000000  0.4525280000000 1.0
C      1  0.4208450000000  0.4992620000000  0.5184330000000 1.0
C      1  0.5212320000000  0.4819640000000  0.5139090000000 1.0
END
