TITL C-612602-9376-711 -0.0152482125544924 125000 -25.079009881673 0 0 5 (D(inf)h) n - 1
REM
REM in /home/nfs/bkarasulu/CARBON/AIRSS/Generating-Clusters/TERSOFF/Only-C1/FIRE-HFTN
REM
REM
REM
REM
REM
REM ./C.cell (11c1c37f851c82e70ff6c80c92926a4b)
REM AIRSS Version 0.9.1 bugfix July 2018 build 013d7b7c2542+ Fri, 06 Jul 2018 19:26:36 +0100
REM compiler GCC version 9.2.1 20190827 (Red Hat 9.2.1-1)
REM options -cpp -mtune=generic -march=x86-64 -g -O0 -fpre-include=/usr/include/finclude/math-vector-fortran.h
REM seed 574825611 -1892635119 74106862 517151534 1808450221 -1470192547 -1364635338 -1121131352 2139669322 1180539887 1950294917 1049827617 -961143612 -43281576 982319185 -1298239223 -1062654670 1959859580 1490335471 -543101377 1926712668 697646346 -1230657745 -86888196 1503877536 690627394 1910490171 1364648008 -219003744 1341955040 -351007267 -1087032317 356691160
REM
CELL 1.54180   50.00000   50.00000   50.00000   90.00000   90.00000   90.00000
LATT -1
SFAC C  
C      1  0.5056910000000  0.5219240000000  0.4862320000000 1.0
C      1  0.4943090000000  0.4780760000000  0.5137680000000 1.0
C      1  0.5112880000000  0.5434860000000  0.4726900000000 1.0
C      1  0.4887120000000  0.4565140000000  0.5273100000000 1.0
C      1  0.5000000000000  0.5000000000000  0.5000000000000 1.0
END
