TITL C-612607-4507-1437 8837.5287999986 125000 -1014.35971225029 0 0 166 (C1) n - 1
REM
REM in /home/nfs/bkarasulu/CARBON/AIRSS/Generating-Clusters/TERSOFF/Only-C1/FIRE-HFTN
REM
REM
REM
REM
REM
REM ./C.cell (11c1c37f851c82e70ff6c80c92926a4b)
REM AIRSS Version 0.9.1 bugfix July 2018 build 013d7b7c2542+ Fri, 06 Jul 2018 19:26:36 +0100
REM compiler GCC version 9.2.1 20190827 (Red Hat 9.2.1-1)
REM options -cpp -mtune=generic -march=x86-64 -g -O0 -fpre-include=/usr/include/finclude/math-vector-fortran.h
REM seed 633685654 -1311565183 -1952909135 -1338471371 1621777862 1528022163 2122324764 1571164703 866187239 1614525489 993797033 1464511847 561955452 1941377896 842857902 1962321536 137265490 -504558057 132249531 -958840948 345341830 -1015400798 114527983 -616822305 -1133969308 -1297029409 273500254 1772608474 1417754581 -1026563693 1372918526 436954611 -92429251
REM
CELL 1.54180   50.00000   50.00000   50.00000   90.00000   90.00000   90.00000
LATT -1
SFAC C  
C      1  0.4553060000000  0.5018630000000  0.4302970000000 1.0
C      1  0.5090010000000  0.5766530000000  0.5098370000000 1.0
C      1  0.5348100000000  0.5657560000000  0.5712670000000 1.0
C      1  0.4283240000000  0.4416360000000  0.5643030000000 1.0
C      1  0.4746250000000  0.5665420000000  0.4704420000000 1.0
C      1  0.4883800000000  0.4066790000000  0.5401010000000 1.0
C      1  0.4764270000000  0.5421810000000  0.4535280000000 1.0
C      1  0.6070010000000  0.4884640000000  0.4727940000000 1.0
C      1  0.4362110000000  0.4947650000000  0.5399540000000 1.0
C      1  0.4413760000000  0.3981880000000  0.5049750000000 1.0
C      1  0.5379760000000  0.6114660000000  0.5504270000000 1.0
C      1  0.5326890000000  0.5701460000000  0.4507800000000 1.0
C      1  0.4409310000000  0.5393350000000  0.5475200000000 1.0
C      1  0.4587950000000  0.5141600000000  0.5467780000000 1.0
C      1  0.4727190000000  0.4960750000000  0.5669280000000 1.0
C      1  0.4629530000000  0.6098590000000  0.4884990000000 1.0
C      1  0.5908310000000  0.3714530000000  0.5113170000000 1.0
C      1  0.4522480000000  0.4566790000000  0.3948950000000 1.0
C      1  0.5539850000000  0.4152130000000  0.4355890000000 1.0
C      1  0.4508470000000  0.5801220000000  0.4848330000000 1.0
C      1  0.4630990000000  0.4188340000000  0.4553930000000 1.0
C      1  0.4875610000000  0.4942640000000  0.4857630000000 1.0
C      1  0.4176790000000  0.4701620000000  0.4467620000000 1.0
C      1  0.5189400000000  0.6104050000000  0.5696540000000 1.0
C      1  0.3732560000000  0.5765110000000  0.4175320000000 1.0
C      1  0.4264200000000  0.4069290000000  0.4819870000000 1.0
C      1  0.4700720000000  0.4784460000000  0.4445420000000 1.0
C      1  0.5981110000000  0.5358310000000  0.5208950000000 1.0
C      1  0.5151780000000  0.5254660000000  0.5587650000000 1.0
C      1  0.5275590000000  0.4925430000000  0.5208050000000 1.0
C      1  0.4739250000000  0.4252390000000  0.4292900000000 1.0
C      1  0.4375900000000  0.5210030000000  0.4722970000000 1.0
C      1  0.5004850000000  0.5689310000000  0.5357240000000 1.0
C      1  0.4571100000000  0.4857600000000  0.5877050000000 1.0
C      1  0.4675550000000  0.4530100000000  0.4900050000000 1.0
C      1  0.5666300000000  0.4736460000000  0.5479680000000 1.0
C      1  0.5568590000000  0.4467130000000  0.5345090000000 1.0
C      1  0.5235230000000  0.4184270000000  0.4718490000000 1.0
C      1  0.5052850000000  0.5297390000000  0.6069780000000 1.0
C      1  0.4503330000000  0.4403620000000  0.4178530000000 1.0
C      1  0.4310580000000  0.4984670000000  0.5878650000000 1.0
C      1  0.5688360000000  0.4101740000000  0.4805560000000 1.0
C      1  0.5158000000000  0.5536400000000  0.5542470000000 1.0
C      1  0.5432940000000  0.4479340000000  0.5062260000000 1.0
C      1  0.5353260000000  0.4922060000000  0.5866550000000 1.0
C      1  0.4450290000000  0.5742280000000  0.4262660000000 1.0
C      1  0.5102560000000  0.5399150000000  0.4021540000000 1.0
C      1  0.5361820000000  0.4664380000000  0.4051830000000 1.0
C      1  0.5416980000000  0.6121060000000  0.5009530000000 1.0
C      1  0.4993340000000  0.4168420000000  0.4842990000000 1.0
C      1  0.4213000000000  0.5659770000000  0.4699660000000 1.0
C      1  0.5041460000000  0.4277830000000  0.4258680000000 1.0
C      1  0.5795620000000  0.5174920000000  0.5645570000000 1.0
C      1  0.5153690000000  0.6271960000000  0.4942160000000 1.0
C      1  0.4657660000000  0.3827310000000  0.5033180000000 1.0
C      1  0.4398510000000  0.4115920000000  0.5303130000000 1.0
C      1  0.5988430000000  0.5371170000000  0.4894990000000 1.0
C      1  0.4884930000000  0.3876140000000  0.5183060000000 1.0
C      1  0.3918380000000  0.5285960000000  0.5390820000000 1.0
C      1  0.4145890000000  0.4518490000000  0.5153770000000 1.0
C      1  0.5196110000000  0.5167190000000  0.5856030000000 1.0
C      1  0.4943910000000  0.4585140000000  0.6003310000000 1.0
C      1  0.4899930000000  0.4556130000000  0.5403210000000 1.0
C      1  0.5963100000000  0.5121910000000  0.5398800000000 1.0
C      1  0.4211330000000  0.5714990000000  0.4420850000000 1.0
C      1  0.5741890000000  0.5788770000000  0.4672910000000 1.0
C      1  0.5177940000000  0.6402330000000  0.4683460000000 1.0
C      1  0.5981450000000  0.5159310000000  0.4659940000000 1.0
C      1  0.5786920000000  0.3863960000000  0.4908760000000 1.0
C      1  0.5127840000000  0.5245190000000  0.6329370000000 1.0
C      1  0.3923980000000  0.5416390000000  0.5113440000000 1.0
C      1  0.5454090000000  0.4246160000000  0.4889740000000 1.0
C      1  0.4961640000000  0.4713480000000  0.4338960000000 1.0
C      1  0.5116310000000  0.4785710000000  0.4798970000000 1.0
C      1  0.3982440000000  0.5395660000000  0.4816010000000 1.0
C      1  0.4593140000000  0.4817230000000  0.3874480000000 1.0
C      1  0.5337960000000  0.5984140000000  0.4549250000000 1.0
C      1  0.5204300000000  0.5094750000000  0.4460700000000 1.0
C      1  0.4657210000000  0.4597850000000  0.5954820000000 1.0
C      1  0.4249460000000  0.4351190000000  0.5365790000000 1.0
C      1  0.5091810000000  0.4983560000000  0.3776680000000 1.0
C      1  0.5852240000000  0.4476550000000  0.4566530000000 1.0
C      1  0.4895570000000  0.5759050000000  0.5968950000000 1.0
C      1  0.4678620000000  0.4769880000000  0.4738480000000 1.0
C      1  0.5333400000000  0.4329290000000  0.5494290000000 1.0
C      1  0.4341890000000  0.4206410000000  0.4583290000000 1.0
C      1  0.5858080000000  0.5583040000000  0.5383880000000 1.0
C      1  0.5030850000000  0.5321830000000  0.4474460000000 1.0
C      1  0.5947520000000  0.5643380000000  0.4798700000000 1.0
C      1  0.5190270000000  0.5492590000000  0.4636860000000 1.0
C      1  0.5730820000000  0.4992860000000  0.4129590000000 1.0
C      1  0.4916270000000  0.5194270000000  0.4983290000000 1.0
C      1  0.4168600000000  0.4938730000000  0.5620010000000 1.0
C      1  0.5604470000000  0.4931390000000  0.5703400000000 1.0
C      1  0.5466440000000  0.5106690000000  0.4572090000000 1.0
C      1  0.5639190000000  0.5430350000000  0.4272480000000 1.0
C      1  0.5625320000000  0.4720700000000  0.4187680000000 1.0
C      1  0.5472830000000  0.5100540000000  0.5113200000000 1.0
C      1  0.4346920000000  0.5236390000000  0.6013580000000 1.0
C      1  0.4376160000000  0.5481420000000  0.5185620000000 1.0
C      1  0.5193350000000  0.4697320000000  0.5963330000000 1.0
C      1  0.5259720000000  0.4171000000000  0.4430480000000 1.0
C      1  0.4757350000000  0.4289070000000  0.4780110000000 1.0
C      1  0.5676410000000  0.4664480000000  0.4456300000000 1.0
C      1  0.4460610000000  0.4418210000000  0.5850870000000 1.0
C      1  0.4551610000000  0.5240130000000  0.4505660000000 1.0
C      1  0.5258390000000  0.4703870000000  0.5025310000000 1.0
C      1  0.5606020000000  0.5638910000000  0.4455710000000 1.0
C      1  0.4551970000000  0.3906440000000  0.5733090000000 1.0
C      1  0.5597570000000  0.5609720000000  0.5796600000000 1.0
C      1  0.5784020000000  0.5466350000000  0.5646660000000 1.0
C      1  0.4726470000000  0.4553460000000  0.5177610000000 1.0
C      1  0.5952840000000  0.4127660000000  0.5390230000000 1.0
C      1  0.4834380000000  0.5485990000000  0.6027590000000 1.0
C      1  0.4131890000000  0.5418230000000  0.5565470000000 1.0
C      1  0.6009760000000  0.4600370000000  0.4778390000000 1.0
C      1  0.5848060000000  0.4881160000000  0.5294050000000 1.0
C      1  0.5658180000000  0.5763580000000  0.5261430000000 1.0
C      1  0.5990080000000  0.4478550000000  0.5038090000000 1.0
C      1  0.4563170000000  0.5397810000000  0.6051490000000 1.0
C      1  0.5952740000000  0.3446600000000  0.5094700000000 1.0
C      1  0.5598540000000  0.4877160000000  0.4622160000000 1.0
C      1  0.4555200000000  0.5702120000000  0.5133670000000 1.0
C      1  0.5044720000000  0.4306220000000  0.5451680000000 1.0
C      1  0.4963630000000  0.5777930000000  0.4860770000000 1.0
C      1  0.4163690000000  0.4756610000000  0.4991780000000 1.0
C      1  0.4305400000000  0.4968540000000  0.5126960000000 1.0
C      1  0.5338280000000  0.4894270000000  0.3870950000000 1.0
C      1  0.5515150000000  0.6022180000000  0.5270330000000 1.0
C      1  0.4048210000000  0.5893870000000  0.5228130000000 1.0
C      1  0.5979800000000  0.3866360000000  0.5338850000000 1.0
C      1  0.5544500000000  0.6001440000000  0.4766990000000 1.0
C      1  0.4273160000000  0.4901080000000  0.4280760000000 1.0
C      1  0.5134720000000  0.4830790000000  0.4521550000000 1.0
C      1  0.4607580000000  0.4046520000000  0.5497990000000 1.0
C      1  0.4930770000000  0.4809420000000  0.5533010000000 1.0
C      1  0.4690940000000  0.5723790000000  0.4138930000000 1.0
C      1  0.5229110000000  0.6232200000000  0.4476330000000 1.0
C      1  0.4935240000000  0.5628720000000  0.4067060000000 1.0
C      1  0.5113790000000  0.4544410000000  0.4161600000000 1.0
C      1  0.4395320000000  0.5222520000000  0.5009230000000 1.0
C      1  0.5411890000000  0.5357360000000  0.4065190000000 1.0
C      1  0.5076510000000  0.5035110000000  0.5395540000000 1.0
C      1  0.5015650000000  0.5975550000000  0.5860010000000 1.0
C      1  0.4280170000000  0.4431650000000  0.4398310000000 1.0
C      1  0.4107270000000  0.5634890000000  0.5175700000000 1.0
C      1  0.5753990000000  0.4208670000000  0.4546960000000 1.0
C      1  0.5521930000000  0.5584200000000  0.5090430000000 1.0
C      1  0.5388060000000  0.5351610000000  0.5043820000000 1.0
C      1  0.5712040000000  0.4968210000000  0.5063930000000 1.0
C      1  0.4940120000000  0.5161570000000  0.3939460000000 1.0
C      1  0.3965070000000  0.5745640000000  0.4291400000000 1.0
C      1  0.5825520000000  0.5199590000000  0.4338710000000 1.0
C      1  0.4831350000000  0.5175750000000  0.5259810000000 1.0
C      1  0.5851570000000  0.4354810000000  0.5262070000000 1.0
C      1  0.4728690000000  0.5755590000000  0.5351380000000 1.0
C      1  0.4686910000000  0.5046270000000  0.4027360000000 1.0
C      1  0.5520060000000  0.5103080000000  0.3953520000000 1.0
C      1  0.4525460000000  0.3650410000000  0.6195800000000 1.0
C      1  0.4086370000000  0.4838390000000  0.4718350000000 1.0
C      1  0.4526410000000  0.3534340000000  0.6429230000000 1.0
C      1  0.4530940000000  0.3772080000000  0.5960380000000 1.0
C      1  0.4086820000000  0.5146910000000  0.4697670000000 1.0
C      1  0.5148550000000  0.5364520000000  0.4898700000000 1.0
C      1  0.3910610000000  0.5025970000000  0.5520050000000 1.0
C      1  0.4865700000000  0.6212780000000  0.4979970000000 1.0
END
