TITL C-612606-7351-74 0.0274797221939881 125000 -225.469446866788 0 0 39 (C1) n - 1
REM
REM in /home/nfs/bkarasulu/CARBON/AIRSS/Generating-Clusters/TERSOFF/Only-C1/FIRE-HFTN
REM
REM
REM
REM
REM
REM ./C.cell (11c1c37f851c82e70ff6c80c92926a4b)
REM AIRSS Version 0.9.1 bugfix July 2018 build 013d7b7c2542+ Fri, 06 Jul 2018 19:26:36 +0100
REM compiler GCC version 9.2.1 20190827 (Red Hat 9.2.1-1)
REM options -cpp -mtune=generic -march=x86-64 -g -O0 -fpre-include=/usr/include/finclude/math-vector-fortran.h
REM seed 880099831 -1465073855 -1739918674 -1859580820 1296610075 -1285776364 1938466598 403320420 1491103422 149211047 -1541562436 -17998841 -2042258090 -1026786703 -1934690486 -277586864 -1996968758 -1993954564 2096547606 -71031093 -1477632208 143027509 266358860 2085846720 457278205 -87228819 754264664 1016137935 -548604413 1643948039 1154543205 674344330 866535232
REM
CELL 1.54180   50.00000   50.00000   50.00000   90.00000   90.00000   90.00000
LATT -1
SFAC C  
C      1  0.5113400000000  0.4567500000000  0.4969040000000 1.0
C      1  0.6004630000000  0.4664750000000  0.4562340000000 1.0
C      1  0.4661820000000  0.5169590000000  0.4897840000000 1.0
C      1  0.5440780000000  0.5591840000000  0.5218450000000 1.0
C      1  0.5133760000000  0.5221240000000  0.5171400000000 1.0
C      1  0.5299220000000  0.4991690000000  0.4364060000000 1.0
C      1  0.5585860000000  0.5637110000000  0.4999280000000 1.0
C      1  0.4151330000000  0.4918870000000  0.5247790000000 1.0
C      1  0.5611190000000  0.4992340000000  0.4734980000000 1.0
C      1  0.5815840000000  0.4823680000000  0.4646100000000 1.0
C      1  0.5191720000000  0.4731420000000  0.5173940000000 1.0
C      1  0.5458360000000  0.5137750000000  0.4543270000000 1.0
C      1  0.4413470000000  0.4835890000000  0.5172780000000 1.0
C      1  0.4427520000000  0.4584550000000  0.5617800000000 1.0
C      1  0.4848320000000  0.4125740000000  0.6124230000000 1.0
C      1  0.4536310000000  0.4668780000000  0.5368200000000 1.0
C      1  0.4618260000000  0.5301700000000  0.4644810000000 1.0
C      1  0.4537300000000  0.5127980000000  0.4434200000000 1.0
C      1  0.5240640000000  0.5431290000000  0.5332260000000 1.0
C      1  0.4164570000000  0.4684690000000  0.5662640000000 1.0
C      1  0.5232480000000  0.5561420000000  0.4441720000000 1.0
C      1  0.4706020000000  0.4272970000000  0.5962890000000 1.0
C      1  0.5091450000000  0.4844870000000  0.4285560000000 1.0
C      1  0.4875930000000  0.5241350000000  0.5063330000000 1.0
C      1  0.4835220000000  0.4772490000000  0.4308150000000 1.0
C      1  0.4036340000000  0.4844210000000  0.5483040000000 1.0
C      1  0.4744060000000  0.5541230000000  0.4575550000000 1.0
C      1  0.4540840000000  0.4745270000000  0.4702290000000 1.0
C      1  0.4563820000000  0.4423400000000  0.5797520000000 1.0
C      1  0.5178820000000  0.4647790000000  0.5434460000000 1.0
C      1  0.4975970000000  0.5625550000000  0.4474330000000 1.0
C      1  0.5448460000000  0.5422610000000  0.4554660000000 1.0
C      1  0.5603070000000  0.5562180000000  0.4743410000000 1.0
C      1  0.5558190000000  0.5013710000000  0.5014120000000 1.0
C      1  0.5292920000000  0.4991000000000  0.5115560000000 1.0
C      1  0.5152920000000  0.5471810000000  0.5587740000000 1.0
C      1  0.5766680000000  0.5046440000000  0.5189460000000 1.0
C      1  0.4537060000000  0.4911530000000  0.4933580000000 1.0
C      1  0.4605460000000  0.4851780000000  0.4447210000000 1.0
END
