TITL C-612607-4507-1376 223198.227812945 125000 -1132.90657880138 0 0 184 (C1) n - 1
REM
REM in /home/nfs/bkarasulu/CARBON/AIRSS/Generating-Clusters/TERSOFF/Only-C1/FIRE-HFTN
REM
REM
REM
REM
REM
REM ./C.cell (11c1c37f851c82e70ff6c80c92926a4b)
REM AIRSS Version 0.9.1 bugfix July 2018 build 013d7b7c2542+ Fri, 06 Jul 2018 19:26:36 +0100
REM compiler GCC version 9.2.1 20190827 (Red Hat 9.2.1-1)
REM options -cpp -mtune=generic -march=x86-64 -g -O0 -fpre-include=/usr/include/finclude/math-vector-fortran.h
REM seed 1931528545 769147034 352013348 -1952722200 -1416126433 -507057447 -1561586870 1842216129 1466548907 435674821 -1653922899 -1366695366 -442645482 1130648922 -723668872 639122223 -2075266793 -272168494 934909013 2087610199 1734107269 -1342424098 12118316 2048046295 -1623151775 990799843 1619302608 -479905483 -487679188 648794181 -426931060 1785803306 -1598844270
REM
CELL 1.54180   50.00000   50.00000   50.00000   90.00000   90.00000   90.00000
LATT -1
SFAC C  
C      1  0.3819880000000  0.4792620000000  0.5066050000000 1.0
C      1  0.5767400000000  0.5984500000000  0.5607560000000 1.0
C      1  0.4582040000000  0.5354920000000  0.4267860000000 1.0
C      1  0.5195490000000  0.4770870000000  0.3677710000000 1.0
C      1  0.5532180000000  0.5386280000000  0.6019020000000 1.0
C      1  0.5227720000000  0.5815930000000  0.5386460000000 1.0
C      1  0.5404110000000  0.4903150000000  0.5006120000000 1.0
C      1  0.4366030000000  0.4963920000000  0.4562700000000 1.0
C      1  0.6129990000000  0.5530860000000  0.5117750000000 1.0
C      1  0.3660940000000  0.5064030000000  0.4142100000000 1.0
C      1  0.5374720000000  0.5723310000000  0.4156720000000 1.0
C      1  0.5035810000000  0.5632600000000  0.4507960000000 1.0
C      1  0.4539470000000  0.4050990000000  0.4372030000000 1.0
C      1  0.4668510000000  0.3947860000000  0.4905710000000 1.0
C      1  0.5601030000000  0.5752550000000  0.5649000000000 1.0
C      1  0.5391110000000  0.4706100000000  0.3861930000000 1.0
C      1  0.4694480000000  0.5973640000000  0.5486640000000 1.0
C      1  0.5579550000000  0.4657560000000  0.6026010000000 1.0
C      1  0.4508760000000  0.6050060000000  0.4976360000000 1.0
C      1  0.4464920000000  0.6135790000000  0.4721980000000 1.0
C      1  0.4153360000000  0.4693760000000  0.5706650000000 1.0
C      1  0.4757020000000  0.5155040000000  0.4365930000000 1.0
C      1  0.5264150000000  0.5328180000000  0.6114680000000 1.0
C      1  0.5468620000000  0.5416530000000  0.4517140000000 1.0
C      1  0.4647380000000  0.4966950000000  0.4540730000000 1.0
C      1  0.3830170000000  0.4791660000000  0.5360030000000 1.0
C      1  0.4919470000000  0.4210690000000  0.4600080000000 1.0
C      1  0.4552990000000  0.5074310000000  0.5222990000000 1.0
C      1  0.5136660000000  0.3709720000000  0.4791190000000 1.0
C      1  0.5733800000000  0.4493680000000  0.5855110000000 1.0
C      1  0.4804410000000  0.4606690000000  0.5969480000000 1.0
C      1  0.4492710000000  0.4716720000000  0.6326320000000 1.0
C      1  0.4939430000000  0.5305860000000  0.4919060000000 1.0
C      1  0.4683040000000  0.4141660000000  0.4143920000000 1.0
C      1  0.3616780000000  0.5048550000000  0.4409340000000 1.0
C      1  0.4039640000000  0.4117810000000  0.5277450000000 1.0
C      1  0.5308830000000  0.4169740000000  0.5059720000000 1.0
C      1  0.6100570000000  0.4918910000000  0.5409760000000 1.0
C      1  0.4947140000000  0.5104530000000  0.5500110000000 1.0
C      1  0.4592210000000  0.4302430000000  0.5302920000000 1.0
C      1  0.4920510000000  0.4238540000000  0.6267770000000 1.0
C      1  0.4631610000000  0.4780410000000  0.5222460000000 1.0
C      1  0.3838270000000  0.4327080000000  0.5218470000000 1.0
C      1  0.4768710000000  0.5259460000000  0.5334070000000 1.0
C      1  0.4451450000000  0.4174710000000  0.5517250000000 1.0
C      1  0.5424460000000  0.4114530000000  0.4801640000000 1.0
C      1  0.4914380000000  0.5460490000000  0.5160810000000 1.0
C      1  0.5526510000000  0.4018440000000  0.5660490000000 1.0
C      1  0.5534610000000  0.4921690000000  0.6103980000000 1.0
C      1  0.4427130000000  0.6176710000000  0.4455280000000 1.0
C      1  0.6116420000000  0.5051610000000  0.5173530000000 1.0
C      1  0.4156630000000  0.4164540000000  0.4821420000000 1.0
C      1  0.5292610000000  0.5611790000000  0.4404840000000 1.0
C      1  0.5827870000000  0.4744910000000  0.4872850000000 1.0
C      1  0.5408210000000  0.4321590000000  0.4178490000000 1.0
C      1  0.5173770000000  0.4144630000000  0.4199110000000 1.0
C      1  0.5288330000000  0.6077790000000  0.5507690000000 1.0
C      1  0.5294810000000  0.5048670000000  0.6205310000000 1.0
C      1  0.4979820000000  0.4749660000000  0.5802120000000 1.0
C      1  0.5698830000000  0.5141090000000  0.6000890000000 1.0
C      1  0.5329250000000  0.3863340000000  0.5553780000000 1.0
C      1  0.5270370000000  0.5325610000000  0.3892390000000 1.0
C      1  0.4348580000000  0.5653190000000  0.4544610000000 1.0
C      1  0.4034140000000  0.5280890000000  0.4494780000000 1.0
C      1  0.4898420000000  0.5969770000000  0.4220740000000 1.0
C      1  0.5749070000000  0.5281130000000  0.5447280000000 1.0
C      1  0.4823230000000  0.5942900000000  0.3946750000000 1.0
C      1  0.4971740000000  0.5730500000000  0.3821650000000 1.0
C      1  0.5601510000000  0.5010230000000  0.4212230000000 1.0
C      1  0.5081150000000  0.5724060000000  0.5149080000000 1.0
C      1  0.5727000000000  0.5468230000000  0.4642330000000 1.0
C      1  0.4354430000000  0.4816050000000  0.5874960000000 1.0
C      1  0.4760020000000  0.5767030000000  0.5676500000000 1.0
C      1  0.5664980000000  0.5727060000000  0.4154870000000 1.0
C      1  0.4267100000000  0.3991540000000  0.4371880000000 1.0
C      1  0.6067340000000  0.5276910000000  0.4999390000000 1.0
C      1  0.4883590000000  0.3731630000000  0.4884270000000 1.0
C      1  0.4174450000000  0.4206230000000  0.5522570000000 1.0
C      1  0.4864240000000  0.5495120000000  0.3696360000000 1.0
C      1  0.5258340000000  0.4715090000000  0.4391090000000 1.0
C      1  0.4575490000000  0.3715130000000  0.5304320000000 1.0
C      1  0.4821270000000  0.5765140000000  0.4392580000000 1.0
C      1  0.4101290000000  0.4046710000000  0.4574540000000 1.0
C      1  0.5899920000000  0.5254370000000  0.4757830000000 1.0
C      1  0.4010680000000  0.4909690000000  0.5550640000000 1.0
C      1  0.5549950000000  0.5235530000000  0.4014350000000 1.0
C      1  0.4566110000000  0.5970150000000  0.5229960000000 1.0
C      1  0.5406940000000  0.6338290000000  0.5041680000000 1.0
C      1  0.5809970000000  0.4867470000000  0.4381780000000 1.0
C      1  0.3816540000000  0.4504890000000  0.5448650000000 1.0
C      1  0.3790620000000  0.4992160000000  0.4865090000000 1.0
C      1  0.5249790000000  0.4543450000000  0.4631020000000 1.0
C      1  0.5454780000000  0.5101840000000  0.4833700000000 1.0
C      1  0.5229040000000  0.5627970000000  0.3932590000000 1.0
C      1  0.5947180000000  0.5348140000000  0.5646690000000 1.0
C      1  0.4044620000000  0.4440820000000  0.5629870000000 1.0
C      1  0.5930150000000  0.4525900000000  0.4707830000000 1.0
C      1  0.5054730000000  0.3917130000000  0.5494260000000 1.0
C      1  0.4629320000000  0.4017630000000  0.5674870000000 1.0
C      1  0.5924180000000  0.5118980000000  0.5823550000000 1.0
C      1  0.4310870000000  0.5102100000000  0.5836300000000 1.0
C      1  0.5735890000000  0.5467450000000  0.4039300000000 1.0
C      1  0.6113480000000  0.5583490000000  0.5597030000000 1.0
C      1  0.4194420000000  0.4006220000000  0.5061160000000 1.0
C      1  0.6010500000000  0.4875910000000  0.5681890000000 1.0
C      1  0.4436660000000  0.6154090000000  0.4183400000000 1.0
C      1  0.5011860000000  0.5421670000000  0.6009900000000 1.0
C      1  0.5098810000000  0.6262210000000  0.5611580000000 1.0
C      1  0.5024540000000  0.4452970000000  0.5385310000000 1.0
C      1  0.5022530000000  0.4206090000000  0.5572760000000 1.0
C      1  0.5280210000000  0.3910340000000  0.4652980000000 1.0
C      1  0.5987630000000  0.4606700000000  0.5778500000000 1.0
C      1  0.4243670000000  0.5383520000000  0.4935120000000 1.0
C      1  0.5612160000000  0.4367880000000  0.4382360000000 1.0
C      1  0.4181550000000  0.5461840000000  0.4667500000000 1.0
C      1  0.4773110000000  0.4859910000000  0.4772560000000 1.0
C      1  0.5472410000000  0.4348190000000  0.4639360000000 1.0
C      1  0.5026950000000  0.4420570000000  0.4767060000000 1.0
C      1  0.4021510000000  0.5410280000000  0.5568270000000 1.0
C      1  0.4956140000000  0.5024160000000  0.4914360000000 1.0
C      1  0.4962340000000  0.5451570000000  0.4694750000000 1.0
C      1  0.4336510000000  0.5130320000000  0.5024250000000 1.0
C      1  0.5116280000000  0.4924330000000  0.5364300000000 1.0
C      1  0.5270530000000  0.4586110000000  0.4111710000000 1.0
C      1  0.3890340000000  0.4513240000000  0.4996440000000 1.0
C      1  0.6274890000000  0.5545780000000  0.5362330000000 1.0
C      1  0.5708020000000  0.5760330000000  0.4661890000000 1.0
C      1  0.4528030000000  0.5079980000000  0.3892500000000 1.0
C      1  0.5187880000000  0.4674130000000  0.5494030000000 1.0
C      1  0.4973550000000  0.4539490000000  0.4004080000000 1.0
C      1  0.4991200000000  0.5243670000000  0.3780660000000 1.0
C      1  0.4561400000000  0.6067150000000  0.3952730000000 1.0
C      1  0.5643940000000  0.4239400000000  0.5762680000000 1.0
C      1  0.4834850000000  0.4178990000000  0.5795050000000 1.0
C      1  0.4263890000000  0.4921830000000  0.4826030000000 1.0
C      1  0.4930320000000  0.4259230000000  0.4071900000000 1.0
C      1  0.4843730000000  0.5199500000000  0.5961880000000 1.0
C      1  0.5511630000000  0.4628460000000  0.5345930000000 1.0
C      1  0.4761220000000  0.4179000000000  0.5092290000000 1.0
C      1  0.4853720000000  0.4334850000000  0.6022210000000 1.0
C      1  0.5223520000000  0.6167830000000  0.4932780000000 1.0
C      1  0.5766260000000  0.5855560000000  0.4394460000000 1.0
C      1  0.5930250000000  0.5727040000000  0.5108200000000 1.0
C      1  0.4549010000000  0.4712090000000  0.6051620000000 1.0
C      1  0.4611650000000  0.4687970000000  0.4944230000000 1.0
C      1  0.5171670000000  0.6471180000000  0.5771290000000 1.0
C      1  0.5119560000000  0.4049540000000  0.4459810000000 1.0
C      1  0.4386790000000  0.5238400000000  0.4094500000000 1.0
C      1  0.4436610000000  0.3844140000000  0.5078510000000 1.0
C      1  0.3811250000000  0.5117210000000  0.4606890000000 1.0
C      1  0.5042550000000  0.4322810000000  0.5080500000000 1.0
C      1  0.4830750000000  0.6214430000000  0.5545730000000 1.0
C      1  0.5368510000000  0.4973470000000  0.4384690000000 1.0
C      1  0.5000200000000  0.5129710000000  0.4255420000000 1.0
C      1  0.4907170000000  0.5017610000000  0.5762640000000 1.0
C      1  0.5588530000000  0.6333060000000  0.5245370000000 1.0
C      1  0.5375060000000  0.5166480000000  0.4582610000000 1.0
C      1  0.4763960000000  0.3813900000000  0.5501000000000 1.0
C      1  0.6214620000000  0.4454490000000  0.5804390000000 1.0
C      1  0.4575960000000  0.5614850000000  0.4383060000000 1.0
C      1  0.4105940000000  0.5164020000000  0.5642650000000 1.0
C      1  0.5578560000000  0.5626730000000  0.5892940000000 1.0
C      1  0.6030410000000  0.5864040000000  0.5638600000000 1.0
C      1  0.5237560000000  0.5879470000000  0.4931150000000 1.0
C      1  0.4446790000000  0.4727100000000  0.6582620000000 1.0
C      1  0.4135020000000  0.4447610000000  0.4863690000000 1.0
C      1  0.5488000000000  0.5664360000000  0.5384120000000 1.0
C      1  0.4115490000000  0.5235770000000  0.4204460000000 1.0
C      1  0.5858060000000  0.4978120000000  0.4670040000000 1.0
C      1  0.5823650000000  0.4563800000000  0.4430620000000 1.0
C      1  0.6099460000000  0.4329170000000  0.4788450000000 1.0
C      1  0.3896730000000  0.5152460000000  0.4041080000000 1.0
C      1  0.4725550000000  0.4555490000000  0.5368680000000 1.0
C      1  0.5521610000000  0.5807810000000  0.4888650000000 1.0
C      1  0.4930360000000  0.4757790000000  0.3801470000000 1.0
C      1  0.5615730000000  0.4731090000000  0.5088650000000 1.0
C      1  0.4670280000000  0.4076990000000  0.4627180000000 1.0
C      1  0.4336280000000  0.4645630000000  0.4876820000000 1.0
C      1  0.5144170000000  0.4916800000000  0.5091810000000 1.0
C      1  0.4917900000000  0.5652070000000  0.5867480000000 1.0
C      1  0.4804000000000  0.5016270000000  0.3816440000000 1.0
C      1  0.5653580000000  0.5753720000000  0.5137650000000 1.0
C      1  0.5573900000000  0.6167790000000  0.5477510000000 1.0
C      1  0.5508900000000  0.5374050000000  0.5373080000000 1.0
END
