TITL C-612606-7351-557 230.079003087846 125000 -1055.49129253508 0 0 172 (C1) n - 1
REM
REM in /home/nfs/bkarasulu/CARBON/AIRSS/Generating-Clusters/TERSOFF/Only-C1/FIRE-HFTN
REM
REM
REM
REM
REM
REM ./C.cell (11c1c37f851c82e70ff6c80c92926a4b)
REM AIRSS Version 0.9.1 bugfix July 2018 build 013d7b7c2542+ Fri, 06 Jul 2018 19:26:36 +0100
REM compiler GCC version 9.2.1 20190827 (Red Hat 9.2.1-1)
REM options -cpp -mtune=generic -march=x86-64 -g -O0 -fpre-include=/usr/include/finclude/math-vector-fortran.h
REM seed -1589859281 1029505687 -1738522353 1795059271 -762307403 965264282 -1181818202 872597241 -515999352 -511673057 -1625889436 1580562600 -1863092605 -789117389 -970815350 2008164869 2014441651 607560130 -1810915762 2061425696 1166546810 168718206 1758443699 -1628352563 20346717 1153663859 820516567 555889745 -897481207 -1641615904 -823783712 1525710882 9314697
REM
CELL 1.54180   50.00000   50.00000   50.00000   90.00000   90.00000   90.00000
LATT -1
SFAC C  
C      1  0.5015880000000  0.4566420000000  0.4455410000000 1.0
C      1  0.5120430000000  0.4533040000000  0.5393320000000 1.0
C      1  0.4992350000000  0.5519200000000  0.5550180000000 1.0
C      1  0.5271150000000  0.5207320000000  0.5838110000000 1.0
C      1  0.5490360000000  0.4218560000000  0.4402610000000 1.0
C      1  0.4155950000000  0.4697470000000  0.5532720000000 1.0
C      1  0.4788660000000  0.6079600000000  0.5113450000000 1.0
C      1  0.4322810000000  0.5933210000000  0.5229490000000 1.0
C      1  0.5213050000000  0.4465550000000  0.4923480000000 1.0
C      1  0.4510820000000  0.6041590000000  0.5025380000000 1.0
C      1  0.4119220000000  0.4980280000000  0.5618200000000 1.0
C      1  0.4985230000000  0.4962170000000  0.3793590000000 1.0
C      1  0.4588030000000  0.5158940000000  0.5172250000000 1.0
C      1  0.3691950000000  0.5239530000000  0.5614640000000 1.0
C      1  0.5034730000000  0.4150100000000  0.4251280000000 1.0
C      1  0.5520650000000  0.5881460000000  0.5416480000000 1.0
C      1  0.5682380000000  0.5351650000000  0.6023530000000 1.0
C      1  0.5919450000000  0.5645890000000  0.5201570000000 1.0
C      1  0.4654140000000  0.5306450000000  0.3987200000000 1.0
C      1  0.3911800000000  0.5102180000000  0.5192380000000 1.0
C      1  0.5046660000000  0.6254370000000  0.4712490000000 1.0
C      1  0.4984340000000  0.4498940000000  0.4741200000000 1.0
C      1  0.4719590000000  0.5855840000000  0.4623510000000 1.0
C      1  0.4430700000000  0.5386690000000  0.4147970000000 1.0
C      1  0.4560540000000  0.5317930000000  0.5623990000000 1.0
C      1  0.3903090000000  0.4597870000000  0.4671550000000 1.0
C      1  0.5326570000000  0.4580480000000  0.6086860000000 1.0
C      1  0.4857540000000  0.5909410000000  0.5781210000000 1.0
C      1  0.5415410000000  0.5443040000000  0.4580800000000 1.0
C      1  0.4247320000000  0.3942710000000  0.5024180000000 1.0
C      1  0.5350840000000  0.5956080000000  0.4377800000000 1.0
C      1  0.5316440000000  0.5847330000000  0.5613390000000 1.0
C      1  0.4583670000000  0.5970080000000  0.5711230000000 1.0
C      1  0.4875120000000  0.5133130000000  0.3994820000000 1.0
C      1  0.5015300000000  0.5820310000000  0.5529270000000 1.0
C      1  0.4349890000000  0.4885670000000  0.4134230000000 1.0
C      1  0.3827620000000  0.5248810000000  0.4965240000000 1.0
C      1  0.5262470000000  0.4040590000000  0.4392060000000 1.0
C      1  0.4886640000000  0.4171200000000  0.5624710000000 1.0
C      1  0.4568300000000  0.5386470000000  0.5339500000000 1.0
C      1  0.5610610000000  0.4532960000000  0.5546210000000 1.0
C      1  0.5342440000000  0.4065530000000  0.5764370000000 1.0
C      1  0.4348350000000  0.4531000000000  0.5099400000000 1.0
C      1  0.5645240000000  0.4649240000000  0.4197850000000 1.0
C      1  0.5143110000000  0.3976550000000  0.4927730000000 1.0
C      1  0.5460710000000  0.6027080000000  0.4130280000000 1.0
C      1  0.4119060000000  0.5614710000000  0.4849560000000 1.0
C      1  0.4695180000000  0.5357640000000  0.4608090000000 1.0
C      1  0.4809620000000  0.4276530000000  0.4849020000000 1.0
C      1  0.5723050000000  0.5687030000000  0.5411980000000 1.0
C      1  0.4908210000000  0.5632630000000  0.4271890000000 1.0
C      1  0.5768190000000  0.5407290000000  0.4149670000000 1.0
C      1  0.4359160000000  0.4436800000000  0.4342860000000 1.0
C      1  0.5187810000000  0.5634250000000  0.4922740000000 1.0
C      1  0.4423540000000  0.4356760000000  0.4612720000000 1.0
C      1  0.5841830000000  0.5615120000000  0.4338620000000 1.0
C      1  0.5772560000000  0.5550450000000  0.4936030000000 1.0
C      1  0.4673670000000  0.5630670000000  0.5248620000000 1.0
C      1  0.4703820000000  0.4909370000000  0.6123060000000 1.0
C      1  0.5102830000000  0.4206250000000  0.5822620000000 1.0
C      1  0.4822390000000  0.4721110000000  0.3833140000000 1.0
C      1  0.5602370000000  0.4274640000000  0.5393800000000 1.0
C      1  0.4006800000000  0.5350220000000  0.4761070000000 1.0
C      1  0.6050870000000  0.4827300000000  0.4832310000000 1.0
C      1  0.4215460000000  0.4442460000000  0.5653640000000 1.0
C      1  0.4919570000000  0.5413930000000  0.4444520000000 1.0
C      1  0.4477230000000  0.3911710000000  0.5210790000000 1.0
C      1  0.5394050000000  0.5693020000000  0.4476200000000 1.0
C      1  0.4780870000000  0.4717170000000  0.5655510000000 1.0
C      1  0.5644520000000  0.5083370000000  0.5189460000000 1.0
C      1  0.5554930000000  0.6088390000000  0.3895160000000 1.0
C      1  0.5429220000000  0.4047800000000  0.5491800000000 1.0
C      1  0.5497360000000  0.5067590000000  0.3922050000000 1.0
C      1  0.4431460000000  0.5660810000000  0.4248760000000 1.0
C      1  0.4009190000000  0.4361530000000  0.4816510000000 1.0
C      1  0.4846970000000  0.5859680000000  0.5287310000000 1.0
C      1  0.4660990000000  0.4195220000000  0.4621810000000 1.0
C      1  0.5269210000000  0.4981030000000  0.3777510000000 1.0
C      1  0.4957310000000  0.4287370000000  0.5364240000000 1.0
C      1  0.4422640000000  0.4038650000000  0.5464130000000 1.0
C      1  0.5194540000000  0.6148670000000  0.4513860000000 1.0
C      1  0.5007390000000  0.5100200000000  0.5413000000000 1.0
C      1  0.4228770000000  0.4685710000000  0.4307440000000 1.0
C      1  0.4739490000000  0.3766660000000  0.5169820000000 1.0
C      1  0.4681650000000  0.5786260000000  0.4337350000000 1.0
C      1  0.5280420000000  0.5173920000000  0.4627630000000 1.0
C      1  0.4239860000000  0.5796810000000  0.4667110000000 1.0
C      1  0.5083730000000  0.5194170000000  0.4412200000000 1.0
C      1  0.5459610000000  0.5735930000000  0.4968100000000 1.0
C      1  0.5169470000000  0.4657690000000  0.5139490000000 1.0
C      1  0.5449730000000  0.5958740000000  0.5152580000000 1.0
C      1  0.4549470000000  0.4783620000000  0.3939930000000 1.0
C      1  0.4655700000000  0.4773970000000  0.5897530000000 1.0
C      1  0.4130440000000  0.4940260000000  0.5119380000000 1.0
C      1  0.5309540000000  0.5714630000000  0.5888540000000 1.0
C      1  0.5579510000000  0.4788430000000  0.5685820000000 1.0
C      1  0.4994210000000  0.4894970000000  0.5020720000000 1.0
C      1  0.4029130000000  0.4085150000000  0.4918330000000 1.0
C      1  0.6153540000000  0.5324100000000  0.5534750000000 1.0
C      1  0.5876050000000  0.5518250000000  0.4611570000000 1.0
C      1  0.4598510000000  0.4520880000000  0.5215440000000 1.0
C      1  0.4274260000000  0.5159900000000  0.4250250000000 1.0
C      1  0.4146060000000  0.5725530000000  0.5120190000000 1.0
C      1  0.5055810000000  0.4635120000000  0.5660220000000 1.0
C      1  0.5592670000000  0.4189920000000  0.4892940000000 1.0
C      1  0.4962860000000  0.5211380000000  0.6402840000000 1.0
C      1  0.6005590000000  0.4547350000000  0.4828520000000 1.0
C      1  0.4688680000000  0.4734140000000  0.5385280000000 1.0
C      1  0.5678290000000  0.4242040000000  0.4623030000000 1.0
C      1  0.5314660000000  0.4202150000000  0.4920360000000 1.0
C      1  0.5805600000000  0.5140310000000  0.4292140000000 1.0
C      1  0.5090710000000  0.5359650000000  0.5338740000000 1.0
C      1  0.5890290000000  0.4432670000000  0.4591060000000 1.0
C      1  0.5026700000000  0.3852600000000  0.5158780000000 1.0
C      1  0.5989680000000  0.4396130000000  0.5074480000000 1.0
C      1  0.5583260000000  0.4830600000000  0.5086310000000 1.0
C      1  0.4860940000000  0.4792560000000  0.4373420000000 1.0
C      1  0.4834640000000  0.4749330000000  0.4821380000000 1.0
C      1  0.5842320000000  0.5124490000000  0.5935410000000 1.0
C      1  0.4991460000000  0.5219790000000  0.5915300000000 1.0
C      1  0.5438720000000  0.4437850000000  0.4195760000000 1.0
C      1  0.4776220000000  0.4310500000000  0.5137860000000 1.0
C      1  0.5424820000000  0.5035470000000  0.5636940000000 1.0
C      1  0.4967210000000  0.5013990000000  0.4240620000000 1.0
C      1  0.5423370000000  0.5443050000000  0.5938290000000 1.0
C      1  0.5644290000000  0.4931840000000  0.4140480000000 1.0
C      1  0.5444660000000  0.4929720000000  0.4622140000000 1.0
C      1  0.5714730000000  0.4857790000000  0.5940910000000 1.0
C      1  0.4173980000000  0.4196890000000  0.5494930000000 1.0
C      1  0.4983450000000  0.4495950000000  0.3900160000000 1.0
C      1  0.4698980000000  0.4867440000000  0.4604130000000 1.0
C      1  0.6136360000000  0.5491480000000  0.5318470000000 1.0
C      1  0.5941250000000  0.5084120000000  0.4802040000000 1.0
C      1  0.4889040000000  0.5117090000000  0.6158380000000 1.0
C      1  0.4962710000000  0.5757900000000  0.4772960000000 1.0
C      1  0.4397280000000  0.5970350000000  0.5508540000000 1.0
C      1  0.4807090000000  0.4969930000000  0.5244630000000 1.0
C      1  0.4167190000000  0.4691710000000  0.5241770000000 1.0
C      1  0.5788950000000  0.5233930000000  0.5001740000000 1.0
C      1  0.4362680000000  0.5070040000000  0.5037430000000 1.0
C      1  0.4824430000000  0.5371310000000  0.5737750000000 1.0
C      1  0.4607170000000  0.4147150000000  0.5669910000000 1.0
C      1  0.4479780000000  0.5931650000000  0.4761610000000 1.0
C      1  0.6204200000000  0.4374400000000  0.5242520000000 1.0
C      1  0.5248650000000  0.3869090000000  0.5349280000000 1.0
C      1  0.5558770000000  0.4715740000000  0.6135630000000 1.0
C      1  0.4706820000000  0.3491130000000  0.5135470000000 1.0
C      1  0.5149950000000  0.4484710000000  0.5887530000000 1.0
C      1  0.3894450000000  0.5115790000000  0.5480010000000 1.0
C      1  0.5138640000000  0.5146920000000  0.4904070000000 1.0
C      1  0.4042780000000  0.4805670000000  0.4511640000000 1.0
C      1  0.4450550000000  0.4357150000000  0.5805940000000 1.0
C      1  0.5268570000000  0.6170930000000  0.5117670000000 1.0
C      1  0.4089060000000  0.5123910000000  0.4510510000000 1.0
C      1  0.5159600000000  0.4367960000000  0.4083330000000 1.0
C      1  0.5880110000000  0.4566290000000  0.4342450000000 1.0
C      1  0.5912680000000  0.5219770000000  0.4555370000000 1.0
C      1  0.5639230000000  0.5440430000000  0.5510510000000 1.0
C      1  0.6052780000000  0.5190540000000  0.5749380000000 1.0
C      1  0.5739140000000  0.4265510000000  0.5130800000000 1.0
C      1  0.5535230000000  0.4780920000000  0.4825680000000 1.0
C      1  0.5016740000000  0.6208240000000  0.4990530000000 1.0
C      1  0.5555580000000  0.5187540000000  0.5433360000000 1.0
C      1  0.5594640000000  0.5343230000000  0.3928790000000 1.0
C      1  0.4339120000000  0.5150780000000  0.5698670000000 1.0
C      1  0.4762290000000  0.4156630000000  0.4342190000000 1.0
C      1  0.5048800000000  0.5824790000000  0.5991670000000 1.0
C      1  0.4287770000000  0.4437410000000  0.4842620000000 1.0
C      1  0.4583410000000  0.5116600000000  0.4635420000000 1.0
C      1  0.5137560000000  0.5389950000000  0.5061770000000 1.0
C      1  0.4209740000000  0.5760450000000  0.4390320000000 1.0
C      1  0.4544050000000  0.4277330000000  0.4183860000000 1.0
END
