TITL C-612606-7351-781 0.000123312166225535 125000 -429.147793120668 0 0 72 (C1) n - 1
REM
REM in /home/nfs/bkarasulu/CARBON/AIRSS/Generating-Clusters/TERSOFF/Only-C1/FIRE-HFTN
REM
REM
REM
REM
REM
REM ./C.cell (11c1c37f851c82e70ff6c80c92926a4b)
REM AIRSS Version 0.9.1 bugfix July 2018 build 013d7b7c2542+ Fri, 06 Jul 2018 19:26:36 +0100
REM compiler GCC version 9.2.1 20190827 (Red Hat 9.2.1-1)
REM options -cpp -mtune=generic -march=x86-64 -g -O0 -fpre-include=/usr/include/finclude/math-vector-fortran.h
REM seed 1437946833 1538796082 -2076716089 1829708671 736881182 1303151367 1043686968 -1677236498 793746747 1916505745 301562690 -2147334534 -56979965 -2070333618 -1194377670 1874304085 181277280 2017501636 -1038477012 -776782391 -1293448172 -83410277 254886602 -658547785 -755983567 -1319417172 201492681 -415901407 -1860873904 -1287968872 2043078498 -1289259118 -1169190946
REM
CELL 1.54180   50.00000   50.00000   50.00000   90.00000   90.00000   90.00000
LATT -1
SFAC C  
C      1  0.5524250000000  0.5753270000000  0.5355730000000 1.0
C      1  0.5214390000000  0.6066590000000  0.5114630000000 1.0
C      1  0.5296420000000  0.4217050000000  0.4849420000000 1.0
C      1  0.4826840000000  0.4990180000000  0.5867420000000 1.0
C      1  0.4858040000000  0.4252600000000  0.5387340000000 1.0
C      1  0.5254670000000  0.4656310000000  0.5490430000000 1.0
C      1  0.5754850000000  0.4701230000000  0.4752320000000 1.0
C      1  0.4333660000000  0.5049790000000  0.4461860000000 1.0
C      1  0.4494920000000  0.5712420000000  0.4571270000000 1.0
C      1  0.4631060000000  0.5153990000000  0.5296600000000 1.0
C      1  0.4567500000000  0.4425940000000  0.4827860000000 1.0
C      1  0.4477560000000  0.4516190000000  0.5401250000000 1.0
C      1  0.4731100000000  0.4419950000000  0.4347220000000 1.0
C      1  0.5191350000000  0.5314380000000  0.5777400000000 1.0
C      1  0.4116960000000  0.4781860000000  0.5376350000000 1.0
C      1  0.4933870000000  0.5205690000000  0.5718650000000 1.0
C      1  0.4914500000000  0.5784490000000  0.4821150000000 1.0
C      1  0.6068080000000  0.4516650000000  0.4431900000000 1.0
C      1  0.5365970000000  0.5651760000000  0.4930000000000 1.0
C      1  0.4221500000000  0.5170800000000  0.4237040000000 1.0
C      1  0.4774910000000  0.4699630000000  0.5100960000000 1.0
C      1  0.5734070000000  0.5490770000000  0.4268340000000 1.0
C      1  0.5624000000000  0.5134520000000  0.4929540000000 1.0
C      1  0.4823540000000  0.5536790000000  0.4932450000000 1.0
C      1  0.5507100000000  0.5550070000000  0.5157440000000 1.0
C      1  0.4308410000000  0.4527560000000  0.4930460000000 1.0
C      1  0.4872070000000  0.5177960000000  0.5440330000000 1.0
C      1  0.4680470000000  0.5101190000000  0.4817480000000 1.0
C      1  0.5356510000000  0.4443090000000  0.5321420000000 1.0
C      1  0.4258540000000  0.4583800000000  0.5214120000000 1.0
C      1  0.5024420000000  0.4581750000000  0.5668880000000 1.0
C      1  0.4476940000000  0.5383680000000  0.5237260000000 1.0
C      1  0.4777600000000  0.4735570000000  0.5747260000000 1.0
C      1  0.4899350000000  0.5291220000000  0.4799110000000 1.0
C      1  0.5548810000000  0.4871250000000  0.4841110000000 1.0
C      1  0.4989100000000  0.6553610000000  0.5074010000000 1.0
C      1  0.4537320000000  0.5529290000000  0.5004340000000 1.0
C      1  0.4333090000000  0.4764690000000  0.4487120000000 1.0
C      1  0.4724070000000  0.5861320000000  0.4619700000000 1.0
C      1  0.5713670000000  0.5297300000000  0.4714040000000 1.0
C      1  0.4502760000000  0.4687640000000  0.5640060000000 1.0
C      1  0.5284370000000  0.4801550000000  0.4766260000000 1.0
C      1  0.5569960000000  0.5269340000000  0.5180580000000 1.0
C      1  0.4812200000000  0.4584070000000  0.4842110000000 1.0
C      1  0.4450700000000  0.5205240000000  0.4668240000000 1.0
C      1  0.5101710000000  0.6319680000000  0.5096630000000 1.0
C      1  0.5045630000000  0.4685610000000  0.4720420000000 1.0
C      1  0.5217330000000  0.4363060000000  0.5082770000000 1.0
C      1  0.5500680000000  0.5133190000000  0.5428590000000 1.0
C      1  0.5307810000000  0.4919720000000  0.5396800000000 1.0
C      1  0.5081540000000  0.5055410000000  0.5297500000000 1.0
C      1  0.4253280000000  0.4839420000000  0.5616200000000 1.0
C      1  0.4937060000000  0.4271670000000  0.4443880000000 1.0
C      1  0.5751320000000  0.4232960000000  0.4665140000000 1.0
C      1  0.5168650000000  0.5860120000000  0.4919440000000 1.0
C      1  0.4413850000000  0.5489030000000  0.4736420000000 1.0
C      1  0.5598160000000  0.4295030000000  0.5342630000000 1.0
C      1  0.5679590000000  0.4137400000000  0.5134380000000 1.0
C      1  0.4185900000000  0.4658670000000  0.4709010000000 1.0
C      1  0.5127970000000  0.4195270000000  0.4620940000000 1.0
C      1  0.5592530000000  0.5380710000000  0.4473340000000 1.0
C      1  0.5576540000000  0.4145350000000  0.4866140000000 1.0
C      1  0.4120640000000  0.5291020000000  0.4028990000000 1.0
C      1  0.4972060000000  0.4301280000000  0.5630290000000 1.0
C      1  0.5090400000000  0.5286800000000  0.4595970000000 1.0
C      1  0.5864820000000  0.4484810000000  0.4610730000000 1.0
C      1  0.4663360000000  0.4966220000000  0.5076670000000 1.0
C      1  0.5438600000000  0.5282640000000  0.5665590000000 1.0
C      1  0.4722010000000  0.4475040000000  0.5276440000000 1.0
C      1  0.5387640000000  0.5987890000000  0.5328000000000 1.0
C      1  0.5314190000000  0.5341420000000  0.4462310000000 1.0
C      1  0.4525220000000  0.4596560000000  0.4356330000000 1.0
END
