TITL C-612607-4507-240 176.415940566886 125000 -1013.73572985562 0 0 164 (C1) n - 1
REM
REM in /home/nfs/bkarasulu/CARBON/AIRSS/Generating-Clusters/TERSOFF/Only-C1/FIRE-HFTN
REM
REM
REM
REM
REM
REM ./C.cell (11c1c37f851c82e70ff6c80c92926a4b)
REM AIRSS Version 0.9.1 bugfix July 2018 build 013d7b7c2542+ Fri, 06 Jul 2018 19:26:36 +0100
REM compiler GCC version 9.2.1 20190827 (Red Hat 9.2.1-1)
REM options -cpp -mtune=generic -march=x86-64 -g -O0 -fpre-include=/usr/include/finclude/math-vector-fortran.h
REM seed -1888565019 -127143566 1363114643 -1048781049 311843329 238327506 1123617529 1302133915 281251806 -644803683 1611417339 1982066479 827457987 1324405744 1606052215 -71274827 -1314020832 -178690356 1052710847 -252385489 -2015825153 63064440 1199915660 -1574232370 2033812561 -341671343 2021605881 -1864254090 553066452 -587459124 862067018 158950566 207406729
REM
CELL 1.54180   50.00000   50.00000   50.00000   90.00000   90.00000   90.00000
LATT -1
SFAC C  
C      1  0.5534120000000  0.5776610000000  0.5324150000000 1.0
C      1  0.4523990000000  0.4922620000000  0.4513380000000 1.0
C      1  0.4713650000000  0.4676770000000  0.5065990000000 1.0
C      1  0.5532470000000  0.4593020000000  0.4941320000000 1.0
C      1  0.4855110000000  0.5595940000000  0.4763800000000 1.0
C      1  0.5390570000000  0.5897760000000  0.5100010000000 1.0
C      1  0.4037160000000  0.5111570000000  0.5632910000000 1.0
C      1  0.4842690000000  0.4411010000000  0.4183390000000 1.0
C      1  0.4368750000000  0.4280140000000  0.5627250000000 1.0
C      1  0.4514820000000  0.6108170000000  0.4413130000000 1.0
C      1  0.5254250000000  0.4770450000000  0.5664700000000 1.0
C      1  0.5825890000000  0.5865120000000  0.4847310000000 1.0
C      1  0.5286470000000  0.3709070000000  0.5043120000000 1.0
C      1  0.5488470000000  0.4684780000000  0.3987740000000 1.0
C      1  0.6257850000000  0.4385250000000  0.4962080000000 1.0
C      1  0.6237210000000  0.5035350000000  0.5067090000000 1.0
C      1  0.4740630000000  0.4783310000000  0.4405700000000 1.0
C      1  0.4940990000000  0.5247750000000  0.5258450000000 1.0
C      1  0.5305260000000  0.4960640000000  0.5464340000000 1.0
C      1  0.5146800000000  0.5066160000000  0.4196950000000 1.0
C      1  0.4934080000000  0.3971410000000  0.5197300000000 1.0
C      1  0.4915610000000  0.4327730000000  0.6000300000000 1.0
C      1  0.3401640000000  0.4880860000000  0.3844900000000 1.0
C      1  0.5652020000000  0.5059230000000  0.5157280000000 1.0
C      1  0.4394820000000  0.4964890000000  0.3966770000000 1.0
C      1  0.4684930000000  0.3999210000000  0.5323270000000 1.0
C      1  0.4135010000000  0.5147610000000  0.6110890000000 1.0
C      1  0.4771120000000  0.4481130000000  0.5478890000000 1.0
C      1  0.3950880000000  0.4539600000000  0.4183420000000 1.0
C      1  0.4606610000000  0.4686180000000  0.5651510000000 1.0
C      1  0.4125820000000  0.4902380000000  0.3931040000000 1.0
C      1  0.4599410000000  0.6051750000000  0.5163440000000 1.0
C      1  0.6394490000000  0.4576680000000  0.5094620000000 1.0
C      1  0.5039610000000  0.3836400000000  0.4972020000000 1.0
C      1  0.5146900000000  0.4154450000000  0.5586480000000 1.0
C      1  0.4823220000000  0.5570370000000  0.4042920000000 1.0
C      1  0.5014290000000  0.5499560000000  0.5379970000000 1.0
C      1  0.4434920000000  0.4806310000000  0.5430400000000 1.0
C      1  0.5035250000000  0.5748310000000  0.4137160000000 1.0
C      1  0.4719400000000  0.4083720000000  0.4662530000000 1.0
C      1  0.5463850000000  0.5600220000000  0.4709600000000 1.0
C      1  0.4747730000000  0.5299340000000  0.3918000000000 1.0
C      1  0.4274090000000  0.4459300000000  0.4544060000000 1.0
C      1  0.5673550000000  0.5326630000000  0.5061000000000 1.0
C      1  0.4199790000000  0.4439440000000  0.4272190000000 1.0
C      1  0.3642340000000  0.4819750000000  0.3923960000000 1.0
C      1  0.5724560000000  0.4599040000000  0.6056980000000 1.0
C      1  0.5123300000000  0.4405290000000  0.5152670000000 1.0
C      1  0.4665240000000  0.4452740000000  0.6055900000000 1.0
C      1  0.5146840000000  0.5463000000000  0.5622810000000 1.0
C      1  0.4257840000000  0.4911500000000  0.4474580000000 1.0
C      1  0.5743510000000  0.5228870000000  0.4578200000000 1.0
C      1  0.4120170000000  0.4355130000000  0.4970420000000 1.0
C      1  0.5117240000000  0.4589480000000  0.4635000000000 1.0
C      1  0.4466950000000  0.5330210000000  0.5822620000000 1.0
C      1  0.5819750000000  0.5056260000000  0.5901570000000 1.0
C      1  0.6272310000000  0.4799700000000  0.5220110000000 1.0
C      1  0.5602520000000  0.5093780000000  0.4368210000000 1.0
C      1  0.4196650000000  0.5228810000000  0.5844130000000 1.0
C      1  0.5417940000000  0.5444300000000  0.4083040000000 1.0
C      1  0.4151230000000  0.4396340000000  0.5483210000000 1.0
C      1  0.3992650000000  0.5137750000000  0.5337280000000 1.0
C      1  0.4020430000000  0.4867920000000  0.5192750000000 1.0
C      1  0.5580980000000  0.5039230000000  0.5433700000000 1.0
C      1  0.4094010000000  0.4563950000000  0.4772460000000 1.0
C      1  0.5131670000000  0.4320460000000  0.5814420000000 1.0
C      1  0.4924270000000  0.5293040000000  0.5995600000000 1.0
C      1  0.4830950000000  0.6144700000000  0.5004010000000 1.0
C      1  0.4958190000000  0.6009210000000  0.4241950000000 1.0
C      1  0.3898790000000  0.4755860000000  0.4009650000000 1.0
C      1  0.4586740000000  0.5557880000000  0.4850790000000 1.0
C      1  0.5755480000000  0.4245230000000  0.5175230000000 1.0
C      1  0.4524650000000  0.5342880000000  0.4334880000000 1.0
C      1  0.6042680000000  0.4572540000000  0.4589840000000 1.0
C      1  0.4622600000000  0.5594640000000  0.4256000000000 1.0
C      1  0.5982520000000  0.4532220000000  0.5569300000000 1.0
C      1  0.5262790000000  0.4476640000000  0.4913080000000 1.0
C      1  0.4584990000000  0.4467270000000  0.4924630000000 1.0
C      1  0.4720750000000  0.5903490000000  0.5399340000000 1.0
C      1  0.4876270000000  0.6111040000000  0.4722940000000 1.0
C      1  0.4317170000000  0.5735080000000  0.5370100000000 1.0
C      1  0.5109710000000  0.5950930000000  0.5143890000000 1.0
C      1  0.4636950000000  0.5180190000000  0.4546320000000 1.0
C      1  0.4824070000000  0.4513300000000  0.4474440000000 1.0
C      1  0.5132370000000  0.5455830000000  0.5901060000000 1.0
C      1  0.5537380000000  0.5838820000000  0.4851620000000 1.0
C      1  0.5938580000000  0.4818450000000  0.4524620000000 1.0
C      1  0.5175290000000  0.3992520000000  0.4526660000000 1.0
C      1  0.3910640000000  0.5058650000000  0.4760900000000 1.0
C      1  0.5336560000000  0.5655470000000  0.6298770000000 1.0
C      1  0.3988040000000  0.5520660000000  0.4964950000000 1.0
C      1  0.6123410000000  0.4725920000000  0.5448410000000 1.0
C      1  0.4470860000000  0.4453310000000  0.5836030000000 1.0
C      1  0.5687010000000  0.4816010000000  0.4388440000000 1.0
C      1  0.5427740000000  0.5153110000000  0.4130080000000 1.0
C      1  0.5668040000000  0.5537430000000  0.5249960000000 1.0
C      1  0.5228720000000  0.4962620000000  0.4978460000000 1.0
C      1  0.5494120000000  0.4951060000000  0.3913300000000 1.0
C      1  0.4817520000000  0.5032320000000  0.3798660000000 1.0
C      1  0.4684140000000  0.4881140000000  0.5878040000000 1.0
C      1  0.6042010000000  0.5699470000000  0.4840590000000 1.0
C      1  0.4693470000000  0.5164440000000  0.5890600000000 1.0
C      1  0.6014320000000  0.4428900000000  0.4825630000000 1.0
C      1  0.6156450000000  0.5194770000000  0.4845370000000 1.0
C      1  0.5456760000000  0.5802050000000  0.5849040000000 1.0
C      1  0.6496660000000  0.5539980000000  0.4805620000000 1.0
C      1  0.5627150000000  0.5379590000000  0.4783230000000 1.0
C      1  0.4631970000000  0.4804390000000  0.3882160000000 1.0
C      1  0.5256560000000  0.5536280000000  0.4529850000000 1.0
C      1  0.5139380000000  0.5046670000000  0.5240330000000 1.0
C      1  0.5590530000000  0.3895640000000  0.5430760000000 1.0
C      1  0.5318530000000  0.4189620000000  0.4412990000000 1.0
C      1  0.4492890000000  0.5213990000000  0.4071940000000 1.0
C      1  0.4392400000000  0.4411880000000  0.4065350000000 1.0
C      1  0.4610880000000  0.4225000000000  0.5475130000000 1.0
C      1  0.5322330000000  0.4530900000000  0.5798930000000 1.0
C      1  0.4143100000000  0.4689390000000  0.5423320000000 1.0
C      1  0.4519820000000  0.5602920000000  0.5773860000000 1.0
C      1  0.5596330000000  0.4463870000000  0.5844110000000 1.0
C      1  0.5465540000000  0.3739850000000  0.5245870000000 1.0
C      1  0.4261020000000  0.5000670000000  0.6298410000000 1.0
C      1  0.4374590000000  0.5906540000000  0.4523630000000 1.0
C      1  0.4313270000000  0.5926330000000  0.5144610000000 1.0
C      1  0.4582090000000  0.4901610000000  0.5195670000000 1.0
C      1  0.7010730000000  0.5639790000000  0.4760340000000 1.0
C      1  0.5702520000000  0.4157110000000  0.5436150000000 1.0
C      1  0.4002810000000  0.4823500000000  0.4899860000000 1.0
C      1  0.4373220000000  0.5721800000000  0.4735100000000 1.0
C      1  0.4645500000000  0.4528920000000  0.3996260000000 1.0
C      1  0.4315210000000  0.5473000000000  0.5266510000000 1.0
C      1  0.5737030000000  0.5110900000000  0.5653470000000 1.0
C      1  0.4905680000000  0.4563330000000  0.5241770000000 1.0
C      1  0.4163400000000  0.5765450000000  0.4929570000000 1.0
C      1  0.4965760000000  0.5843870000000  0.4721040000000 1.0
C      1  0.5330230000000  0.4472990000000  0.4420030000000 1.0
C      1  0.5309160000000  0.5638620000000  0.6028240000000 1.0
C      1  0.4794310000000  0.6143750000000  0.4444150000000 1.0
C      1  0.5258740000000  0.5609240000000  0.4250300000000 1.0
C      1  0.4678920000000  0.5173750000000  0.5171960000000 1.0
C      1  0.5122270000000  0.4161050000000  0.5303810000000 1.0
C      1  0.6755690000000  0.5590670000000  0.4782730000000 1.0
C      1  0.4376130000000  0.4320160000000  0.5052670000000 1.0
C      1  0.5521620000000  0.5853510000000  0.5593870000000 1.0
C      1  0.4522760000000  0.5392670000000  0.5084880000000 1.0
C      1  0.4963770000000  0.5776100000000  0.5318620000000 1.0
C      1  0.6223940000000  0.5478080000000  0.4832110000000 1.0
C      1  0.5507910000000  0.4873730000000  0.4990970000000 1.0
C      1  0.5515340000000  0.4625490000000  0.4267180000000 1.0
C      1  0.5031330000000  0.5407300000000  0.4652050000000 1.0
C      1  0.5074150000000  0.4921990000000  0.4741650000000 1.0
C      1  0.4966940000000  0.3942400000000  0.4712570000000 1.0
C      1  0.4658840000000  0.4734170000000  0.6134270000000 1.0
C      1  0.3899250000000  0.5331530000000  0.4769310000000 1.0
C      1  0.5815980000000  0.4851430000000  0.6074740000000 1.0
C      1  0.4614030000000  0.4374540000000  0.4642580000000 1.0
C      1  0.4935020000000  0.4918950000000  0.4252340000000 1.0
C      1  0.4012900000000  0.4825130000000  0.5663060000000 1.0
C      1  0.4916310000000  0.5152160000000  0.4644590000000 1.0
C      1  0.5986660000000  0.5080110000000  0.4646170000000 1.0
C      1  0.4521240000000  0.5781640000000  0.5562020000000 1.0
C      1  0.5762090000000  0.4360620000000  0.5633140000000 1.0
C      1  0.4056770000000  0.5378220000000  0.5209010000000 1.0
C      1  0.5763960000000  0.4425890000000  0.4964310000000 1.0
C      1  0.4479510000000  0.4844520000000  0.6320930000000 1.0
END
