TITL C-612601-4209-251 0.00760413033750355 125000 -862.073206931953 0 0 143 (C1) n - 1
REM
REM in /home/nfs/bkarasulu/CARBON/AIRSS/Generating-Clusters/TERSOFF/Only-C1/FIRE-HFTN
REM
REM
REM
REM
REM
REM ./C.cell (11c1c37f851c82e70ff6c80c92926a4b)
REM AIRSS Version 0.9.1 bugfix July 2018 build 013d7b7c2542+ Fri, 06 Jul 2018 19:26:36 +0100
REM compiler GCC version 9.2.1 20190827 (Red Hat 9.2.1-1)
REM options -cpp -mtune=generic -march=x86-64 -g -O0 -fpre-include=/usr/include/finclude/math-vector-fortran.h
REM seed -1430342385 -1048731669 -495834657 773156467 144686430 -1866358865 481983624 380169991 -1590491903 1399191714 -1016022037 996921599 -1518746358 891397246 -95628340 1799950617 -1837606073 -775962086 427914014 -942744308 1083143702 -404929307 1819940645 1022772743 219308512 1912805945 986500030 310671355 1346815937 -820704985 930389610 801809708 1591820379
REM
CELL 1.54180   50.00000   50.00000   50.00000   90.00000   90.00000   90.00000
LATT -1
SFAC C  
C      1  0.4044920000000  0.5071020000000  0.6051160000000 1.0
C      1  0.5540360000000  0.6056980000000  0.4400060000000 1.0
C      1  0.4925060000000  0.5056710000000  0.5112800000000 1.0
C      1  0.5097540000000  0.5165830000000  0.4646240000000 1.0
C      1  0.4135360000000  0.4504290000000  0.4600500000000 1.0
C      1  0.4177500000000  0.6020260000000  0.4730750000000 1.0
C      1  0.4304140000000  0.4975650000000  0.6075670000000 1.0
C      1  0.5250760000000  0.5850120000000  0.5529790000000 1.0
C      1  0.5536470000000  0.4186650000000  0.4812840000000 1.0
C      1  0.4355140000000  0.4716310000000  0.5243850000000 1.0
C      1  0.5731540000000  0.5216350000000  0.5851530000000 1.0
C      1  0.5629910000000  0.4664180000000  0.5117070000000 1.0
C      1  0.4781620000000  0.5437070000000  0.4876950000000 1.0
C      1  0.5341080000000  0.4713440000000  0.5115510000000 1.0
C      1  0.5976470000000  0.4817280000000  0.4744080000000 1.0
C      1  0.5787620000000  0.4394280000000  0.5578690000000 1.0
C      1  0.4890970000000  0.5899840000000  0.4646550000000 1.0
C      1  0.4379030000000  0.4732480000000  0.6212810000000 1.0
C      1  0.5374830000000  0.5530500000000  0.5852360000000 1.0
C      1  0.5052180000000  0.5170780000000  0.5560950000000 1.0
C      1  0.4625710000000  0.5851490000000  0.4881930000000 1.0
C      1  0.5661890000000  0.5074940000000  0.4482480000000 1.0
C      1  0.4936320000000  0.4742780000000  0.4570610000000 1.0
C      1  0.5603370000000  0.4773570000000  0.5798130000000 1.0
C      1  0.5727790000000  0.5584170000000  0.4962760000000 1.0
C      1  0.4302620000000  0.5537650000000  0.4692920000000 1.0
C      1  0.5071940000000  0.4154670000000  0.4428160000000 1.0
C      1  0.5526120000000  0.3893320000000  0.4787310000000 1.0
C      1  0.4520000000000  0.4598500000000  0.5045690000000 1.0
C      1  0.4377240000000  0.3880880000000  0.4996540000000 1.0
C      1  0.3886330000000  0.5286010000000  0.6063130000000 1.0
C      1  0.5323280000000  0.6051740000000  0.5344680000000 1.0
C      1  0.4571080000000  0.5416380000000  0.4682510000000 1.0
C      1  0.5769440000000  0.5070830000000  0.5207810000000 1.0
C      1  0.5629730000000  0.4449590000000  0.4717910000000 1.0
C      1  0.5265770000000  0.4273190000000  0.4225040000000 1.0
C      1  0.5409250000000  0.5619940000000  0.5577950000000 1.0
C      1  0.5392080000000  0.3764410000000  0.5009260000000 1.0
C      1  0.4662700000000  0.4678270000000  0.4572670000000 1.0
C      1  0.5378420000000  0.5425130000000  0.5363180000000 1.0
C      1  0.5746030000000  0.4673150000000  0.5576960000000 1.0
C      1  0.5875940000000  0.5299430000000  0.5349110000000 1.0
C      1  0.4779480000000  0.5933210000000  0.5622340000000 1.0
C      1  0.4048050000000  0.5116460000000  0.4215340000000 1.0
C      1  0.4780520000000  0.4229830000000  0.4341720000000 1.0
C      1  0.4552160000000  0.5160800000000  0.4581950000000 1.0
C      1  0.5419290000000  0.3801400000000  0.4539600000000 1.0
C      1  0.4079970000000  0.4727700000000  0.5168200000000 1.0
C      1  0.4217960000000  0.5187170000000  0.4023130000000 1.0
C      1  0.4525950000000  0.4743900000000  0.4803230000000 1.0
C      1  0.4969960000000  0.5161040000000  0.3993070000000 1.0
C      1  0.5130890000000  0.6076760000000  0.4637670000000 1.0
C      1  0.5173490000000  0.3874350000000  0.4446550000000 1.0
C      1  0.4511840000000  0.3917130000000  0.5458150000000 1.0
C      1  0.4940440000000  0.5449860000000  0.5583200000000 1.0
C      1  0.4756790000000  0.4471850000000  0.4163370000000 1.0
C      1  0.4986030000000  0.5748940000000  0.5578810000000 1.0
C      1  0.5605010000000  0.5108220000000  0.4952450000000 1.0
C      1  0.5409810000000  0.6299320000000  0.5416020000000 1.0
C      1  0.4355020000000  0.5816330000000  0.4765480000000 1.0
C      1  0.4867450000000  0.3810090000000  0.5147070000000 1.0
C      1  0.5890210000000  0.5536590000000  0.5191180000000 1.0
C      1  0.4618190000000  0.5391530000000  0.5906910000000 1.0
C      1  0.5259280000000  0.5078230000000  0.5995220000000 1.0
C      1  0.4869050000000  0.4428930000000  0.5340960000000 1.0
C      1  0.4990920000000  0.4625450000000  0.4064860000000 1.0
C      1  0.6059780000000  0.5322190000000  0.4566590000000 1.0
C      1  0.5542010000000  0.5272460000000  0.4319900000000 1.0
C      1  0.4436340000000  0.5004510000000  0.4788310000000 1.0
C      1  0.4596070000000  0.5425260000000  0.5303710000000 1.0
C      1  0.5441030000000  0.5261940000000  0.4047580000000 1.0
C      1  0.4970660000000  0.4693200000000  0.5423560000000 1.0
C      1  0.4316710000000  0.4265830000000  0.4642170000000 1.0
C      1  0.4481150000000  0.4944250000000  0.5352850000000 1.0
C      1  0.5271540000000  0.6130900000000  0.4385800000000 1.0
C      1  0.4706020000000  0.5121700000000  0.4359880000000 1.0
C      1  0.5167090000000  0.5715790000000  0.5061320000000 1.0
C      1  0.5265440000000  0.5439550000000  0.5066130000000 1.0
C      1  0.4009540000000  0.4771810000000  0.4650250000000 1.0
C      1  0.5152070000000  0.4584850000000  0.4640700000000 1.0
C      1  0.4727940000000  0.4410350000000  0.5080240000000 1.0
C      1  0.5163430000000  0.5364280000000  0.4050130000000 1.0
C      1  0.5271800000000  0.4233000000000  0.4915530000000 1.0
C      1  0.5940460000000  0.5061060000000  0.4573290000000 1.0
C      1  0.5808240000000  0.4610870000000  0.4881880000000 1.0
C      1  0.4649520000000  0.5433840000000  0.5597050000000 1.0
C      1  0.4607130000000  0.4241010000000  0.4590620000000 1.0
C      1  0.4600610000000  0.6122250000000  0.5636160000000 1.0
C      1  0.5534140000000  0.5018580000000  0.5915600000000 1.0
C      1  0.5314340000000  0.5175680000000  0.5462060000000 1.0
C      1  0.5137960000000  0.3739540000000  0.5101350000000 1.0
C      1  0.5524450000000  0.5385510000000  0.4929380000000 1.0
C      1  0.4676300000000  0.5621540000000  0.5076630000000 1.0
C      1  0.5025690000000  0.4907690000000  0.5927650000000 1.0
C      1  0.5039170000000  0.4905050000000  0.4130060000000 1.0
C      1  0.4018920000000  0.4868200000000  0.4930680000000 1.0
C      1  0.5579430000000  0.5174060000000  0.3824660000000 1.0
C      1  0.5982560000000  0.5586220000000  0.4575820000000 1.0
C      1  0.4981660000000  0.4893970000000  0.5641880000000 1.0
C      1  0.5755310000000  0.4808840000000  0.5327050000000 1.0
C      1  0.5376430000000  0.4105290000000  0.5637650000000 1.0
C      1  0.4008740000000  0.5090470000000  0.4487310000000 1.0
C      1  0.4187350000000  0.5106310000000  0.4898930000000 1.0
C      1  0.4240520000000  0.4045310000000  0.4809790000000 1.0
C      1  0.5021340000000  0.4191650000000  0.5949560000000 1.0
C      1  0.4177760000000  0.5672100000000  0.6063010000000 1.0
C      1  0.5611670000000  0.5957490000000  0.4665620000000 1.0
C      1  0.5869520000000  0.5296310000000  0.5632570000000 1.0
C      1  0.5085820000000  0.4824510000000  0.5188600000000 1.0
C      1  0.5628930000000  0.4180200000000  0.5599490000000 1.0
C      1  0.5426230000000  0.4662930000000  0.4650470000000 1.0
C      1  0.5791130000000  0.5737810000000  0.4730630000000 1.0
C      1  0.5133350000000  0.5548220000000  0.4288990000000 1.0
C      1  0.4105300000000  0.5298930000000  0.4690730000000 1.0
C      1  0.4566270000000  0.4628410000000  0.4309890000000 1.0
C      1  0.5192790000000  0.5364050000000  0.6001830000000 1.0
C      1  0.4935700000000  0.5701960000000  0.4429870000000 1.0
C      1  0.4978430000000  0.4992680000000  0.4424200000000 1.0
C      1  0.4913160000000  0.5433540000000  0.6032210000000 1.0
C      1  0.5827900000000  0.4968830000000  0.3409450000000 1.0
C      1  0.4782970000000  0.4913290000000  0.6071780000000 1.0
C      1  0.5521590000000  0.4941750000000  0.4704980000000 1.0
C      1  0.4923650000000  0.4183500000000  0.5476960000000 1.0
C      1  0.4428570000000  0.5593130000000  0.6016670000000 1.0
C      1  0.5705240000000  0.5071820000000  0.3615150000000 1.0
C      1  0.4559120000000  0.5102500000000  0.5997260000000 1.0
C      1  0.4653070000000  0.4700710000000  0.6216810000000 1.0
C      1  0.4696060000000  0.5206840000000  0.4083900000000 1.0
C      1  0.4786370000000  0.3950780000000  0.5388220000000 1.0
C      1  0.4647940000000  0.3782460000000  0.4960510000000 1.0
C      1  0.3939520000000  0.5549050000000  0.6076090000000 1.0
C      1  0.5385910000000  0.5493480000000  0.4429560000000 1.0
C      1  0.5365970000000  0.6043200000000  0.4822110000000 1.0
C      1  0.5221390000000  0.4464100000000  0.4040940000000 1.0
C      1  0.5107090000000  0.4160300000000  0.5691620000000 1.0
C      1  0.4312750000000  0.3893940000000  0.5273860000000 1.0
C      1  0.5294010000000  0.5963270000000  0.5078610000000 1.0
C      1  0.4490920000000  0.5422330000000  0.3704330000000 1.0
C      1  0.4469220000000  0.5273880000000  0.3932830000000 1.0
C      1  0.4791770000000  0.4282760000000  0.4825610000000 1.0
C      1  0.5072770000000  0.4301790000000  0.4713300000000 1.0
C      1  0.5035410000000  0.5271860000000  0.4927420000000 1.0
C      1  0.4662500000000  0.5135310000000  0.5240860000000 1.0
END
