TITL C-612602-9376-845 0.0104620418578251 125000 -1184.8918487908 0 0 194 (C1) n - 1
REM
REM in /home/nfs/bkarasulu/CARBON/AIRSS/Generating-Clusters/TERSOFF/Only-C1/FIRE-HFTN
REM
REM
REM
REM
REM
REM ./C.cell (11c1c37f851c82e70ff6c80c92926a4b)
REM AIRSS Version 0.9.1 bugfix July 2018 build 013d7b7c2542+ Fri, 06 Jul 2018 19:26:36 +0100
REM compiler GCC version 9.2.1 20190827 (Red Hat 9.2.1-1)
REM options -cpp -mtune=generic -march=x86-64 -g -O0 -fpre-include=/usr/include/finclude/math-vector-fortran.h
REM seed 232700896 263522743 -1486128553 -1869333646 -136338686 1582626619 -817265444 -1118786393 1662584630 -1490586214 -1551451434 937417872 -1437536074 -836316697 1313030138 -1772595832 207958082 1262817739 -691552261 -1918904147 -457921344 -914262706 2106695098 271044888 -1968097555 -1558608795 1495842116 546411979 1399005705 -1389327914 -949217452 1256252738 331189096
REM
CELL 1.54180   50.00000   50.00000   50.00000   90.00000   90.00000   90.00000
LATT -1
SFAC C  
C      1  0.5831910000000  0.5253400000000  0.4063880000000 1.0
C      1  0.4797090000000  0.5808850000000  0.3953520000000 1.0
C      1  0.5828580000000  0.5021380000000  0.5337380000000 1.0
C      1  0.4868560000000  0.5035190000000  0.5572460000000 1.0
C      1  0.4988820000000  0.4653280000000  0.5169950000000 1.0
C      1  0.5432890000000  0.5203970000000  0.5173580000000 1.0
C      1  0.4139100000000  0.5476710000000  0.4002230000000 1.0
C      1  0.5382550000000  0.5671770000000  0.4464210000000 1.0
C      1  0.5061040000000  0.6323980000000  0.4944000000000 1.0
C      1  0.3780970000000  0.4788570000000  0.4657310000000 1.0
C      1  0.6343030000000  0.4401050000000  0.5400870000000 1.0
C      1  0.4452650000000  0.4617830000000  0.6024300000000 1.0
C      1  0.4953680000000  0.4240350000000  0.4808890000000 1.0
C      1  0.4482730000000  0.4287950000000  0.5359280000000 1.0
C      1  0.3867760000000  0.5164560000000  0.5327350000000 1.0
C      1  0.3929060000000  0.4144990000000  0.4918010000000 1.0
C      1  0.5642310000000  0.4789110000000  0.6065580000000 1.0
C      1  0.5560510000000  0.5123990000000  0.5415300000000 1.0
C      1  0.4610010000000  0.4133520000000  0.5155090000000 1.0
C      1  0.5139870000000  0.4750820000000  0.5856560000000 1.0
C      1  0.5463180000000  0.5099940000000  0.5691840000000 1.0
C      1  0.5986920000000  0.4935640000000  0.5567410000000 1.0
C      1  0.5840720000000  0.5420580000000  0.5787490000000 1.0
C      1  0.3916900000000  0.5360100000000  0.5525810000000 1.0
C      1  0.4571920000000  0.4965480000000  0.4267210000000 1.0
C      1  0.5910990000000  0.5124770000000  0.5783520000000 1.0
C      1  0.4819530000000  0.4358870000000  0.5847600000000 1.0
C      1  0.3950340000000  0.5591950000000  0.4155390000000 1.0
C      1  0.4660340000000  0.4757980000000  0.6173880000000 1.0
C      1  0.5285730000000  0.5043540000000  0.4356620000000 1.0
C      1  0.4724320000000  0.5911630000000  0.4870590000000 1.0
C      1  0.4542340000000  0.4502580000000  0.3946830000000 1.0
C      1  0.4933470000000  0.5462280000000  0.4302310000000 1.0
C      1  0.4161730000000  0.4584850000000  0.4457490000000 1.0
C      1  0.5484400000000  0.4577030000000  0.6120890000000 1.0
C      1  0.5427510000000  0.5672590000000  0.3785830000000 1.0
C      1  0.5443880000000  0.4554390000000  0.5068510000000 1.0
C      1  0.5167270000000  0.4626560000000  0.4118480000000 1.0
C      1  0.4886200000000  0.5142520000000  0.5319360000000 1.0
C      1  0.4414690000000  0.5728940000000  0.4479740000000 1.0
C      1  0.4441910000000  0.5281020000000  0.6149500000000 1.0
C      1  0.5902750000000  0.4153840000000  0.5551150000000 1.0
C      1  0.5579040000000  0.5371380000000  0.4091450000000 1.0
C      1  0.4904630000000  0.5379490000000  0.6126340000000 1.0
C      1  0.4665360000000  0.5272200000000  0.5982420000000 1.0
C      1  0.3980400000000  0.5723910000000  0.4655720000000 1.0
C      1  0.5819070000000  0.3897010000000  0.5451190000000 1.0
C      1  0.5095440000000  0.6152500000000  0.5179230000000 1.0
C      1  0.6092270000000  0.4875500000000  0.4210250000000 1.0
C      1  0.4755040000000  0.5371130000000  0.4522200000000 1.0
C      1  0.5241500000000  0.5036260000000  0.5049530000000 1.0
C      1  0.4460890000000  0.4561490000000  0.5414770000000 1.0
C      1  0.4759320000000  0.4976980000000  0.4900780000000 1.0
C      1  0.5233550000000  0.4527760000000  0.6003720000000 1.0
C      1  0.4682110000000  0.4411280000000  0.4181320000000 1.0
C      1  0.4967210000000  0.5164240000000  0.5027620000000 1.0
C      1  0.4172130000000  0.4809780000000  0.5143250000000 1.0
C      1  0.6244400000000  0.5243270000000  0.4873510000000 1.0
C      1  0.5808550000000  0.4845360000000  0.5107370000000 1.0
C      1  0.5665190000000  0.4619990000000  0.5220550000000 1.0
C      1  0.5286100000000  0.5910260000000  0.5775760000000 1.0
C      1  0.6167030000000  0.5345170000000  0.4407400000000 1.0
C      1  0.4778710000000  0.4915210000000  0.3690320000000 1.0
C      1  0.6106420000000  0.5404650000000  0.4685900000000 1.0
C      1  0.4195290000000  0.5749570000000  0.5606030000000 1.0
C      1  0.5873970000000  0.4400640000000  0.4151100000000 1.0
C      1  0.5120470000000  0.5243290000000  0.3913820000000 1.0
C      1  0.5718570000000  0.4673780000000  0.4636440000000 1.0
C      1  0.3903730000000  0.5923880000000  0.4839240000000 1.0
C      1  0.5927810000000  0.5616260000000  0.4783640000000 1.0
C      1  0.4811550000000  0.4694900000000  0.4950080000000 1.0
C      1  0.5011980000000  0.4797540000000  0.5613000000000 1.0
C      1  0.4155760000000  0.5059760000000  0.4445190000000 1.0
C      1  0.5756930000000  0.5720450000000  0.5296850000000 1.0
C      1  0.3781450000000  0.4943170000000  0.4893780000000 1.0
C      1  0.5848930000000  0.5590200000000  0.5546770000000 1.0
C      1  0.5473880000000  0.5197090000000  0.4510030000000 1.0
C      1  0.4332270000000  0.5097910000000  0.4221720000000 1.0
C      1  0.5475920000000  0.4328810000000  0.4909130000000 1.0
C      1  0.6036050000000  0.5153090000000  0.4233890000000 1.0
C      1  0.6373290000000  0.5037650000000  0.4984360000000 1.0
C      1  0.5068260000000  0.4298890000000  0.5973020000000 1.0
C      1  0.5136180000000  0.5463730000000  0.5748790000000 1.0
C      1  0.3973180000000  0.3780410000000  0.5425640000000 1.0
C      1  0.3872380000000  0.5669790000000  0.4400930000000 1.0
C      1  0.5032390000000  0.3873780000000  0.5404260000000 1.0
C      1  0.5642130000000  0.4293130000000  0.5601280000000 1.0
C      1  0.4284650000000  0.5133980000000  0.4687720000000 1.0
C      1  0.5649700000000  0.5113590000000  0.4708060000000 1.0
C      1  0.4231290000000  0.4788970000000  0.5946240000000 1.0
C      1  0.4980630000000  0.4803550000000  0.3525380000000 1.0
C      1  0.5023410000000  0.4020530000000  0.4963300000000 1.0
C      1  0.5164580000000  0.5572480000000  0.5477570000000 1.0
C      1  0.4978870000000  0.3913850000000  0.5684070000000 1.0
C      1  0.5619300000000  0.4368020000000  0.4273720000000 1.0
C      1  0.4161120000000  0.4048210000000  0.5049670000000 1.0
C      1  0.3935260000000  0.4973650000000  0.5128690000000 1.0
C      1  0.5787570000000  0.5904180000000  0.4086160000000 1.0
C      1  0.5348590000000  0.4771140000000  0.4290640000000 1.0
C      1  0.6038250000000  0.4617720000000  0.4150650000000 1.0
C      1  0.5112800000000  0.5680680000000  0.4395360000000 1.0
C      1  0.4883220000000  0.4915900000000  0.6186080000000 1.0
C      1  0.6106810000000  0.4379330000000  0.5552430000000 1.0
C      1  0.4874250000000  0.6089770000000  0.5356880000000 1.0
C      1  0.4423570000000  0.5065780000000  0.5500900000000 1.0
C      1  0.5284280000000  0.3918530000000  0.5013100000000 1.0
C      1  0.4840470000000  0.5172780000000  0.3807890000000 1.0
C      1  0.5496390000000  0.4051150000000  0.4884970000000 1.0
C      1  0.5526040000000  0.5848490000000  0.4636160000000 1.0
C      1  0.4264250000000  0.6017520000000  0.5178510000000 1.0
C      1  0.4357170000000  0.5298520000000  0.4018370000000 1.0
C      1  0.4962470000000  0.5561470000000  0.5284770000000 1.0
C      1  0.5435120000000  0.5461660000000  0.6174300000000 1.0
C      1  0.4981420000000  0.5474480000000  0.5005390000000 1.0
C      1  0.4478260000000  0.5507890000000  0.5193770000000 1.0
C      1  0.4538300000000  0.4353640000000  0.5918080000000 1.0
C      1  0.5663770000000  0.4998590000000  0.5881730000000 1.0
C      1  0.4654530000000  0.5911890000000  0.5431760000000 1.0
C      1  0.5099220000000  0.5213660000000  0.4209790000000 1.0
C      1  0.5098850000000  0.4994270000000  0.6006580000000 1.0
C      1  0.5179360000000  0.4640780000000  0.3606340000000 1.0
C      1  0.4917910000000  0.4512860000000  0.4757570000000 1.0
C      1  0.4430820000000  0.4097670000000  0.4925190000000 1.0
C      1  0.4231220000000  0.5543220000000  0.5810200000000 1.0
C      1  0.5181390000000  0.4076920000000  0.5826070000000 1.0
C      1  0.6451090000000  0.4576920000000  0.5229500000000 1.0
C      1  0.3832360000000  0.5830740000000  0.5299360000000 1.0
C      1  0.5890790000000  0.5881460000000  0.4336060000000 1.0
C      1  0.4632000000000  0.5346980000000  0.3926090000000 1.0
C      1  0.3761400000000  0.4316720000000  0.4799270000000 1.0
C      1  0.5555420000000  0.4613210000000  0.4412120000000 1.0
C      1  0.5241010000000  0.4563570000000  0.3855610000000 1.0
C      1  0.4345340000000  0.4812970000000  0.5375470000000 1.0
C      1  0.5562560000000  0.5405670000000  0.5030540000000 1.0
C      1  0.4324290000000  0.4113150000000  0.5525340000000 1.0
C      1  0.4899920000000  0.4602060000000  0.4214790000000 1.0
C      1  0.4360230000000  0.5944740000000  0.5452460000000 1.0
C      1  0.5115900000000  0.4623220000000  0.4611050000000 1.0
C      1  0.5763100000000  0.4883190000000  0.4824090000000 1.0
C      1  0.4072980000000  0.5291230000000  0.5770100000000 1.0
C      1  0.4480680000000  0.5935880000000  0.4333690000000 1.0
C      1  0.5223280000000  0.5199830000000  0.5822650000000 1.0
C      1  0.4458160000000  0.5922010000000  0.4980260000000 1.0
C      1  0.6379070000000  0.5483860000000  0.4296960000000 1.0
C      1  0.4379920000000  0.5284760000000  0.5325550000000 1.0
C      1  0.5361740000000  0.6014100000000  0.5106980000000 1.0
C      1  0.5434740000000  0.4143810000000  0.5717640000000 1.0
C      1  0.4898180000000  0.5699190000000  0.4847570000000 1.0
C      1  0.4901460000000  0.4057030000000  0.4387570000000 1.0
C      1  0.4588280000000  0.4722330000000  0.3788880000000 1.0
C      1  0.4696330000000  0.5643190000000  0.5337240000000 1.0
C      1  0.5338460000000  0.5806230000000  0.5515390000000 1.0
C      1  0.4961510000000  0.4591710000000  0.5434730000000 1.0
C      1  0.5167220000000  0.4067840000000  0.4324470000000 1.0
C      1  0.4251830000000  0.4629930000000  0.4928770000000 1.0
C      1  0.4469400000000  0.4245200000000  0.4662030000000 1.0
C      1  0.5370250000000  0.5408650000000  0.3884150000000 1.0
C      1  0.4654630000000  0.4216410000000  0.4408200000000 1.0
C      1  0.5810940000000  0.5810710000000  0.4600830000000 1.0
C      1  0.5696750000000  0.4553590000000  0.5494010000000 1.0
C      1  0.4768550000000  0.5560590000000  0.4063980000000 1.0
C      1  0.3983130000000  0.5973900000000  0.5106810000000 1.0
C      1  0.5141130000000  0.5714370000000  0.5905890000000 1.0
C      1  0.5513680000000  0.5438350000000  0.4364530000000 1.0
C      1  0.4252120000000  0.5635890000000  0.4691360000000 1.0
C      1  0.5964420000000  0.4640640000000  0.5588000000000 1.0
C      1  0.3399710000000  0.4509570000000  0.4542340000000 1.0
C      1  0.5242440000000  0.4750030000000  0.5086240000000 1.0
C      1  0.5609290000000  0.5847920000000  0.3890250000000 1.0
C      1  0.5163870000000  0.5421460000000  0.6225590000000 1.0
C      1  0.4000250000000  0.4819160000000  0.4472200000000 1.0
C      1  0.5510100000000  0.5877850000000  0.5308310000000 1.0
C      1  0.4862590000000  0.4373700000000  0.5566510000000 1.0
C      1  0.5658970000000  0.5488860000000  0.6013360000000 1.0
C      1  0.4698020000000  0.3909390000000  0.5774540000000 1.0
C      1  0.4633000000000  0.5121370000000  0.5714660000000 1.0
C      1  0.4307760000000  0.4490440000000  0.4680250000000 1.0
C      1  0.5784970000000  0.5584110000000  0.5038670000000 1.0
C      1  0.3948490000000  0.5646590000000  0.5473770000000 1.0
C      1  0.5234280000000  0.6253580000000  0.4739090000000 1.0
C      1  0.4460620000000  0.4092320000000  0.5782950000000 1.0
C      1  0.5573110000000  0.3791730000000  0.5388510000000 1.0
C      1  0.4853270000000  0.3987310000000  0.5193090000000 1.0
C      1  0.5701980000000  0.3923550000000  0.4760880000000 1.0
C      1  0.4373610000000  0.5633280000000  0.4953400000000 1.0
C      1  0.4511050000000  0.5078160000000  0.4819250000000 1.0
C      1  0.4794260000000  0.4837790000000  0.4321160000000 1.0
C      1  0.4146290000000  0.3974530000000  0.5338930000000 1.0
C      1  0.5306790000000  0.3824260000000  0.5288950000000 1.0
C      1  0.5409420000000  0.6034030000000  0.4814810000000 1.0
C      1  0.4110340000000  0.5026470000000  0.5878830000000 1.0
C      1  0.6449980000000  0.4805380000000  0.5091070000000 1.0
C      1  0.5416230000000  0.4166770000000  0.4276700000000 1.0
C      1  0.3643010000000  0.4536290000000  0.4664760000000 1.0
END
