TITL C-612603-7354-1335 -0.199668045923797 125000 -458.678118117423 0 0 76 (C1) n - 1
REM
REM in /home/nfs/bkarasulu/CARBON/AIRSS/Generating-Clusters/TERSOFF/Only-C1/FIRE-HFTN
REM
REM
REM
REM
REM
REM ./C.cell (11c1c37f851c82e70ff6c80c92926a4b)
REM AIRSS Version 0.9.1 bugfix July 2018 build 013d7b7c2542+ Fri, 06 Jul 2018 19:26:36 +0100
REM compiler GCC version 9.2.1 20190827 (Red Hat 9.2.1-1)
REM options -cpp -mtune=generic -march=x86-64 -g -O0 -fpre-include=/usr/include/finclude/math-vector-fortran.h
REM seed 512373265 -1505414008 -1822542766 630496528 -1684608998 -669784311 951357372 -887557487 -504143466 -398725658 420244894 -72248291 -1256112294 -2123727683 1123435199 -488730156 -884110963 668840848 445491918 1983477473 -528204439 -1304221490 430834434 -127056007 -2071544576 -1622230714 1264483697 649076452 -1612185289 246725607 -1596613676 1834580544 984700049
REM
CELL 1.54180   50.00000   50.00000   50.00000   90.00000   90.00000   90.00000
LATT -1
SFAC C  
C      1  0.5321930000000  0.5160740000000  0.5064910000000 1.0
C      1  0.5235390000000  0.5194870000000  0.5694990000000 1.0
C      1  0.4910650000000  0.4431370000000  0.4804740000000 1.0
C      1  0.4262320000000  0.5487780000000  0.5304110000000 1.0
C      1  0.5618670000000  0.4682380000000  0.4996270000000 1.0
C      1  0.4850720000000  0.3828450000000  0.3745820000000 1.0
C      1  0.5578080000000  0.4876370000000  0.4073560000000 1.0
C      1  0.5321570000000  0.5711540000000  0.4357440000000 1.0
C      1  0.4280620000000  0.5225040000000  0.5433660000000 1.0
C      1  0.3889510000000  0.5290250000000  0.4402560000000 1.0
C      1  0.5771950000000  0.5168310000000  0.5576900000000 1.0
C      1  0.5517570000000  0.5109780000000  0.4201100000000 1.0
C      1  0.5917940000000  0.4437970000000  0.4392250000000 1.0
C      1  0.5102300000000  0.4576930000000  0.5509050000000 1.0
C      1  0.5650020000000  0.4793320000000  0.5916790000000 1.0
C      1  0.4215220000000  0.4523560000000  0.5094870000000 1.0
C      1  0.5774950000000  0.5285620000000  0.5102430000000 1.0
C      1  0.3992270000000  0.5544810000000  0.4845500000000 1.0
C      1  0.4484930000000  0.4428010000000  0.5071090000000 1.0
C      1  0.5776420000000  0.4808180000000  0.5205930000000 1.0
C      1  0.4780850000000  0.4912340000000  0.5290010000000 1.0
C      1  0.5003670000000  0.5631810000000  0.4752250000000 1.0
C      1  0.5060480000000  0.5263420000000  0.5077320000000 1.0
C      1  0.5794830000000  0.5895470000000  0.5538140000000 1.0
C      1  0.4197300000000  0.4453810000000  0.4599540000000 1.0
C      1  0.5818290000000  0.5077560000000  0.5303660000000 1.0
C      1  0.4844060000000  0.4697670000000  0.5474050000000 1.0
C      1  0.4663590000000  0.4662750000000  0.5688950000000 1.0
C      1  0.4631870000000  0.4395640000000  0.4827820000000 1.0
C      1  0.5783490000000  0.4986320000000  0.5789910000000 1.0
C      1  0.4441930000000  0.5275620000000  0.5677700000000 1.0
C      1  0.4082380000000  0.4581050000000  0.4379480000000 1.0
C      1  0.4927530000000  0.5154100000000  0.5310060000000 1.0
C      1  0.4755670000000  0.3954930000000  0.3953030000000 1.0
C      1  0.5358500000000  0.4978920000000  0.5270260000000 1.0
C      1  0.3918400000000  0.5459060000000  0.4605450000000 1.0
C      1  0.4535740000000  0.4818040000000  0.5865650000000 1.0
C      1  0.5171460000000  0.4485320000000  0.4841440000000 1.0
C      1  0.4148670000000  0.4740300000000  0.5267440000000 1.0
C      1  0.4464140000000  0.5076110000000  0.5871690000000 1.0
C      1  0.5597640000000  0.5695980000000  0.4420140000000 1.0
C      1  0.5626920000000  0.5062810000000  0.4688210000000 1.0
C      1  0.4300010000000  0.4978090000000  0.5290340000000 1.0
C      1  0.4606080000000  0.5522350000000  0.5640170000000 1.0
C      1  0.4986110000000  0.5243690000000  0.5568170000000 1.0
C      1  0.4659040000000  0.4083520000000  0.4163700000000 1.0
C      1  0.4921520000000  0.5391610000000  0.4867080000000 1.0
C      1  0.5754890000000  0.5640330000000  0.5452460000000 1.0
C      1  0.5381320000000  0.5444920000000  0.5721800000000 1.0
C      1  0.4697860000000  0.5251090000000  0.4769540000000 1.0
C      1  0.5269750000000  0.4498560000000  0.5298550000000 1.0
C      1  0.4456280000000  0.5659370000000  0.5432620000000 1.0
C      1  0.5675030000000  0.4783300000000  0.4731920000000 1.0
C      1  0.5739060000000  0.5466860000000  0.4444400000000 1.0
C      1  0.4073310000000  0.4476600000000  0.4854500000000 1.0
C      1  0.6040110000000  0.4263970000000  0.4241410000000 1.0
C      1  0.5148710000000  0.5635290000000  0.5730120000000 1.0
C      1  0.5430480000000  0.4641930000000  0.5911080000000 1.0
C      1  0.5562030000000  0.5215760000000  0.4922380000000 1.0
C      1  0.5218860000000  0.4570110000000  0.5765520000000 1.0
C      1  0.5244080000000  0.5540410000000  0.4145180000000 1.0
C      1  0.3911220000000  0.5056220000000  0.4278750000000 1.0
C      1  0.5818350000000  0.5550000000000  0.5191030000000 1.0
C      1  0.4563460000000  0.4212640000000  0.4374270000000 1.0
C      1  0.4542900000000  0.4952070000000  0.5141140000000 1.0
C      1  0.5326370000000  0.5288980000000  0.4094560000000 1.0
C      1  0.4104780000000  0.5550630000000  0.5085580000000 1.0
C      1  0.4466830000000  0.4353070000000  0.4594830000000 1.0
C      1  0.3980770000000  0.4799960000000  0.4268150000000 1.0
C      1  0.5650930000000  0.5196780000000  0.4439890000000 1.0
C      1  0.4555490000000  0.5051990000000  0.4879110000000 1.0
C      1  0.5792030000000  0.4616480000000  0.4542220000000 1.0
C      1  0.5137630000000  0.5761800000000  0.4562060000000 1.0
C      1  0.4888720000000  0.5505460000000  0.5656250000000 1.0
C      1  0.5368710000000  0.4539510000000  0.5038220000000 1.0
C      1  0.5646840000000  0.5432320000000  0.5616830000000 1.0
END
