TITL C-612602-9376-773 297.154579275412 125000 -801.509099351455 0 0 133 (C1) n - 1
REM
REM in /home/nfs/bkarasulu/CARBON/AIRSS/Generating-Clusters/TERSOFF/Only-C1/FIRE-HFTN
REM
REM
REM
REM
REM
REM ./C.cell (11c1c37f851c82e70ff6c80c92926a4b)
REM AIRSS Version 0.9.1 bugfix July 2018 build 013d7b7c2542+ Fri, 06 Jul 2018 19:26:36 +0100
REM compiler GCC version 9.2.1 20190827 (Red Hat 9.2.1-1)
REM options -cpp -mtune=generic -march=x86-64 -g -O0 -fpre-include=/usr/include/finclude/math-vector-fortran.h
REM seed 993859073 -571379541 -745641595 920552057 1711056719 181563246 -987066975 -2105026253 -1098973568 1190917146 -109964378 -694609362 -479499309 829795383 2101145280 474734328 725954900 276757969 1353609375 688657670 -53200629 270222628 2130386915 745163393 -632353676 1595255518 -977241536 1336063392 1392297678 1672422316 -814417882 1458674008 -1336459179
REM
CELL 1.54180   50.00000   50.00000   50.00000   90.00000   90.00000   90.00000
LATT -1
SFAC C  
C      1  0.5533470000000  0.5021830000000  0.4886820000000 1.0
C      1  0.4735980000000  0.5710040000000  0.4560040000000 1.0
C      1  0.4835350000000  0.4667480000000  0.4988560000000 1.0
C      1  0.5486900000000  0.4767170000000  0.4011120000000 1.0
C      1  0.5146490000000  0.4269410000000  0.5716650000000 1.0
C      1  0.4423650000000  0.5510450000000  0.4908850000000 1.0
C      1  0.5061120000000  0.4073640000000  0.4597440000000 1.0
C      1  0.5733700000000  0.4726020000000  0.5820330000000 1.0
C      1  0.5315190000000  0.5125570000000  0.5247720000000 1.0
C      1  0.5002770000000  0.4882870000000  0.4978750000000 1.0
C      1  0.5816060000000  0.4864570000000  0.5300660000000 1.0
C      1  0.4658220000000  0.5562970000000  0.4315170000000 1.0
C      1  0.4101600000000  0.5351500000000  0.5445030000000 1.0
C      1  0.4399790000000  0.4828560000000  0.5914110000000 1.0
C      1  0.4248870000000  0.5356490000000  0.4487470000000 1.0
C      1  0.4568220000000  0.4265950000000  0.4720650000000 1.0
C      1  0.4594430000000  0.4696660000000  0.4850390000000 1.0
C      1  0.5498690000000  0.4796650000000  0.4759750000000 1.0
C      1  0.5660850000000  0.4704590000000  0.4239190000000 1.0
C      1  0.5191830000000  0.5443010000000  0.4714480000000 1.0
C      1  0.5373830000000  0.4290910000000  0.4276090000000 1.0
C      1  0.4156180000000  0.4926120000000  0.5805540000000 1.0
C      1  0.5351340000000  0.5581610000000  0.5717670000000 1.0
C      1  0.4658440000000  0.5133700000000  0.4081620000000 1.0
C      1  0.4842820000000  0.5086740000000  0.4732100000000 1.0
C      1  0.5064800000000  0.5374680000000  0.4037060000000 1.0
C      1  0.5392510000000  0.4380080000000  0.5714570000000 1.0
C      1  0.5273080000000  0.5543210000000  0.4126750000000 1.0
C      1  0.5847780000000  0.5490680000000  0.5560810000000 1.0
C      1  0.5480150000000  0.5443880000000  0.4295490000000 1.0
C      1  0.4671300000000  0.4753140000000  0.4392150000000 1.0
C      1  0.4443270000000  0.4280480000000  0.5392210000000 1.0
C      1  0.4489150000000  0.5782130000000  0.5382970000000 1.0
C      1  0.4837710000000  0.4851770000000  0.5818130000000 1.0
C      1  0.5165440000000  0.5029360000000  0.4424070000000 1.0
C      1  0.5055850000000  0.5217200000000  0.4599510000000 1.0
C      1  0.5294710000000  0.4636860000000  0.4663180000000 1.0
C      1  0.5522410000000  0.5259090000000  0.5376220000000 1.0
C      1  0.5453710000000  0.5505390000000  0.4572840000000 1.0
C      1  0.4489600000000  0.4534900000000  0.5911720000000 1.0
C      1  0.5298620000000  0.5840630000000  0.5338630000000 1.0
C      1  0.5096530000000  0.6082820000000  0.4999590000000 1.0
C      1  0.5233210000000  0.4870080000000  0.5160510000000 1.0
C      1  0.5104730000000  0.5297150000000  0.5189830000000 1.0
C      1  0.4891080000000  0.6075180000000  0.5230960000000 1.0
C      1  0.4620330000000  0.5027520000000  0.5891890000000 1.0
C      1  0.4856770000000  0.4064460000000  0.5367160000000 1.0
C      1  0.4656030000000  0.4322120000000  0.5817720000000 1.0
C      1  0.5721500000000  0.5000410000000  0.5757660000000 1.0
C      1  0.3729470000000  0.4742950000000  0.5048090000000 1.0
C      1  0.5762350000000  0.4974690000000  0.4353860000000 1.0
C      1  0.4797500000000  0.5383280000000  0.4134480000000 1.0
C      1  0.4645630000000  0.5212810000000  0.5283080000000 1.0
C      1  0.5447530000000  0.5058960000000  0.3997790000000 1.0
C      1  0.5829630000000  0.5739100000000  0.5113460000000 1.0
C      1  0.5610970000000  0.4546320000000  0.5639110000000 1.0
C      1  0.5589700000000  0.5446120000000  0.5803590000000 1.0
C      1  0.5225030000000  0.4657350000000  0.3949750000000 1.0
C      1  0.4631460000000  0.5316240000000  0.5818850000000 1.0
C      1  0.5895820000000  0.4535680000000  0.4743300000000 1.0
C      1  0.4615110000000  0.5011090000000  0.4555230000000 1.0
C      1  0.4816070000000  0.4494140000000  0.5200030000000 1.0
C      1  0.4923200000000  0.4020080000000  0.5075460000000 1.0
C      1  0.4353550000000  0.4155690000000  0.5168190000000 1.0
C      1  0.6003580000000  0.5256940000000  0.5042000000000 1.0
C      1  0.4790060000000  0.5540400000000  0.5681830000000 1.0
C      1  0.4389010000000  0.4723600000000  0.5277910000000 1.0
C      1  0.5161560000000  0.5114610000000  0.3953780000000 1.0
C      1  0.5558570000000  0.5281740000000  0.4930780000000 1.0
C      1  0.5601150000000  0.5191040000000  0.4210750000000 1.0
C      1  0.5683750000000  0.5435760000000  0.4729970000000 1.0
C      1  0.5166420000000  0.4760840000000  0.4452180000000 1.0
C      1  0.5255890000000  0.5074860000000  0.5828360000000 1.0
C      1  0.5922970000000  0.5491180000000  0.5249200000000 1.0
C      1  0.5569770000000  0.4111540000000  0.4701550000000 1.0
C      1  0.5380880000000  0.4134550000000  0.5194140000000 1.0
C      1  0.4763210000000  0.4689450000000  0.5601980000000 1.0
C      1  0.4598870000000  0.4546490000000  0.5395280000000 1.0
C      1  0.5944330000000  0.5296520000000  0.4730040000000 1.0
C      1  0.5971080000000  0.4949990000000  0.5072190000000 1.0
C      1  0.4817940000000  0.4105580000000  0.4787380000000 1.0
C      1  0.4419390000000  0.6245000000000  0.5203940000000 1.0
C      1  0.5966330000000  0.4812360000000  0.4803290000000 1.0
C      1  0.5227050000000  0.4436650000000  0.4840950000000 1.0
C      1  0.4591970000000  0.6042740000000  0.5270710000000 1.0
C      1  0.4875600000000  0.4198630000000  0.5640550000000 1.0
C      1  0.5929880000000  0.5024700000000  0.4591600000000 1.0
C      1  0.5579180000000  0.4036830000000  0.5351100000000 1.0
C      1  0.5096260000000  0.4866910000000  0.5928270000000 1.0
C      1  0.4271880000000  0.5075520000000  0.4999450000000 1.0
C      1  0.4452590000000  0.5282880000000  0.5079270000000 1.0
C      1  0.5528470000000  0.5171240000000  0.5872400000000 1.0
C      1  0.4403590000000  0.4826000000000  0.5010740000000 1.0
C      1  0.5010730000000  0.4851480000000  0.3978110000000 1.0
C      1  0.4911440000000  0.5214990000000  0.5390000000000 1.0
C      1  0.4113320000000  0.4760530000000  0.5354770000000 1.0
C      1  0.4084880000000  0.4629840000000  0.4654000000000 1.0
C      1  0.4261130000000  0.5603110000000  0.5460880000000 1.0
C      1  0.3966130000000  0.4607110000000  0.5135620000000 1.0
C      1  0.4109640000000  0.4476010000000  0.4898520000000 1.0
C      1  0.5632670000000  0.5903000000000  0.5017160000000 1.0
C      1  0.4149540000000  0.4860990000000  0.4528020000000 1.0
C      1  0.4848010000000  0.5633820000000  0.5056130000000 1.0
C      1  0.5301260000000  0.3995170000000  0.4752200000000 1.0
C      1  0.4734660000000  0.5634510000000  0.5401600000000 1.0
C      1  0.5610150000000  0.4441750000000  0.4353920000000 1.0
C      1  0.5065930000000  0.5974060000000  0.5444110000000 1.0
C      1  0.5020030000000  0.6095170000000  0.4729100000000 1.0
C      1  0.4376510000000  0.5516900000000  0.4294470000000 1.0
C      1  0.3766350000000  0.4990870000000  0.4944050000000 1.0
C      1  0.4322800000000  0.4267190000000  0.4906840000000 1.0
C      1  0.5216190000000  0.3969300000000  0.5030230000000 1.0
C      1  0.5389330000000  0.4639680000000  0.5226530000000 1.0
C      1  0.4090140000000  0.4993980000000  0.5539840000000 1.0
C      1  0.4760880000000  0.4863730000000  0.4127630000000 1.0
C      1  0.5361850000000  0.5959670000000  0.5082640000000 1.0
C      1  0.3939020000000  0.5342130000000  0.5215570000000 1.0
C      1  0.4208460000000  0.5500110000000  0.4727570000000 1.0
C      1  0.4892990000000  0.5945540000000  0.4545540000000 1.0
C      1  0.5085260000000  0.5492250000000  0.4988020000000 1.0
C      1  0.5633910000000  0.4644960000000  0.5366900000000 1.0
C      1  0.5119460000000  0.4167920000000  0.4331750000000 1.0
C      1  0.5407750000000  0.5601560000000  0.5437340000000 1.0
C      1  0.5330090000000  0.4399410000000  0.5101920000000 1.0
C      1  0.5071770000000  0.5499810000000  0.5736970000000 1.0
C      1  0.5731820000000  0.5077390000000  0.5476580000000 1.0
C      1  0.4660210000000  0.5644470000000  0.4839350000000 1.0
C      1  0.5084710000000  0.5219940000000  0.5645090000000 1.0
C      1  0.4331090000000  0.5082050000000  0.4515390000000 1.0
C      1  0.5720390000000  0.4347280000000  0.4606210000000 1.0
C      1  0.3988880000000  0.5149810000000  0.5013570000000 1.0
C      1  0.4604540000000  0.4541010000000  0.4600780000000 1.0
C      1  0.4935800000000  0.4134690000000  0.4131340000000 1.0
END
