TITL C-612605-9286-954 0.000120706815730693 125000 -488.025219033568 0 0 81 (C1) n - 1
REM
REM in /home/nfs/bkarasulu/CARBON/AIRSS/Generating-Clusters/TERSOFF/Only-C1/FIRE-HFTN
REM
REM
REM
REM
REM
REM ./C.cell (11c1c37f851c82e70ff6c80c92926a4b)
REM AIRSS Version 0.9.1 bugfix July 2018 build 013d7b7c2542+ Fri, 06 Jul 2018 19:26:36 +0100
REM compiler GCC version 9.2.1 20190827 (Red Hat 9.2.1-1)
REM options -cpp -mtune=generic -march=x86-64 -g -O0 -fpre-include=/usr/include/finclude/math-vector-fortran.h
REM seed 1873445870 -981162603 -368408358 -814661749 -553619609 -739331707 -2015239117 229152929 -1054329616 1281333685 184505149 -96610308 -341416233 -2024455406 -485533993 -459614778 -175244449 -1497974582 672629259 1623668986 811639211 -1721760066 1302628909 3077894 1690996617 -1583439125 -995246903 79572436 -2071133498 -205901749 -1422395455 55712305 -736459702
REM
CELL 1.54180   50.00000   50.00000   50.00000   90.00000   90.00000   90.00000
LATT -1
SFAC C  
C      1  0.4151570000000  0.5337880000000  0.5415360000000 1.0
C      1  0.4599860000000  0.5387610000000  0.5645590000000 1.0
C      1  0.5679860000000  0.5392890000000  0.4113880000000 1.0
C      1  0.5030560000000  0.4483010000000  0.5901040000000 1.0
C      1  0.4865950000000  0.4871480000000  0.4715180000000 1.0
C      1  0.4383000000000  0.5157170000000  0.4461040000000 1.0
C      1  0.5412380000000  0.4875120000000  0.5084590000000 1.0
C      1  0.5171270000000  0.5564760000000  0.5106050000000 1.0
C      1  0.5712060000000  0.5422390000000  0.4773190000000 1.0
C      1  0.4943460000000  0.4723340000000  0.4181810000000 1.0
C      1  0.5548480000000  0.5143860000000  0.4178120000000 1.0
C      1  0.5355050000000  0.5357120000000  0.5047680000000 1.0
C      1  0.4645190000000  0.5140250000000  0.4316040000000 1.0
C      1  0.5444220000000  0.4202420000000  0.5349060000000 1.0
C      1  0.5280970000000  0.5086220000000  0.4970470000000 1.0
C      1  0.4501770000000  0.4905490000000  0.5672110000000 1.0
C      1  0.4736120000000  0.4894080000000  0.4201250000000 1.0
C      1  0.5722300000000  0.5350740000000  0.5316800000000 1.0
C      1  0.5119250000000  0.4378590000000  0.4473500000000 1.0
C      1  0.4649250000000  0.5116930000000  0.5568870000000 1.0
C      1  0.5161760000000  0.4929410000000  0.5751790000000 1.0
C      1  0.5591120000000  0.4915770000000  0.5562470000000 1.0
C      1  0.5240790000000  0.4282910000000  0.5522500000000 1.0
C      1  0.4888900000000  0.4784130000000  0.5255340000000 1.0
C      1  0.4603050000000  0.4786640000000  0.4774260000000 1.0
C      1  0.4855560000000  0.5331710000000  0.4325330000000 1.0
C      1  0.5631470000000  0.4573450000000  0.4435310000000 1.0
C      1  0.5259590000000  0.4487240000000  0.5722550000000 1.0
C      1  0.4867190000000  0.4367240000000  0.4890600000000 1.0
C      1  0.4760000000000  0.4490010000000  0.5868970000000 1.0
C      1  0.4937370000000  0.5478330000000  0.4973540000000 1.0
C      1  0.5871030000000  0.4675870000000  0.5172710000000 1.0
C      1  0.5282420000000  0.5340040000000  0.5563740000000 1.0
C      1  0.5510960000000  0.4883260000000  0.4081590000000 1.0
C      1  0.5699660000000  0.5602540000000  0.4296500000000 1.0
C      1  0.4358490000000  0.5651140000000  0.5061320000000 1.0
C      1  0.5166210000000  0.4579290000000  0.4280930000000 1.0
C      1  0.4815110000000  0.5267450000000  0.5121030000000 1.0
C      1  0.5857550000000  0.4604340000000  0.4914750000000 1.0
C      1  0.5769440000000  0.4566930000000  0.4664660000000 1.0
C      1  0.5039520000000  0.5459570000000  0.4498840000000 1.0
C      1  0.5320800000000  0.5424840000000  0.4503600000000 1.0
C      1  0.4977660000000  0.4181920000000  0.5467750000000 1.0
C      1  0.4876130000000  0.5073620000000  0.5369600000000 1.0
C      1  0.4148690000000  0.5215740000000  0.5153650000000 1.0
C      1  0.4329350000000  0.5454070000000  0.5587300000000 1.0
C      1  0.4839280000000  0.5535470000000  0.5706350000000 1.0
C      1  0.4235530000000  0.4929340000000  0.5131650000000 1.0
C      1  0.4423780000000  0.4662440000000  0.5550440000000 1.0
C      1  0.4265990000000  0.4651380000000  0.4492730000000 1.0
C      1  0.5379550000000  0.4753850000000  0.5694610000000 1.0
C      1  0.5071690000000  0.5716290000000  0.5328720000000 1.0
C      1  0.4560380000000  0.5790630000000  0.5179990000000 1.0
C      1  0.5786360000000  0.4781110000000  0.5404560000000 1.0
C      1  0.5460760000000  0.5167870000000  0.4450840000000 1.0
C      1  0.5458560000000  0.4143290000000  0.5088830000000 1.0
C      1  0.4712990000000  0.4242260000000  0.5477050000000 1.0
C      1  0.4811530000000  0.5837740000000  0.5276560000000 1.0
C      1  0.5636910000000  0.5414210000000  0.5050750000000 1.0
C      1  0.4310200000000  0.5382330000000  0.4645210000000 1.0
C      1  0.5439790000000  0.4659790000000  0.4243860000000 1.0
C      1  0.4612260000000  0.4333910000000  0.4759010000000 1.0
C      1  0.5570750000000  0.5593870000000  0.4560800000000 1.0
C      1  0.4475540000000  0.4560840000000  0.4660150000000 1.0
C      1  0.4592400000000  0.5180060000000  0.4993660000000 1.0
C      1  0.4898290000000  0.5583800000000  0.4713960000000 1.0
C      1  0.5103570000000  0.5117320000000  0.5555780000000 1.0
C      1  0.5098190000000  0.4290620000000  0.4739490000000 1.0
C      1  0.4459780000000  0.4942380000000  0.4954450000000 1.0
C      1  0.4593750000000  0.4444530000000  0.5636450000000 1.0
C      1  0.5099090000000  0.5573360000000  0.5576220000000 1.0
C      1  0.4893100000000  0.4556630000000  0.5107100000000 1.0
C      1  0.5313740000000  0.4165790000000  0.4866260000000 1.0
C      1  0.5554760000000  0.5219440000000  0.5516840000000 1.0
C      1  0.4250460000000  0.4717270000000  0.5326540000000 1.0
C      1  0.5085280000000  0.5007580000000  0.4783360000000 1.0
C      1  0.5679980000000  0.5158580000000  0.4644770000000 1.0
C      1  0.4668880000000  0.5727220000000  0.4633260000000 1.0
C      1  0.4225210000000  0.4917200000000  0.4440000000000 1.0
C      1  0.4426790000000  0.5631880000000  0.4559120000000 1.0
C      1  0.4232510000000  0.5410860000000  0.4938340000000 1.0
END
