TITL C-612601-4209-806 1280.06114137423 125000 -1068.62441270376 0 0 175 (C1) n - 1
REM
REM in /home/nfs/bkarasulu/CARBON/AIRSS/Generating-Clusters/TERSOFF/Only-C1/FIRE-HFTN
REM
REM
REM
REM
REM
REM ./C.cell (11c1c37f851c82e70ff6c80c92926a4b)
REM AIRSS Version 0.9.1 bugfix July 2018 build 013d7b7c2542+ Fri, 06 Jul 2018 19:26:36 +0100
REM compiler GCC version 9.2.1 20190827 (Red Hat 9.2.1-1)
REM options -cpp -mtune=generic -march=x86-64 -g -O0 -fpre-include=/usr/include/finclude/math-vector-fortran.h
REM seed -946295192 1235264413 1593978617 321267299 749537522 -994031359 -1707026913 1094325013 1963959483 -132004743 31821849 1848178831 129549684 -749372857 -351511192 -504490430 3064703 -311454205 1179958442 -2016369232 -2061842082 -833096166 1286635014 -144063909 -297556935 -923159376 1509361386 -1075673650 -1300866516 1363991477 -1788092285 1683519267 -2380983
REM
CELL 1.54180   50.00000   50.00000   50.00000   90.00000   90.00000   90.00000
LATT -1
SFAC C  
C      1  0.3860190000000  0.5469810000000  0.5039370000000 1.0
C      1  0.3908490000000  0.4784900000000  0.4970490000000 1.0
C      1  0.4694270000000  0.4819560000000  0.3523540000000 1.0
C      1  0.4464640000000  0.4221620000000  0.4151380000000 1.0
C      1  0.4988730000000  0.6271450000000  0.5362160000000 1.0
C      1  0.4797500000000  0.4249930000000  0.5652790000000 1.0
C      1  0.4088790000000  0.5026080000000  0.4286500000000 1.0
C      1  0.5046440000000  0.5490230000000  0.5129240000000 1.0
C      1  0.5118240000000  0.4900690000000  0.3748840000000 1.0
C      1  0.5255520000000  0.4061560000000  0.5381680000000 1.0
C      1  0.3725400000000  0.4737750000000  0.4495260000000 1.0
C      1  0.4479360000000  0.5088090000000  0.5342020000000 1.0
C      1  0.4593980000000  0.4443440000000  0.4773040000000 1.0
C      1  0.4176330000000  0.5743560000000  0.4478210000000 1.0
C      1  0.4864140000000  0.4766540000000  0.3731460000000 1.0
C      1  0.5572210000000  0.5105760000000  0.3998960000000 1.0
C      1  0.5210760000000  0.5364900000000  0.4000120000000 1.0
C      1  0.5712420000000  0.5278870000000  0.4789110000000 1.0
C      1  0.4041190000000  0.5292790000000  0.4373840000000 1.0
C      1  0.4887610000000  0.5768530000000  0.4638000000000 1.0
C      1  0.5915750000000  0.4023710000000  0.4954640000000 1.0
C      1  0.5370840000000  0.4355420000000  0.4354000000000 1.0
C      1  0.4143160000000  0.4023850000000  0.5001630000000 1.0
C      1  0.5502910000000  0.5170050000000  0.4958700000000 1.0
C      1  0.5537090000000  0.6079860000000  0.4783480000000 1.0
C      1  0.5668280000000  0.4974320000000  0.4474090000000 1.0
C      1  0.4696810000000  0.5203070000000  0.5783000000000 1.0
C      1  0.5177220000000  0.4417480000000  0.5027000000000 1.0
C      1  0.3865050000000  0.4850520000000  0.4293420000000 1.0
C      1  0.5608260000000  0.5038850000000  0.5190390000000 1.0
C      1  0.5250340000000  0.6070910000000  0.4725340000000 1.0
C      1  0.4893470000000  0.4830750000000  0.5142330000000 1.0
C      1  0.6021140000000  0.5114050000000  0.5732850000000 1.0
C      1  0.4915630000000  0.4447260000000  0.5444870000000 1.0
C      1  0.5541100000000  0.5125820000000  0.5895610000000 1.0
C      1  0.4857990000000  0.4023860000000  0.4327960000000 1.0
C      1  0.5035480000000  0.4183460000000  0.5810000000000 1.0
C      1  0.5531480000000  0.5971540000000  0.5875950000000 1.0
C      1  0.5119480000000  0.3754410000000  0.4875300000000 1.0
C      1  0.3731560000000  0.4714730000000  0.4763820000000 1.0
C      1  0.3826940000000  0.5350360000000  0.4556280000000 1.0
C      1  0.4567550000000  0.4044390000000  0.4351420000000 1.0
C      1  0.5025230000000  0.5828830000000  0.4123870000000 1.0
C      1  0.4291370000000  0.5004390000000  0.4815440000000 1.0
C      1  0.4851290000000  0.4951430000000  0.4438890000000 1.0
C      1  0.5806750000000  0.5129050000000  0.5891080000000 1.0
C      1  0.4440100000000  0.5549190000000  0.5160270000000 1.0
C      1  0.5135850000000  0.4588850000000  0.5616040000000 1.0
C      1  0.4430550000000  0.5610860000000  0.5607270000000 1.0
C      1  0.4046510000000  0.5036090000000  0.4949580000000 1.0
C      1  0.5101470000000  0.4280390000000  0.5262350000000 1.0
C      1  0.5539780000000  0.5612900000000  0.5213070000000 1.0
C      1  0.4205460000000  0.5497230000000  0.5703850000000 1.0
C      1  0.4139110000000  0.4806410000000  0.5624860000000 1.0
C      1  0.4108300000000  0.4610010000000  0.5085000000000 1.0
C      1  0.5102700000000  0.5423070000000  0.3746900000000 1.0
C      1  0.4714580000000  0.5005310000000  0.6629860000000 1.0
C      1  0.5719020000000  0.4949140000000  0.4194420000000 1.0
C      1  0.4935570000000  0.3934820000000  0.4772260000000 1.0
C      1  0.4291230000000  0.4776870000000  0.4632050000000 1.0
C      1  0.5333240000000  0.3736780000000  0.5035550000000 1.0
C      1  0.5249950000000  0.5772640000000  0.4292610000000 1.0
C      1  0.4313050000000  0.4121120000000  0.5837190000000 1.0
C      1  0.4759500000000  0.4832700000000  0.6119810000000 1.0
C      1  0.4891220000000  0.5638920000000  0.5335930000000 1.0
C      1  0.5572030000000  0.4545870000000  0.4403380000000 1.0
C      1  0.4702170000000  0.4610490000000  0.5287330000000 1.0
C      1  0.4634280000000  0.5526610000000  0.4108130000000 1.0
C      1  0.5357550000000  0.6113340000000  0.5725420000000 1.0
C      1  0.5708160000000  0.4324240000000  0.5224790000000 1.0
C      1  0.5271360000000  0.4818990000000  0.4776560000000 1.0
C      1  0.5232140000000  0.5117690000000  0.4798450000000 1.0
C      1  0.4719760000000  0.5560060000000  0.4564120000000 1.0
C      1  0.3697980000000  0.5583030000000  0.5227500000000 1.0
C      1  0.7007260000000  0.4909570000000  0.5225180000000 1.0
C      1  0.5004000000000  0.6170320000000  0.4853520000000 1.0
C      1  0.5100240000000  0.5288600000000  0.4246490000000 1.0
C      1  0.4868440000000  0.5756930000000  0.5825690000000 1.0
C      1  0.4857330000000  0.5433680000000  0.5862490000000 1.0
C      1  0.4206700000000  0.3954460000000  0.4743420000000 1.0
C      1  0.4334310000000  0.4561240000000  0.4801440000000 1.0
C      1  0.4506510000000  0.4295420000000  0.5196170000000 1.0
C      1  0.4877380000000  0.4664400000000  0.4406400000000 1.0
C      1  0.5484720000000  0.4764420000000  0.4575460000000 1.0
C      1  0.4464100000000  0.3958240000000  0.4615970000000 1.0
C      1  0.4259780000000  0.4156580000000  0.5212920000000 1.0
C      1  0.5240100000000  0.4028730000000  0.5669810000000 1.0
C      1  0.4946840000000  0.5039160000000  0.5412770000000 1.0
C      1  0.4805020000000  0.4462570000000  0.4589540000000 1.0
C      1  0.5685340000000  0.5695100000000  0.4457330000000 1.0
C      1  0.5175060000000  0.5042950000000  0.5578720000000 1.0
C      1  0.5007090000000  0.5813750000000  0.5542970000000 1.0
C      1  0.5184670000000  0.6072440000000  0.5480400000000 1.0
C      1  0.4999570000000  0.4143580000000  0.4565960000000 1.0
C      1  0.5516370000000  0.5735160000000  0.6008520000000 1.0
C      1  0.6063640000000  0.5041630000000  0.5465430000000 1.0
C      1  0.4539750000000  0.4181950000000  0.5723780000000 1.0
C      1  0.4455750000000  0.6108330000000  0.5935130000000 1.0
C      1  0.4563770000000  0.4409630000000  0.3979470000000 1.0
C      1  0.5599070000000  0.6042150000000  0.5064480000000 1.0
C      1  0.6097510000000  0.4572300000000  0.5391820000000 1.0
C      1  0.4583700000000  0.5099050000000  0.4454590000000 1.0
C      1  0.5240020000000  0.4471860000000  0.4118740000000 1.0
C      1  0.4313670000000  0.5299290000000  0.5212190000000 1.0
C      1  0.5617070000000  0.5516440000000  0.4669890000000 1.0
C      1  0.4254340000000  0.5485570000000  0.4383690000000 1.0
C      1  0.4628060000000  0.5923520000000  0.5871060000000 1.0
C      1  0.5639560000000  0.4439190000000  0.4961230000000 1.0
C      1  0.6755480000000  0.4878770000000  0.5285350000000 1.0
C      1  0.5863730000000  0.5115750000000  0.5282710000000 1.0
C      1  0.4664870000000  0.3986840000000  0.4831040000000 1.0
C      1  0.5275110000000  0.4240970000000  0.4589850000000 1.0
C      1  0.6018990000000  0.4246700000000  0.4817030000000 1.0
C      1  0.5702730000000  0.5966010000000  0.4569220000000 1.0
C      1  0.5282400000000  0.5182080000000  0.5802330000000 1.0
C      1  0.3846350000000  0.5546610000000  0.4764050000000 1.0
C      1  0.5384090000000  0.4334190000000  0.4847780000000 1.0
C      1  0.5450330000000  0.3918330000000  0.5215890000000 1.0
C      1  0.5673160000000  0.4661770000000  0.4152270000000 1.0
C      1  0.5439660000000  0.4635270000000  0.3976030000000 1.0
C      1  0.4554950000000  0.5104500000000  0.4785230000000 1.0
C      1  0.5956960000000  0.4792750000000  0.4786720000000 1.0
C      1  0.5377250000000  0.4900690000000  0.3868160000000 1.0
C      1  0.5067890000000  0.5131960000000  0.4470300000000 1.0
C      1  0.4787140000000  0.5996290000000  0.4779610000000 1.0
C      1  0.5493280000000  0.4822020000000  0.5326990000000 1.0
C      1  0.5354610000000  0.5606700000000  0.4770170000000 1.0
C      1  0.4975820000000  0.4569500000000  0.4153180000000 1.0
C      1  0.5739290000000  0.5807050000000  0.5151220000000 1.0
C      1  0.4596210000000  0.4962940000000  0.5921860000000 1.0
C      1  0.4707630000000  0.5152610000000  0.5501750000000 1.0
C      1  0.5300520000000  0.4793930000000  0.5524650000000 1.0
C      1  0.5305670000000  0.5587530000000  0.5054360000000 1.0
C      1  0.4546960000000  0.5403100000000  0.4371380000000 1.0
C      1  0.4605550000000  0.5617820000000  0.5378230000000 1.0
C      1  0.4529500000000  0.5969820000000  0.4883050000000 1.0
C      1  0.5514170000000  0.5636300000000  0.4224810000000 1.0
C      1  0.6499200000000  0.4848070000000  0.5345060000000 1.0
C      1  0.4395810000000  0.5760240000000  0.4984190000000 1.0
C      1  0.5141270000000  0.5381200000000  0.5940210000000 1.0
C      1  0.4945800000000  0.4627750000000  0.6058840000000 1.0
C      1  0.5888760000000  0.4511080000000  0.4824960000000 1.0
C      1  0.5001320000000  0.5251320000000  0.4959630000000 1.0
C      1  0.4815190000000  0.5700810000000  0.3976960000000 1.0
C      1  0.4049650000000  0.5266550000000  0.5105090000000 1.0
C      1  0.5800360000000  0.4361620000000  0.5705480000000 1.0
C      1  0.5486790000000  0.4015260000000  0.5809820000000 1.0
C      1  0.3981830000000  0.5777890000000  0.4666880000000 1.0
C      1  0.5707270000000  0.4036890000000  0.5163110000000 1.0
C      1  0.5138350000000  0.4466420000000  0.5896420000000 1.0
C      1  0.5185860000000  0.5791430000000  0.4591710000000 1.0
C      1  0.4902830000000  0.5604130000000  0.3725440000000 1.0
C      1  0.5267450000000  0.5614880000000  0.6061150000000 1.0
C      1  0.4337590000000  0.4917240000000  0.4381660000000 1.0
C      1  0.5605650000000  0.4264470000000  0.5880520000000 1.0
C      1  0.5111510000000  0.4688480000000  0.4980630000000 1.0
C      1  0.6228210000000  0.4819960000000  0.5400110000000 1.0
C      1  0.5405010000000  0.6103410000000  0.5261390000000 1.0
C      1  0.4630250000000  0.4236260000000  0.4960580000000 1.0
C      1  0.5417290000000  0.4442110000000  0.5999910000000 1.0
C      1  0.4791270000000  0.4578150000000  0.3937090000000 1.0
C      1  0.5866510000000  0.4421060000000  0.5439110000000 1.0
C      1  0.3972600000000  0.5036250000000  0.5651510000000 1.0
C      1  0.4986520000000  0.3893940000000  0.4125310000000 1.0
C      1  0.4027040000000  0.5295830000000  0.5704770000000 1.0
C      1  0.5495720000000  0.5387670000000  0.4048630000000 1.0
C      1  0.4971220000000  0.6315000000000  0.5093660000000 1.0
C      1  0.4201140000000  0.4691550000000  0.5354870000000 1.0
C      1  0.4734390000000  0.4915670000000  0.6385970000000 1.0
C      1  0.4464270000000  0.4795660000000  0.5319740000000 1.0
C      1  0.5057410000000  0.5812860000000  0.6057610000000 1.0
C      1  0.4364560000000  0.4822520000000  0.5814440000000 1.0
C      1  0.4777550000000  0.5062060000000  0.4953950000000 1.0
C      1  0.5850920000000  0.5047300000000  0.4679150000000 1.0
C      1  0.6007630000000  0.5777950000000  0.5174710000000 1.0
END
