TITL C-612600-6631-1316 -2070.97215924026 125000 -972.07516371236 0 0 158 (C1) n - 1
REM
REM in /home/nfs/bkarasulu/CARBON/AIRSS/Generating-Clusters/TERSOFF/Only-C1/FIRE-HFTN
REM
REM
REM
REM
REM
REM ./C.cell (11c1c37f851c82e70ff6c80c92926a4b)
REM AIRSS Version 0.9.1 bugfix July 2018 build 013d7b7c2542+ Fri, 06 Jul 2018 19:26:36 +0100
REM compiler GCC version 9.2.1 20190827 (Red Hat 9.2.1-1)
REM options -cpp -mtune=generic -march=x86-64 -g -O0 -fpre-include=/usr/include/finclude/math-vector-fortran.h
REM seed 1754165156 -141437317 11105114 1243524157 805993074 -329346013 1032828242 -760393736 -1482058573 1395137808 -1711072327 1468471877 -1668544709 -1004460235 -1288888930 -1993105455 1683349571 170638767 -729846097 -713506810 -398116245 1014101580 -933673065 -199945869 -1079002879 773418164 -709638860 -1691433248 1610546857 -1452392422 -44257079 338028428 -953380425
REM
CELL 1.54180   50.00000   50.00000   50.00000   90.00000   90.00000   90.00000
LATT -1
SFAC C  
C      1  0.4286090000000  0.4784590000000  0.4808610000000 1.0
C      1  0.5131160000000  0.4604950000000  0.5587270000000 1.0
C      1  0.4507960000000  0.4965110000000  0.4851620000000 1.0
C      1  0.4967850000000  0.3973190000000  0.4735050000000 1.0
C      1  0.4821290000000  0.4585200000000  0.4790310000000 1.0
C      1  0.4755620000000  0.4849520000000  0.4950910000000 1.0
C      1  0.4700430000000  0.4057590000000  0.4637760000000 1.0
C      1  0.5498750000000  0.4137150000000  0.4868140000000 1.0
C      1  0.4585290000000  0.4661490000000  0.5662880000000 1.0
C      1  0.4362480000000  0.5408380000000  0.4209500000000 1.0
C      1  0.5407100000000  0.5033990000000  0.5873670000000 1.0
C      1  0.4872790000000  0.6190210000000  0.5046760000000 1.0
C      1  0.4793150000000  0.4959240000000  0.4387630000000 1.0
C      1  0.5209590000000  0.4467890000000  0.5005340000000 1.0
C      1  0.4737380000000  0.5198890000000  0.4527600000000 1.0
C      1  0.4515790000000  0.5199790000000  0.4703570000000 1.0
C      1  0.4814090000000  0.5963730000000  0.4580210000000 1.0
C      1  0.4625800000000  0.6162770000000  0.5563860000000 1.0
C      1  0.5082310000000  0.5076700000000  0.3875950000000 1.0
C      1  0.5996600000000  0.4692160000000  0.4607510000000 1.0
C      1  0.4091630000000  0.4224210000000  0.5328590000000 1.0
C      1  0.4871810000000  0.5105670000000  0.5404340000000 1.0
C      1  0.5052190000000  0.6069840000000  0.4465660000000 1.0
C      1  0.5627380000000  0.5622990000000  0.4580000000000 1.0
C      1  0.4755310000000  0.4392100000000  0.5020920000000 1.0
C      1  0.5236190000000  0.4830490000000  0.3892970000000 1.0
C      1  0.4958710000000  0.4044510000000  0.6219340000000 1.0
C      1  0.4712720000000  0.4252240000000  0.4420700000000 1.0
C      1  0.4920190000000  0.5714990000000  0.3878820000000 1.0
C      1  0.5015130000000  0.5325310000000  0.5312260000000 1.0
C      1  0.4333500000000  0.5267510000000  0.5658020000000 1.0
C      1  0.5520620000000  0.4835480000000  0.3960680000000 1.0
C      1  0.4511970000000  0.4254380000000  0.6152830000000 1.0
C      1  0.5475570000000  0.5998790000000  0.5685440000000 1.0
C      1  0.5542270000000  0.6131360000000  0.4322730000000 1.0
C      1  0.5211050000000  0.3747520000000  0.5308230000000 1.0
C      1  0.5780130000000  0.5975010000000  0.4326660000000 1.0
C      1  0.4985820000000  0.4425120000000  0.5179170000000 1.0
C      1  0.4489960000000  0.4335890000000  0.4978140000000 1.0
C      1  0.4750880000000  0.4121340000000  0.6061950000000 1.0
C      1  0.4152410000000  0.5042900000000  0.5750700000000 1.0
C      1  0.4842210000000  0.5235580000000  0.3899350000000 1.0
C      1  0.5262830000000  0.5273990000000  0.5190840000000 1.0
C      1  0.5719240000000  0.4348680000000  0.5272760000000 1.0
C      1  0.5458950000000  0.4628150000000  0.6109900000000 1.0
C      1  0.4792130000000  0.5137870000000  0.5670960000000 1.0
C      1  0.4168360000000  0.4929500000000  0.4362720000000 1.0
C      1  0.5768110000000  0.5460620000000  0.4155170000000 1.0
C      1  0.5260970000000  0.6127280000000  0.4279600000000 1.0
C      1  0.4979570000000  0.3764500000000  0.5459940000000 1.0
C      1  0.5648070000000  0.4353590000000  0.4713430000000 1.0
C      1  0.4216560000000  0.5183210000000  0.4245780000000 1.0
C      1  0.5438510000000  0.5228290000000  0.4409360000000 1.0
C      1  0.4078270000000  0.4882000000000  0.4635090000000 1.0
C      1  0.4163370000000  0.4556690000000  0.5898570000000 1.0
C      1  0.5134860000000  0.6040270000000  0.6554740000000 1.0
C      1  0.5051030000000  0.4705280000000  0.5839280000000 1.0
C      1  0.5724940000000  0.5178850000000  0.5531860000000 1.0
C      1  0.6237530000000  0.4831800000000  0.4682090000000 1.0
C      1  0.4192900000000  0.4445400000000  0.4357740000000 1.0
C      1  0.5476550000000  0.4879950000000  0.4929510000000 1.0
C      1  0.5724220000000  0.5430890000000  0.5437430000000 1.0
C      1  0.4593170000000  0.5596660000000  0.5208540000000 1.0
C      1  0.4584520000000  0.5256930000000  0.5791760000000 1.0
C      1  0.4938570000000  0.5383980000000  0.4572730000000 1.0
C      1  0.5555110000000  0.4127250000000  0.5159020000000 1.0
C      1  0.5348900000000  0.3974740000000  0.4204300000000 1.0
C      1  0.4620080000000  0.5127450000000  0.3773820000000 1.0
C      1  0.5407700000000  0.5456060000000  0.4568760000000 1.0
C      1  0.4427280000000  0.4556590000000  0.5452890000000 1.0
C      1  0.5009930000000  0.5955390000000  0.5701560000000 1.0
C      1  0.5239100000000  0.4007500000000  0.4789270000000 1.0
C      1  0.5373660000000  0.3984700000000  0.5331000000000 1.0
C      1  0.5913140000000  0.4461010000000  0.5088490000000 1.0
C      1  0.5142790000000  0.5671780000000  0.4901580000000 1.0
C      1  0.4888980000000  0.5597930000000  0.5332340000000 1.0
C      1  0.5619250000000  0.4964910000000  0.5683010000000 1.0
C      1  0.4827780000000  0.5743180000000  0.5601690000000 1.0
C      1  0.5329040000000  0.4404110000000  0.5570140000000 1.0
C      1  0.4326220000000  0.4700000000000  0.4297460000000 1.0
C      1  0.5121700000000  0.4631130000000  0.4280920000000 1.0
C      1  0.4692840000000  0.4519440000000  0.4527350000000 1.0
C      1  0.6463490000000  0.4685910000000  0.4736540000000 1.0
C      1  0.4909680000000  0.4384540000000  0.3952410000000 1.0
C      1  0.4770280000000  0.4699740000000  0.5857960000000 1.0
C      1  0.5094680000000  0.5751200000000  0.5162130000000 1.0
C      1  0.3935050000000  0.4883240000000  0.5629800000000 1.0
C      1  0.6248990000000  0.5113370000000  0.4694610000000 1.0
C      1  0.5040860000000  0.6186960000000  0.5280190000000 1.0
C      1  0.5690800000000  0.4584120000000  0.5968340000000 1.0
C      1  0.5480190000000  0.5909250000000  0.5415870000000 1.0
C      1  0.4633100000000  0.5749620000000  0.4467990000000 1.0
C      1  0.5269290000000  0.4807370000000  0.5990660000000 1.0
C      1  0.4604430000000  0.4735330000000  0.4368180000000 1.0
C      1  0.5230820000000  0.4140770000000  0.5541690000000 1.0
C      1  0.4773600000000  0.4238480000000  0.4141470000000 1.0
C      1  0.5048130000000  0.5946530000000  0.3857920000000 1.0
C      1  0.6300760000000  0.5375090000000  0.4711420000000 1.0
C      1  0.3955450000000  0.4591080000000  0.5679980000000 1.0
C      1  0.4457600000000  0.4107350000000  0.4805280000000 1.0
C      1  0.6005460000000  0.6020950000000  0.4502000000000 1.0
C      1  0.5432910000000  0.5128680000000  0.5046350000000 1.0
C      1  0.4354440000000  0.4273860000000  0.5459180000000 1.0
C      1  0.5239840000000  0.4443910000000  0.4473210000000 1.0
C      1  0.5713470000000  0.4933190000000  0.4154900000000 1.0
C      1  0.5099860000000  0.4486580000000  0.4738610000000 1.0
C      1  0.4167520000000  0.4112650000000  0.4776550000000 1.0
C      1  0.5091390000000  0.4597830000000  0.4000470000000 1.0
C      1  0.4364460000000  0.5394720000000  0.5381010000000 1.0
C      1  0.5268290000000  0.5804370000000  0.6090340000000 1.0
C      1  0.5403740000000  0.4655190000000  0.5078180000000 1.0
C      1  0.4329320000000  0.4321210000000  0.5938790000000 1.0
C      1  0.5179890000000  0.6121610000000  0.4009690000000 1.0
C      1  0.5873780000000  0.4778360000000  0.4349240000000 1.0
C      1  0.5249960000000  0.5943220000000  0.5845300000000 1.0
C      1  0.4049560000000  0.4131200000000  0.5051560000000 1.0
C      1  0.4296250000000  0.4694970000000  0.5248640000000 1.0
C      1  0.4970840000000  0.4640210000000  0.5358560000000 1.0
C      1  0.5604020000000  0.4481080000000  0.5507500000000 1.0
C      1  0.3905390000000  0.4383800000000  0.5487230000000 1.0
C      1  0.4482960000000  0.5665530000000  0.4712010000000 1.0
C      1  0.4963560000000  0.4013550000000  0.5612600000000 1.0
C      1  0.4214270000000  0.5217520000000  0.5217820000000 1.0
C      1  0.5890710000000  0.4486720000000  0.4801860000000 1.0
C      1  0.3847910000000  0.5280060000000  0.4775280000000 1.0
C      1  0.5699470000000  0.4680770000000  0.5694940000000 1.0
C      1  0.4751670000000  0.6001070000000  0.4871660000000 1.0
C      1  0.5309030000000  0.4996780000000  0.4490530000000 1.0
C      1  0.5793770000000  0.5712230000000  0.4788970000000 1.0
C      1  0.3848850000000  0.5014840000000  0.4726730000000 1.0
C      1  0.5159380000000  0.5511690000000  0.4678820000000 1.0
C      1  0.5325560000000  0.5530770000000  0.6077240000000 1.0
C      1  0.4066750000000  0.5434620000000  0.4762410000000 1.0
C      1  0.4244160000000  0.4841190000000  0.5955270000000 1.0
C      1  0.4098210000000  0.4259130000000  0.4536440000000 1.0
C      1  0.4802390000000  0.5501160000000  0.4017830000000 1.0
C      1  0.5218040000000  0.5931450000000  0.6333010000000 1.0
C      1  0.6046320000000  0.5825340000000  0.4710970000000 1.0
C      1  0.5364490000000  0.5291400000000  0.5970530000000 1.0
C      1  0.5501400000000  0.4548000000000  0.4562350000000 1.0
C      1  0.4311110000000  0.4565420000000  0.4991450000000 1.0
C      1  0.4344260000000  0.5424320000000  0.4724790000000 1.0
C      1  0.5071510000000  0.4888550000000  0.4381610000000 1.0
C      1  0.5657230000000  0.5207730000000  0.4225190000000 1.0
C      1  0.4453800000000  0.4172820000000  0.5705010000000 1.0
C      1  0.4570720000000  0.5891590000000  0.5606190000000 1.0
C      1  0.6258010000000  0.5639970000000  0.4721510000000 1.0
C      1  0.4915940000000  0.6193960000000  0.5540120000000 1.0
C      1  0.4855230000000  0.4876040000000  0.5236490000000 1.0
C      1  0.4188420000000  0.4952300000000  0.5242090000000 1.0
C      1  0.4734240000000  0.4085000000000  0.5770660000000 1.0
C      1  0.4581140000000  0.5772180000000  0.4964600000000 1.0
C      1  0.4602890000000  0.5570040000000  0.4225650000000 1.0
C      1  0.5242390000000  0.5973100000000  0.5265910000000 1.0
C      1  0.5273240000000  0.4178630000000  0.4348390000000 1.0
C      1  0.5470360000000  0.4824870000000  0.4651550000000 1.0
C      1  0.5638240000000  0.5677370000000  0.5372070000000 1.0
C      1  0.5728880000000  0.5691460000000  0.4314690000000 1.0
END
