TITL C-612602-9376-1498 -4439.23015093706 125000 -928.881469854196 0 0 152 (C1) n - 1
REM
REM in /home/nfs/bkarasulu/CARBON/AIRSS/Generating-Clusters/TERSOFF/Only-C1/FIRE-HFTN
REM
REM
REM
REM
REM
REM ./C.cell (11c1c37f851c82e70ff6c80c92926a4b)
REM AIRSS Version 0.9.1 bugfix July 2018 build 013d7b7c2542+ Fri, 06 Jul 2018 19:26:36 +0100
REM compiler GCC version 9.2.1 20190827 (Red Hat 9.2.1-1)
REM options -cpp -mtune=generic -march=x86-64 -g -O0 -fpre-include=/usr/include/finclude/math-vector-fortran.h
REM seed -1313962794 1630399041 -1454399287 -1767029313 1735068188 562637727 -2125524709 -1745035898 -422287257 995891906 -1068685947 1921517068 -812435800 -955967761 -573792832 -653109158 -1324157791 1917016622 -1514056993 -145529595 1455905048 -1445274472 1623231443 -214350429 -1774459260 1579809087 1089123331 1552649045 -1313506939 -1190178088 -1293531061 343658300 -1422372305
REM
CELL 1.54180   50.00000   50.00000   50.00000   90.00000   90.00000   90.00000
LATT -1
SFAC C  
C      1  0.4928890000000  0.5667440000000  0.4089090000000 1.0
C      1  0.5304050000000  0.5648550000000  0.5011360000000 1.0
C      1  0.6487760000000  0.3645340000000  0.5025720000000 1.0
C      1  0.4534140000000  0.4626470000000  0.5200440000000 1.0
C      1  0.5165760000000  0.5504930000000  0.4141300000000 1.0
C      1  0.3995630000000  0.4699070000000  0.5184700000000 1.0
C      1  0.4807900000000  0.4647880000000  0.4096890000000 1.0
C      1  0.5087700000000  0.5376930000000  0.5503130000000 1.0
C      1  0.6261400000000  0.3977840000000  0.4758340000000 1.0
C      1  0.5223330000000  0.5719540000000  0.5907750000000 1.0
C      1  0.4430300000000  0.5304070000000  0.4138550000000 1.0
C      1  0.4526830000000  0.4146910000000  0.5336140000000 1.0
C      1  0.4917250000000  0.5258430000000  0.4976250000000 1.0
C      1  0.4357120000000  0.4720910000000  0.5767560000000 1.0
C      1  0.5941070000000  0.5035390000000  0.5117950000000 1.0
C      1  0.5639960000000  0.5850730000000  0.4744180000000 1.0
C      1  0.4769590000000  0.5084050000000  0.3865140000000 1.0
C      1  0.4192940000000  0.4902870000000  0.5244720000000 1.0
C      1  0.3611250000000  0.5455210000000  0.3877030000000 1.0
C      1  0.5074880000000  0.5008990000000  0.5936680000000 1.0
C      1  0.5381590000000  0.4353840000000  0.4656150000000 1.0
C      1  0.5847310000000  0.6095710000000  0.5908860000000 1.0
C      1  0.5381360000000  0.3994020000000  0.4331410000000 1.0
C      1  0.5857290000000  0.5101670000000  0.4647100000000 1.0
C      1  0.6669380000000  0.3566700000000  0.4331920000000 1.0
C      1  0.3980550000000  0.5416360000000  0.4536420000000 1.0
C      1  0.6559360000000  0.3656050000000  0.4550630000000 1.0
C      1  0.4165740000000  0.4748940000000  0.4554590000000 1.0
C      1  0.5302430000000  0.5047830000000  0.5753180000000 1.0
C      1  0.4616970000000  0.5850680000000  0.4480790000000 1.0
C      1  0.4573590000000  0.4914950000000  0.4784390000000 1.0
C      1  0.4075030000000  0.3983910000000  0.5435610000000 1.0
C      1  0.5139510000000  0.5983450000000  0.4722580000000 1.0
C      1  0.4811100000000  0.4715430000000  0.4820540000000 1.0
C      1  0.3426030000000  0.5443460000000  0.3693950000000 1.0
C      1  0.4750670000000  0.5156520000000  0.4735130000000 1.0
C      1  0.4530920000000  0.5141220000000  0.5926400000000 1.0
C      1  0.4390140000000  0.4393230000000  0.5252130000000 1.0
C      1  0.5462620000000  0.5034260000000  0.4985280000000 1.0
C      1  0.5241070000000  0.5603400000000  0.4428150000000 1.0
C      1  0.5498970000000  0.4608930000000  0.4712540000000 1.0
C      1  0.4630030000000  0.5299340000000  0.5381950000000 1.0
C      1  0.5166540000000  0.4815290000000  0.4449170000000 1.0
C      1  0.3911330000000  0.5182110000000  0.4676300000000 1.0
C      1  0.5924060000000  0.5304600000000  0.6078930000000 1.0
C      1  0.4951650000000  0.5806610000000  0.5952180000000 1.0
C      1  0.4804470000000  0.4082260000000  0.5275330000000 1.0
C      1  0.5104780000000  0.4413010000000  0.6358560000000 1.0
C      1  0.4966570000000  0.5610890000000  0.5467770000000 1.0
C      1  0.4852580000000  0.5844920000000  0.4309320000000 1.0
C      1  0.5147240000000  0.5424020000000  0.4872970000000 1.0
C      1  0.4806160000000  0.4427000000000  0.3919890000000 1.0
C      1  0.3998820000000  0.5470660000000  0.4253470000000 1.0
C      1  0.4731250000000  0.4571010000000  0.4366120000000 1.0
C      1  0.5490980000000  0.4737510000000  0.4966520000000 1.0
C      1  0.5702410000000  0.5490410000000  0.5248400000000 1.0
C      1  0.4926770000000  0.4779980000000  0.5078270000000 1.0
C      1  0.4336060000000  0.5008110000000  0.5730670000000 1.0
C      1  0.4885850000000  0.4916760000000  0.4058690000000 1.0
C      1  0.4490830000000  0.4406960000000  0.4380720000000 1.0
C      1  0.5649370000000  0.5004680000000  0.4449640000000 1.0
C      1  0.5006300000000  0.4618880000000  0.6232730000000 1.0
C      1  0.4345440000000  0.3953730000000  0.5440640000000 1.0
C      1  0.4522080000000  0.4178150000000  0.4208930000000 1.0
C      1  0.5507850000000  0.4123630000000  0.4547320000000 1.0
C      1  0.5467410000000  0.5651300000000  0.5252240000000 1.0
C      1  0.5527490000000  0.4258900000000  0.5574080000000 1.0
C      1  0.4572890000000  0.5263610000000  0.3901640000000 1.0
C      1  0.3841430000000  0.4822920000000  0.4988080000000 1.0
C      1  0.4810670000000  0.4484560000000  0.5718670000000 1.0
C      1  0.4893140000000  0.6009180000000  0.4881040000000 1.0
C      1  0.4232760000000  0.4475820000000  0.4494450000000 1.0
C      1  0.4643920000000  0.4934050000000  0.6105300000000 1.0
C      1  0.4649350000000  0.6019220000000  0.4718350000000 1.0
C      1  0.5372020000000  0.5870750000000  0.4841780000000 1.0
C      1  0.5113750000000  0.5886550000000  0.4452420000000 1.0
C      1  0.3951470000000  0.4206600000000  0.5339730000000 1.0
C      1  0.4052620000000  0.4276840000000  0.4551430000000 1.0
C      1  0.4454970000000  0.6204860000000  0.4776860000000 1.0
C      1  0.5094490000000  0.4356270000000  0.4652330000000 1.0
C      1  0.5263150000000  0.5444610000000  0.5983080000000 1.0
C      1  0.5454870000000  0.4794680000000  0.4503440000000 1.0
C      1  0.4711220000000  0.5397300000000  0.5126260000000 1.0
C      1  0.5819610000000  0.5647050000000  0.4718450000000 1.0
C      1  0.4094760000000  0.4432190000000  0.5245840000000 1.0
C      1  0.4168070000000  0.5348580000000  0.5383450000000 1.0
C      1  0.4727170000000  0.5369740000000  0.5956780000000 1.0
C      1  0.4869490000000  0.5975380000000  0.5176940000000 1.0
C      1  0.5521520000000  0.5216470000000  0.4303080000000 1.0
C      1  0.4406640000000  0.4845540000000  0.5051490000000 1.0
C      1  0.5061410000000  0.5858020000000  0.5360840000000 1.0
C      1  0.3799910000000  0.5466480000000  0.4062670000000 1.0
C      1  0.4552950000000  0.4536090000000  0.5772680000000 1.0
C      1  0.5033430000000  0.5463630000000  0.4589840000000 1.0
C      1  0.5987740000000  0.3941730000000  0.4713950000000 1.0
C      1  0.4245030000000  0.5532650000000  0.4929640000000 1.0
C      1  0.5695830000000  0.4474560000000  0.5590550000000 1.0
C      1  0.4283610000000  0.5532740000000  0.4216340000000 1.0
C      1  0.5860850000000  0.5316850000000  0.5085810000000 1.0
C      1  0.3932980000000  0.4881410000000  0.4654720000000 1.0
C      1  0.4854610000000  0.4049400000000  0.4999740000000 1.0
C      1  0.5808420000000  0.4740980000000  0.5579150000000 1.0
C      1  0.5623070000000  0.5990770000000  0.5814590000000 1.0
C      1  0.5470230000000  0.5411100000000  0.4517460000000 1.0
C      1  0.4945600000000  0.3980910000000  0.4049230000000 1.0
C      1  0.4196260000000  0.5076800000000  0.5474210000000 1.0
C      1  0.5469190000000  0.5243150000000  0.5906300000000 1.0
C      1  0.5007370000000  0.5286970000000  0.5998420000000 1.0
C      1  0.4895260000000  0.5227180000000  0.4494830000000 1.0
C      1  0.5045620000000  0.4535790000000  0.5599580000000 1.0
C      1  0.5401410000000  0.5255030000000  0.4786420000000 1.0
C      1  0.4410300000000  0.5488410000000  0.5454780000000 1.0
C      1  0.3893690000000  0.5191010000000  0.4968380000000 1.0
C      1  0.6437700000000  0.3757260000000  0.4781150000000 1.0
C      1  0.5389620000000  0.4596070000000  0.5191570000000 1.0
C      1  0.4424860000000  0.5089970000000  0.4324300000000 1.0
C      1  0.4911690000000  0.4835370000000  0.6087310000000 1.0
C      1  0.5226040000000  0.4576300000000  0.5404520000000 1.0
C      1  0.4069410000000  0.5376650000000  0.5106090000000 1.0
C      1  0.4722310000000  0.5655100000000  0.5960240000000 1.0
C      1  0.6070300000000  0.6191560000000  0.6003960000000 1.0
C      1  0.5905650000000  0.4863880000000  0.5340030000000 1.0
C      1  0.5182010000000  0.3935390000000  0.4164590000000 1.0
C      1  0.6169240000000  0.4726840000000  0.4790290000000 1.0
C      1  0.4185730000000  0.5587510000000  0.4660240000000 1.0
C      1  0.4738190000000  0.4167100000000  0.4020640000000 1.0
C      1  0.6353830000000  0.4240940000000  0.4777420000000 1.0
C      1  0.5736760000000  0.5157220000000  0.5935670000000 1.0
C      1  0.4379320000000  0.5685170000000  0.4452330000000 1.0
C      1  0.5264840000000  0.5227970000000  0.4157680000000 1.0
C      1  0.5345680000000  0.5837780000000  0.5438770000000 1.0
C      1  0.6091940000000  0.5457410000000  0.6206900000000 1.0
C      1  0.5043590000000  0.5029290000000  0.5101780000000 1.0
C      1  0.4456250000000  0.5768410000000  0.5427640000000 1.0
C      1  0.4950360000000  0.4150380000000  0.4774180000000 1.0
C      1  0.6309540000000  0.4502360000000  0.4782450000000 1.0
C      1  0.4953380000000  0.4612180000000  0.4573530000000 1.0
C      1  0.5399390000000  0.5852990000000  0.5721040000000 1.0
C      1  0.5294410000000  0.5068050000000  0.5223500000000 1.0
C      1  0.4604410000000  0.5953160000000  0.5292920000000 1.0
C      1  0.5257420000000  0.5150700000000  0.5490040000000 1.0
C      1  0.5805330000000  0.4913120000000  0.5805710000000 1.0
C      1  0.4392470000000  0.4919950000000  0.4544800000000 1.0
C      1  0.5300250000000  0.4114970000000  0.5518970000000 1.0
C      1  0.5042220000000  0.4065650000000  0.5439970000000 1.0
C      1  0.5047790000000  0.5042480000000  0.4279750000000 1.0
C      1  0.4703820000000  0.5024050000000  0.5435060000000 1.0
C      1  0.5865030000000  0.5374730000000  0.4791030000000 1.0
C      1  0.4518010000000  0.5543360000000  0.4989080000000 1.0
C      1  0.4753350000000  0.4765730000000  0.5307500000000 1.0
C      1  0.5989810000000  0.4930200000000  0.4847550000000 1.0
C      1  0.5739670000000  0.4015510000000  0.4657340000000 1.0
END
