TITL C-612602-9376-631 1.85249864075242 125000 -79.8006429997283 0 0 15 (C2) n - 1
REM
REM in /home/nfs/bkarasulu/CARBON/AIRSS/Generating-Clusters/TERSOFF/Only-C1/FIRE-HFTN
REM
REM
REM
REM
REM
REM ./C.cell (11c1c37f851c82e70ff6c80c92926a4b)
REM AIRSS Version 0.9.1 bugfix July 2018 build 013d7b7c2542+ Fri, 06 Jul 2018 19:26:36 +0100
REM compiler GCC version 9.2.1 20190827 (Red Hat 9.2.1-1)
REM options -cpp -mtune=generic -march=x86-64 -g -O0 -fpre-include=/usr/include/finclude/math-vector-fortran.h
REM seed 1241653183 522697632 -1010393642 335323917 906737457 -123405202 1409166091 -1457881551 -1732343812 -397094848 -377259706 -51232169 -1002619089 1249499329 1738140560 1454280103 -1386333632 1324941346 784579074 469774676 482580663 987241542 2102549840 1146138084 459480334 -965352447 711568318 -744412137 1273721109 651297439 1155061104 1939391382 978210156
REM
CELL 1.54180   50.00000   50.00000   50.00000   90.00000   90.00000   90.00000
LATT -1
SFAC C  
C      1  0.4944830000000  0.4540330000000  0.4712520000000 1.0
C      1  0.4918000000000  0.4316800000000  0.4572730000000 1.0
C      1  0.4891170000000  0.4093220000000  0.4432900000000 1.0
C      1  0.5144160000000  0.5166790000000  0.5605080000000 1.0
C      1  0.5026730000000  0.5222710000000  0.5139280000000 1.0
C      1  0.5400170000000  0.5507740000000  0.5015230000000 1.0
C      1  0.4864780000000  0.3873330000000  0.4295380000000 1.0
C      1  0.5125010000000  0.5458310000000  0.5014450000000 1.0
C      1  0.4971660000000  0.4763840000000  0.4852310000000 1.0
C      1  0.4696370000000  0.5296640000000  0.5487830000000 1.0
C      1  0.4998470000000  0.4987240000000  0.4992020000000 1.0
C      1  0.5657590000000  0.5547830000000  0.5021950000000 1.0
C      1  0.4957360000000  0.5228050000000  0.5414800000000 1.0
C      1  0.4951900000000  0.5633630000000  0.4895510000000 1.0
C      1  0.4451790000000  0.5363540000000  0.5548020000000 1.0
END
