TITL C-612605-9286-1251 0.21823642150833 125000 -586.385969466026 0 0 97 (C1) n - 1
REM
REM in /home/nfs/bkarasulu/CARBON/AIRSS/Generating-Clusters/TERSOFF/Only-C1/FIRE-HFTN
REM
REM
REM
REM
REM
REM ./C.cell (11c1c37f851c82e70ff6c80c92926a4b)
REM AIRSS Version 0.9.1 bugfix July 2018 build 013d7b7c2542+ Fri, 06 Jul 2018 19:26:36 +0100
REM compiler GCC version 9.2.1 20190827 (Red Hat 9.2.1-1)
REM options -cpp -mtune=generic -march=x86-64 -g -O0 -fpre-include=/usr/include/finclude/math-vector-fortran.h
REM seed 870347713 -1248331368 1475942862 -1630233608 -1062933354 1918148743 419895883 -2025532849 112212424 1785599966 1156596569 1087302496 1343421833 -1870702080 -464821175 -1297685847 290222885 1013677697 627568365 -174978621 384871126 -1887076645 2048302985 1652559662 553926126 1791229020 -1986807540 -1342878981 1889582321 -1202332546 782265651 202042370 2021414448
REM
CELL 1.54180   50.00000   50.00000   50.00000   90.00000   90.00000   90.00000
LATT -1
SFAC C  
C      1  0.4224460000000  0.5513910000000  0.5072520000000 1.0
C      1  0.4567140000000  0.4772690000000  0.5622530000000 1.0
C      1  0.5197690000000  0.4018030000000  0.4472980000000 1.0
C      1  0.4806510000000  0.6058140000000  0.5427530000000 1.0
C      1  0.4356720000000  0.6075410000000  0.4861940000000 1.0
C      1  0.4953840000000  0.4730360000000  0.6452250000000 1.0
C      1  0.5846090000000  0.4364930000000  0.4850870000000 1.0
C      1  0.5431740000000  0.4944690000000  0.5721920000000 1.0
C      1  0.4816320000000  0.5590630000000  0.5404800000000 1.0
C      1  0.4413510000000  0.4408000000000  0.4250440000000 1.0
C      1  0.4211090000000  0.4387210000000  0.5133240000000 1.0
C      1  0.5901200000000  0.4794180000000  0.5056160000000 1.0
C      1  0.4035970000000  0.4579830000000  0.5081850000000 1.0
C      1  0.4872080000000  0.5467680000000  0.3813700000000 1.0
C      1  0.4751760000000  0.6072460000000  0.5146860000000 1.0
C      1  0.4943410000000  0.5251420000000  0.4766740000000 1.0
C      1  0.4385530000000  0.4928690000000  0.5501240000000 1.0
C      1  0.5345620000000  0.5458760000000  0.4222970000000 1.0
C      1  0.4451550000000  0.4669140000000  0.4139790000000 1.0
C      1  0.5096270000000  0.4965510000000  0.5089490000000 1.0
C      1  0.5777780000000  0.4782630000000  0.4588950000000 1.0
C      1  0.4791460000000  0.4695720000000  0.5748210000000 1.0
C      1  0.3709660000000  0.5236370000000  0.4977000000000 1.0
C      1  0.4783920000000  0.5240440000000  0.3920390000000 1.0
C      1  0.4986620000000  0.4711620000000  0.6190110000000 1.0
C      1  0.5519840000000  0.5151150000000  0.5551750000000 1.0
C      1  0.5183540000000  0.5082080000000  0.4822040000000 1.0
C      1  0.5201720000000  0.4292090000000  0.5171290000000 1.0
C      1  0.3950270000000  0.4829130000000  0.5053870000000 1.0
C      1  0.5486840000000  0.4478400000000  0.4249310000000 1.0
C      1  0.4285880000000  0.5179270000000  0.5420680000000 1.0
C      1  0.5077210000000  0.5636010000000  0.3848740000000 1.0
C      1  0.5001260000000  0.6070070000000  0.4997700000000 1.0
C      1  0.5353250000000  0.4178550000000  0.4950070000000 1.0
C      1  0.5107630000000  0.4128420000000  0.4224050000000 1.0
C      1  0.5283600000000  0.4212000000000  0.5426670000000 1.0
C      1  0.5226880000000  0.4391610000000  0.4159260000000 1.0
C      1  0.5374760000000  0.4617530000000  0.4706260000000 1.0
C      1  0.5205070000000  0.5882150000000  0.5092560000000 1.0
C      1  0.4826510000000  0.4097780000000  0.4174400000000 1.0
C      1  0.5912840000000  0.4644070000000  0.4812290000000 1.0
C      1  0.4946300000000  0.4556650000000  0.4482300000000 1.0
C      1  0.5389470000000  0.5101700000000  0.4615870000000 1.0
C      1  0.5503770000000  0.5530000000000  0.4921410000000 1.0
C      1  0.4962350000000  0.4460910000000  0.5141760000000 1.0
C      1  0.5701490000000  0.5533140000000  0.4717660000000 1.0
C      1  0.4455870000000  0.4296180000000  0.5180800000000 1.0
C      1  0.4929450000000  0.5412030000000  0.5213400000000 1.0
C      1  0.5013680000000  0.5152030000000  0.5297340000000 1.0
C      1  0.5277680000000  0.5624840000000  0.4026030000000 1.0
C      1  0.5045220000000  0.6236390000000  0.4778970000000 1.0
C      1  0.5083110000000  0.6383060000000  0.4566940000000 1.0
C      1  0.4885490000000  0.4750270000000  0.4010360000000 1.0
C      1  0.5427010000000  0.4222450000000  0.5665970000000 1.0
C      1  0.4409060000000  0.5705900000000  0.5176120000000 1.0
C      1  0.5491380000000  0.5429380000000  0.5613510000000 1.0
C      1  0.5447130000000  0.4720880000000  0.4966720000000 1.0
C      1  0.5024310000000  0.4596010000000  0.4203370000000 1.0
C      1  0.5292320000000  0.4716190000000  0.5812620000000 1.0
C      1  0.4148340000000  0.5256080000000  0.5177890000000 1.0
C      1  0.4888030000000  0.4777410000000  0.6971740000000 1.0
C      1  0.4989860000000  0.5119750000000  0.5573210000000 1.0
C      1  0.5682720000000  0.5056300000000  0.4616070000000 1.0
C      1  0.5422760000000  0.4468680000000  0.5797400000000 1.0
C      1  0.3933970000000  0.5107980000000  0.5067280000000 1.0
C      1  0.4999160000000  0.5476040000000  0.4941660000000 1.0
C      1  0.5562230000000  0.4007140000000  0.5764170000000 1.0
C      1  0.5153710000000  0.4455510000000  0.4647220000000 1.0
C      1  0.5635460000000  0.4862080000000  0.5135690000000 1.0
C      1  0.4577830000000  0.4191570000000  0.4226700000000 1.0
C      1  0.5566630000000  0.5340110000000  0.5120920000000 1.0
C      1  0.4957530000000  0.5824510000000  0.5488730000000 1.0
C      1  0.4715850000000  0.4614400000000  0.4629170000000 1.0
C      1  0.4920690000000  0.4753880000000  0.6714170000000 1.0
C      1  0.4393920000000  0.5405440000000  0.5555070000000 1.0
C      1  0.4536070000000  0.5602810000000  0.5413680000000 1.0
C      1  0.4539390000000  0.4941810000000  0.4246410000000 1.0
C      1  0.4734930000000  0.4806790000000  0.4835730000000 1.0
C      1  0.5638720000000  0.4206950000000  0.4930490000000 1.0
C      1  0.5582300000000  0.5104500000000  0.5275550000000 1.0
C      1  0.4944920000000  0.5225000000000  0.5814200000000 1.0
C      1  0.4775310000000  0.5012430000000  0.4078110000000 1.0
C      1  0.4711170000000  0.5079580000000  0.4723280000000 1.0
C      1  0.5566680000000  0.4619290000000  0.4483730000000 1.0
C      1  0.5210490000000  0.4179970000000  0.4702710000000 1.0
C      1  0.5022410000000  0.4709690000000  0.5912050000000 1.0
C      1  0.5225330000000  0.5829650000000  0.5382670000000 1.0
C      1  0.4538050000000  0.5080360000000  0.4495090000000 1.0
C      1  0.4719250000000  0.4325930000000  0.5194080000000 1.0
C      1  0.4641740000000  0.4623520000000  0.3911460000000 1.0
C      1  0.5314090000000  0.5251590000000  0.4386570000000 1.0
C      1  0.5820120000000  0.5304970000000  0.4624160000000 1.0
C      1  0.4926450000000  0.4736640000000  0.5047850000000 1.0
C      1  0.5239690000000  0.5644970000000  0.4932780000000 1.0
C      1  0.5414960000000  0.5671790000000  0.5521390000000 1.0
C      1  0.4905490000000  0.5355790000000  0.6036300000000 1.0
C      1  0.4503660000000  0.5952310000000  0.5058100000000 1.0
END
