TITL C-612607-4507-180 0.54567566542989 125000 -319.062254115815 0 0 55 (C1) n - 1
REM
REM in /home/nfs/bkarasulu/CARBON/AIRSS/Generating-Clusters/TERSOFF/Only-C1/FIRE-HFTN
REM
REM
REM
REM
REM
REM ./C.cell (11c1c37f851c82e70ff6c80c92926a4b)
REM AIRSS Version 0.9.1 bugfix July 2018 build 013d7b7c2542+ Fri, 06 Jul 2018 19:26:36 +0100
REM compiler GCC version 9.2.1 20190827 (Red Hat 9.2.1-1)
REM options -cpp -mtune=generic -march=x86-64 -g -O0 -fpre-include=/usr/include/finclude/math-vector-fortran.h
REM seed -1287768615 -2051285829 -1506742038 1085802322 1993410638 32987506 -1758343769 -1696020628 -1553194134 651359550 2066584732 664734748 -1027037158 1007101798 1744355343 -1540685706 1116335115 1820687823 461243574 -1422482470 37512859 433834542 -1498588332 1545207992 796505529 -179665358 -594041578 -973117058 -1703364298 1327392548 1588615238 -2124613533 -2074121273
REM
CELL 1.54180   50.00000   50.00000   50.00000   90.00000   90.00000   90.00000
LATT -1
SFAC C  
C      1  0.5034750000000  0.5233780000000  0.4914150000000 1.0
C      1  0.4977080000000  0.5257920000000  0.5480380000000 1.0
C      1  0.5429500000000  0.4459570000000  0.5610800000000 1.0
C      1  0.4666260000000  0.4932780000000  0.5451460000000 1.0
C      1  0.4982220000000  0.5362330000000  0.4001510000000 1.0
C      1  0.4386910000000  0.4845280000000  0.4828710000000 1.0
C      1  0.5939350000000  0.5193380000000  0.4376980000000 1.0
C      1  0.4998690000000  0.4544170000000  0.6191680000000 1.0
C      1  0.4557610000000  0.4676310000000  0.5451490000000 1.0
C      1  0.4941400000000  0.4981030000000  0.5524540000000 1.0
C      1  0.5130080000000  0.4590770000000  0.5971500000000 1.0
C      1  0.5420360000000  0.5076370000000  0.5531410000000 1.0
C      1  0.4962430000000  0.5478190000000  0.4741210000000 1.0
C      1  0.5316700000000  0.4722440000000  0.4492880000000 1.0
C      1  0.4325060000000  0.4612430000000  0.4940990000000 1.0
C      1  0.5252460000000  0.5730780000000  0.5266360000000 1.0
C      1  0.5243140000000  0.5333340000000  0.4037260000000 1.0
C      1  0.4449980000000  0.4207390000000  0.5528260000000 1.0
C      1  0.4702370000000  0.5627880000000  0.5124080000000 1.0
C      1  0.4441700000000  0.4395550000000  0.5075330000000 1.0
C      1  0.4556480000000  0.5154510000000  0.4499690000000 1.0
C      1  0.4723970000000  0.5611100000000  0.4836590000000 1.0
C      1  0.4547130000000  0.5475940000000  0.3831290000000 1.0
C      1  0.4709910000000  0.4124640000000  0.4709840000000 1.0
C      1  0.5213400000000  0.4520840000000  0.4349420000000 1.0
C      1  0.4592240000000  0.5010890000000  0.4736520000000 1.0
C      1  0.4425230000000  0.4004990000000  0.5690550000000 1.0
C      1  0.5558220000000  0.4407780000000  0.5383590000000 1.0
C      1  0.5490050000000  0.4655420000000  0.4942710000000 1.0
C      1  0.5004860000000  0.4755840000000  0.4856430000000 1.0
C      1  0.4526850000000  0.5171100000000  0.5354610000000 1.0
C      1  0.5491060000000  0.5294170000000  0.4122300000000 1.0
C      1  0.4846720000000  0.4997100000000  0.4860930000000 1.0
C      1  0.4563930000000  0.4196710000000  0.4920600000000 1.0
C      1  0.5580230000000  0.4494520000000  0.5133180000000 1.0
C      1  0.5352890000000  0.5791030000000  0.4780120000000 1.0
C      1  0.4703850000000  0.5369650000000  0.4028350000000 1.0
C      1  0.5494850000000  0.5335590000000  0.5478460000000 1.0
C      1  0.5176880000000  0.5636820000000  0.4645340000000 1.0
C      1  0.4984370000000  0.5627090000000  0.5213900000000 1.0
C      1  0.5298050000000  0.4804180000000  0.4778220000000 1.0
C      1  0.4536310000000  0.5427620000000  0.5255830000000 1.0
C      1  0.5375390000000  0.5600400000000  0.5497350000000 1.0
C      1  0.5386890000000  0.5838280000000  0.5043760000000 1.0
C      1  0.4873050000000  0.4167700000000  0.4503860000000 1.0
C      1  0.4589700000000  0.5265800000000  0.4261620000000 1.0
C      1  0.4483140000000  0.4423280000000  0.5355290000000 1.0
C      1  0.5206590000000  0.4885810000000  0.5589190000000 1.0
C      1  0.5048800000000  0.4311210000000  0.4364150000000 1.0
C      1  0.5305200000000  0.5106270000000  0.4831500000000 1.0
C      1  0.5199040000000  0.5610930000000  0.5723270000000 1.0
C      1  0.5030020000000  0.5333050000000  0.5207840000000 1.0
C      1  0.5722490000000  0.5247070000000  0.4242630000000 1.0
C      1  0.4989760000000  0.5437180000000  0.5702270000000 1.0
C      1  0.5254400000000  0.4643800000000  0.5727800000000 1.0
END
