TITL C-612605-9286-292 4.26230534329369e-05 125000 -442.917868091 0 0 73 (C1) n - 1
REM
REM in /home/nfs/bkarasulu/CARBON/AIRSS/Generating-Clusters/TERSOFF/Only-C1/FIRE-HFTN
REM
REM
REM
REM
REM
REM ./C.cell (11c1c37f851c82e70ff6c80c92926a4b)
REM AIRSS Version 0.9.1 bugfix July 2018 build 013d7b7c2542+ Fri, 06 Jul 2018 19:26:36 +0100
REM compiler GCC version 9.2.1 20190827 (Red Hat 9.2.1-1)
REM options -cpp -mtune=generic -march=x86-64 -g -O0 -fpre-include=/usr/include/finclude/math-vector-fortran.h
REM seed -1277060036 669322173 470768595 849996677 1161797434 -1231309800 1898168919 -2033052372 -1304644738 2009216334 -1652192815 445296454 2027400035 921068758 -484103966 -1843537730 -1328697269 792760949 897874751 -40979049 -324257651 2017626744 1375892163 1482398278 -89983510 -105162507 -1675178791 -59392018 1345761889 433124936 42285281 -439506884 -1380231252
REM
CELL 1.54180   50.00000   50.00000   50.00000   90.00000   90.00000   90.00000
LATT -1
SFAC C  
C      1  0.4962250000000  0.5032930000000  0.4745080000000 1.0
C      1  0.5187080000000  0.5248290000000  0.5118080000000 1.0
C      1  0.5699190000000  0.5514240000000  0.5034740000000 1.0
C      1  0.5258950000000  0.4431520000000  0.5805230000000 1.0
C      1  0.5153200000000  0.4292460000000  0.4407270000000 1.0
C      1  0.4621580000000  0.5658740000000  0.5095120000000 1.0
C      1  0.5292740000000  0.3978110000000  0.4842420000000 1.0
C      1  0.4432440000000  0.4551740000000  0.4945460000000 1.0
C      1  0.5112070000000  0.4674490000000  0.5871770000000 1.0
C      1  0.5134860000000  0.5713730000000  0.4854680000000 1.0
C      1  0.5442360000000  0.5143360000000  0.5180680000000 1.0
C      1  0.4385990000000  0.5699750000000  0.5249590000000 1.0
C      1  0.5202570000000  0.5180090000000  0.5802280000000 1.0
C      1  0.5311590000000  0.4576670000000  0.3752890000000 1.0
C      1  0.4908830000000  0.5222770000000  0.5825740000000 1.0
C      1  0.5238910000000  0.5589420000000  0.5513270000000 1.0
C      1  0.4874350000000  0.4748250000000  0.5716360000000 1.0
C      1  0.4312500000000  0.4959120000000  0.4650470000000 1.0
C      1  0.4592180000000  0.4079590000000  0.4534630000000 1.0
C      1  0.4944100000000  0.5519000000000  0.5451330000000 1.0
C      1  0.5216960000000  0.4693380000000  0.5062420000000 1.0
C      1  0.5537260000000  0.5363610000000  0.4548660000000 1.0
C      1  0.5204980000000  0.5441840000000  0.4912610000000 1.0
C      1  0.4653140000000  0.5405330000000  0.4950490000000 1.0
C      1  0.5188350000000  0.5008230000000  0.4560020000000 1.0
C      1  0.4860940000000  0.5733380000000  0.5241980000000 1.0
C      1  0.4360830000000  0.5649200000000  0.5515200000000 1.0
C      1  0.4528040000000  0.5551110000000  0.5704000000000 1.0
C      1  0.5355290000000  0.3892600000000  0.4591050000000 1.0
C      1  0.4768420000000  0.5000400000000  0.4128290000000 1.0
C      1  0.4020640000000  0.5225350000000  0.4945620000000 1.0
C      1  0.4438990000000  0.5019420000000  0.5113670000000 1.0
C      1  0.3809300000000  0.5371230000000  0.4989980000000 1.0
C      1  0.5643900000000  0.5367830000000  0.5682470000000 1.0
C      1  0.5333040000000  0.5769290000000  0.5296590000000 1.0
C      1  0.4514120000000  0.4746330000000  0.5131820000000 1.0
C      1  0.4541010000000  0.4535610000000  0.4681140000000 1.0
C      1  0.5104550000000  0.5830040000000  0.5116820000000 1.0
C      1  0.5792850000000  0.5299740000000  0.5467060000000 1.0
C      1  0.5300070000000  0.4901320000000  0.5789420000000 1.0
C      1  0.4490580000000  0.3855940000000  0.4447650000000 1.0
C      1  0.5317870000000  0.5229710000000  0.4429690000000 1.0
C      1  0.4972520000000  0.5167160000000  0.4075540000000 1.0
C      1  0.5248860000000  0.4757570000000  0.4449710000000 1.0
C      1  0.4967590000000  0.4813950000000  0.4954700000000 1.0
C      1  0.5406830000000  0.4773580000000  0.5543960000000 1.0
C      1  0.4791950000000  0.5451160000000  0.5698280000000 1.0
C      1  0.5408450000000  0.4336530000000  0.5319480000000 1.0
C      1  0.5280200000000  0.4413160000000  0.5069700000000 1.0
C      1  0.4999970000000  0.4308610000000  0.4654620000000 1.0
C      1  0.4661240000000  0.5203860000000  0.5159070000000 1.0
C      1  0.4615520000000  0.4845930000000  0.4285260000000 1.0
C      1  0.4925120000000  0.4749430000000  0.5431680000000 1.0
C      1  0.5689190000000  0.5281660000000  0.5204840000000 1.0
C      1  0.5206850000000  0.4789640000000  0.5340020000000 1.0
C      1  0.5429600000000  0.4473120000000  0.5572010000000 1.0
C      1  0.5196900000000  0.5279430000000  0.4177620000000 1.0
C      1  0.5678220000000  0.5468920000000  0.4754100000000 1.0
C      1  0.5289490000000  0.4044810000000  0.4374620000000 1.0
C      1  0.5586210000000  0.5742140000000  0.5167090000000 1.0
C      1  0.4991190000000  0.5730090000000  0.4612160000000 1.0
C      1  0.5165690000000  0.4231690000000  0.4883760000000 1.0
C      1  0.4786740000000  0.4744530000000  0.5181250000000 1.0
C      1  0.4714470000000  0.4315740000000  0.4625890000000 1.0
C      1  0.4755060000000  0.4982330000000  0.5823880000000 1.0
C      1  0.4250280000000  0.5074750000000  0.4902920000000 1.0
C      1  0.4795010000000  0.5295650000000  0.4718410000000 1.0
C      1  0.5363060000000  0.5399480000000  0.5695780000000 1.0
C      1  0.4935720000000  0.5260100000000  0.5273420000000 1.0
C      1  0.4853720000000  0.5506570000000  0.4532040000000 1.0
C      1  0.5227430000000  0.4533780000000  0.4283360000000 1.0
C      1  0.4483300000000  0.4769460000000  0.4521600000000 1.0
C      1  0.5274760000000  0.4550020000000  0.4009490000000 1.0
END
