TITL C-612607-4507-1387 1.67488694803497 125000 -695.649753712175 0 0 114 (C1) n - 1
REM
REM in /home/nfs/bkarasulu/CARBON/AIRSS/Generating-Clusters/TERSOFF/Only-C1/FIRE-HFTN
REM
REM
REM
REM
REM
REM ./C.cell (11c1c37f851c82e70ff6c80c92926a4b)
REM AIRSS Version 0.9.1 bugfix July 2018 build 013d7b7c2542+ Fri, 06 Jul 2018 19:26:36 +0100
REM compiler GCC version 9.2.1 20190827 (Red Hat 9.2.1-1)
REM options -cpp -mtune=generic -march=x86-64 -g -O0 -fpre-include=/usr/include/finclude/math-vector-fortran.h
REM seed -902001556 500111229 -773114595 1169114285 2076053953 -1810504430 559134756 -1567133120 -2116287415 26365221 -1539062356 -1986167539 2118809395 -1798956947 -2013593529 1349704417 -1682756796 -1217583955 -944612484 -1665401643 471165236 1701761500 -56103479 -840387312 1404846779 83091763 1155288688 929581905 -628310779 266278945 833570143 1652087584 1263029300
REM
CELL 1.54180   50.00000   50.00000   50.00000   90.00000   90.00000   90.00000
LATT -1
SFAC C  
C      1  0.5097070000000  0.4823040000000  0.4062070000000 1.0
C      1  0.4551070000000  0.5564360000000  0.4429180000000 1.0
C      1  0.5723000000000  0.5140140000000  0.5680020000000 1.0
C      1  0.4271150000000  0.4866880000000  0.4938770000000 1.0
C      1  0.5268340000000  0.5226760000000  0.6040500000000 1.0
C      1  0.4837990000000  0.5777360000000  0.5187670000000 1.0
C      1  0.4399180000000  0.5447840000000  0.4656130000000 1.0
C      1  0.4680700000000  0.4590650000000  0.5112070000000 1.0
C      1  0.5909810000000  0.5016660000000  0.5151390000000 1.0
C      1  0.5920900000000  0.5183020000000  0.4908660000000 1.0
C      1  0.4588860000000  0.5730470000000  0.5720120000000 1.0
C      1  0.4705030000000  0.4964870000000  0.4830550000000 1.0
C      1  0.5251430000000  0.5562780000000  0.4430080000000 1.0
C      1  0.5094740000000  0.4085510000000  0.5074370000000 1.0
C      1  0.5066380000000  0.4409360000000  0.5982960000000 1.0
C      1  0.5788790000000  0.5419780000000  0.4807980000000 1.0
C      1  0.4574660000000  0.5375910000000  0.4215140000000 1.0
C      1  0.3331250000000  0.4220720000000  0.3718140000000 1.0
C      1  0.5658400000000  0.4621880000000  0.4677060000000 1.0
C      1  0.4708070000000  0.4426260000000  0.5707480000000 1.0
C      1  0.4804310000000  0.4473440000000  0.4433840000000 1.0
C      1  0.4037970000000  0.5034630000000  0.5332580000000 1.0
C      1  0.4961530000000  0.4573350000000  0.5084180000000 1.0
C      1  0.4931230000000  0.4963410000000  0.5481280000000 1.0
C      1  0.4738130000000  0.4282940000000  0.5454900000000 1.0
C      1  0.4806630000000  0.4754050000000  0.4450830000000 1.0
C      1  0.4574350000000  0.4865380000000  0.4583800000000 1.0
C      1  0.5889480000000  0.4723150000000  0.5087550000000 1.0
C      1  0.4657010000000  0.5057990000000  0.5858900000000 1.0
C      1  0.4161860000000  0.4822480000000  0.3967750000000 1.0
C      1  0.4792690000000  0.5713410000000  0.4450360000000 1.0
C      1  0.5368410000000  0.4809610000000  0.5002190000000 1.0
C      1  0.3536450000000  0.4369360000000  0.3779480000000 1.0
C      1  0.5730660000000  0.5453760000000  0.5303920000000 1.0
C      1  0.5983840000000  0.5209170000000  0.4210660000000 1.0
C      1  0.5584010000000  0.4274860000000  0.4957450000000 1.0
C      1  0.5617980000000  0.5850200000000  0.4275910000000 1.0
C      1  0.4486890000000  0.5186750000000  0.5383370000000 1.0
C      1  0.4832590000000  0.4869120000000  0.5994850000000 1.0
C      1  0.4377600000000  0.4977590000000  0.4046860000000 1.0
C      1  0.3953660000000  0.4671590000000  0.3904210000000 1.0
C      1  0.4360710000000  0.5185740000000  0.4238670000000 1.0
C      1  0.5052590000000  0.5306920000000  0.4843790000000 1.0
C      1  0.5211150000000  0.4279110000000  0.5791970000000 1.0
C      1  0.5559900000000  0.5001370000000  0.4323590000000 1.0
C      1  0.4972880000000  0.3844450000000  0.4987180000000 1.0
C      1  0.4856310000000  0.5490090000000  0.5986950000000 1.0
C      1  0.5378420000000  0.4461080000000  0.5358770000000 1.0
C      1  0.4797460000000  0.5866410000000  0.4688650000000 1.0
C      1  0.4552660000000  0.4823000000000  0.5023050000000 1.0
C      1  0.5623840000000  0.4533740000000  0.4408350000000 1.0
C      1  0.4994270000000  0.5079700000000  0.5236910000000 1.0
C      1  0.4944090000000  0.5075850000000  0.4745580000000 1.0
C      1  0.5429110000000  0.5714210000000  0.5045670000000 1.0
C      1  0.4487720000000  0.5535090000000  0.4924280000000 1.0
C      1  0.4214040000000  0.5205080000000  0.5471450000000 1.0
C      1  0.4423370000000  0.5503940000000  0.5811860000000 1.0
C      1  0.5449320000000  0.5003500000000  0.5180630000000 1.0
C      1  0.5701340000000  0.5434370000000  0.4529100000000 1.0
C      1  0.4999980000000  0.5561120000000  0.4292220000000 1.0
C      1  0.5392020000000  0.4978810000000  0.5438970000000 1.0
C      1  0.4863860000000  0.5320890000000  0.4151250000000 1.0
C      1  0.4899070000000  0.5041810000000  0.4037020000000 1.0
C      1  0.4075420000000  0.4553420000000  0.5236540000000 1.0
C      1  0.5237570000000  0.4596370000000  0.5137280000000 1.0
C      1  0.5455030000000  0.4813610000000  0.4739850000000 1.0
C      1  0.5761910000000  0.4510630000000  0.4920150000000 1.0
C      1  0.5291920000000  0.5495230000000  0.5188450000000 1.0
C      1  0.5307800000000  0.4200840000000  0.4873770000000 1.0
C      1  0.5049940000000  0.4926450000000  0.4521600000000 1.0
C      1  0.5525980000000  0.5627750000000  0.4403380000000 1.0
C      1  0.4817650000000  0.5495530000000  0.5235490000000 1.0
C      1  0.5750090000000  0.5212890000000  0.4354650000000 1.0
C      1  0.5740290000000  0.4864780000000  0.5769450000000 1.0
C      1  0.4617490000000  0.5325180000000  0.5953210000000 1.0
C      1  0.4834330000000  0.4573920000000  0.5924510000000 1.0
C      1  0.4275840000000  0.4375800000000  0.5271810000000 1.0
C      1  0.4082940000000  0.4822840000000  0.5147760000000 1.0
C      1  0.5104790000000  0.4982570000000  0.6042560000000 1.0
C      1  0.4195840000000  0.5390940000000  0.5684720000000 1.0
C      1  0.5383150000000  0.6203390000000  0.5128810000000 1.0
C      1  0.5073090000000  0.5871580000000  0.5341600000000 1.0
C      1  0.4875210000000  0.5699130000000  0.5785010000000 1.0
C      1  0.5219830000000  0.4278820000000  0.5509040000000 1.0
C      1  0.4272880000000  0.5200710000000  0.4524940000000 1.0
C      1  0.5200850000000  0.5474850000000  0.4689460000000 1.0
C      1  0.5461750000000  0.5479660000000  0.5412310000000 1.0
C      1  0.5338930000000  0.4943300000000  0.4512220000000 1.0
C      1  0.4556490000000  0.4385230000000  0.5260560000000 1.0
C      1  0.5529240000000  0.4782300000000  0.5938170000000 1.0
C      1  0.5224920000000  0.4274530000000  0.4589770000000 1.0
C      1  0.4641550000000  0.4943080000000  0.3944480000000 1.0
C      1  0.5302340000000  0.5945980000000  0.5168300000000 1.0
C      1  0.4677590000000  0.5789260000000  0.4937100000000 1.0
C      1  0.3745090000000  0.4520500000000  0.3841840000000 1.0
C      1  0.5643260000000  0.4504120000000  0.5446480000000 1.0
C      1  0.4560600000000  0.5380080000000  0.5177720000000 1.0
C      1  0.5834990000000  0.5194120000000  0.5395570000000 1.0
C      1  0.5450600000000  0.5329040000000  0.5834700000000 1.0
C      1  0.5205570000000  0.4586030000000  0.4163030000000 1.0
C      1  0.5675720000000  0.4752510000000  0.4229720000000 1.0
C      1  0.4944400000000  0.4268800000000  0.4537500000000 1.0
C      1  0.5812270000000  0.4656840000000  0.5591360000000 1.0
C      1  0.5182160000000  0.4885120000000  0.5598930000000 1.0
C      1  0.4852860000000  0.3628680000000  0.4903910000000 1.0
C      1  0.5000940000000  0.4180340000000  0.5349560000000 1.0
C      1  0.5701450000000  0.5588580000000  0.5027740000000 1.0
C      1  0.5341780000000  0.5539630000000  0.5659520000000 1.0
C      1  0.5358910000000  0.4423650000000  0.4366390000000 1.0
C      1  0.5050100000000  0.5346210000000  0.5133180000000 1.0
C      1  0.4671870000000  0.5042290000000  0.5569920000000 1.0
C      1  0.4294520000000  0.4944040000000  0.4653570000000 1.0
C      1  0.5110360000000  0.5730380000000  0.5618330000000 1.0
C      1  0.5261660000000  0.4821690000000  0.5862960000000 1.0
END
