TITL C-612603-7354-1086 0.0952200634414948 125000 -442.71600648537 0 0 73 (C1) n - 1
REM
REM in /home/nfs/bkarasulu/CARBON/AIRSS/Generating-Clusters/TERSOFF/Only-C1/FIRE-HFTN
REM
REM
REM
REM
REM
REM ./C.cell (11c1c37f851c82e70ff6c80c92926a4b)
REM AIRSS Version 0.9.1 bugfix July 2018 build 013d7b7c2542+ Fri, 06 Jul 2018 19:26:36 +0100
REM compiler GCC version 9.2.1 20190827 (Red Hat 9.2.1-1)
REM options -cpp -mtune=generic -march=x86-64 -g -O0 -fpre-include=/usr/include/finclude/math-vector-fortran.h
REM seed -1120950624 -1806321372 -399733571 -392163210 2032773420 -149236576 -1702205454 -1678599181 -1024227068 -1352000601 1285631793 1661211676 436470144 1039663325 226101264 -1519851156 -2003139820 178594789 723794635 1470092221 266825300 -2037488595 -447699439 1344126710 1331106397 191773124 155601125 -494989361 1230586917 569188197 -2077154252 -1768677192 -1436704522
REM
CELL 1.54180   50.00000   50.00000   50.00000   90.00000   90.00000   90.00000
LATT -1
SFAC C  
C      1  0.5363500000000  0.5794900000000  0.5223130000000 1.0
C      1  0.4958480000000  0.5584750000000  0.4678810000000 1.0
C      1  0.4976760000000  0.5058110000000  0.4607410000000 1.0
C      1  0.4866630000000  0.5755900000000  0.5291950000000 1.0
C      1  0.6172190000000  0.4796020000000  0.5222440000000 1.0
C      1  0.4151440000000  0.4931020000000  0.4911820000000 1.0
C      1  0.5810110000000  0.4943040000000  0.5534520000000 1.0
C      1  0.4935530000000  0.5215490000000  0.5265800000000 1.0
C      1  0.4533680000000  0.4368680000000  0.4969000000000 1.0
C      1  0.5697280000000  0.6495500000000  0.5454030000000 1.0
C      1  0.5084060000000  0.4856420000000  0.4802510000000 1.0
C      1  0.5682790000000  0.4806940000000  0.5743690000000 1.0
C      1  0.4380090000000  0.4816770000000  0.4255390000000 1.0
C      1  0.4902900000000  0.4769470000000  0.5466540000000 1.0
C      1  0.4339090000000  0.4640570000000  0.4036340000000 1.0
C      1  0.4633320000000  0.4765610000000  0.4388350000000 1.0
C      1  0.5348680000000  0.4926960000000  0.4899280000000 1.0
C      1  0.5040000000000  0.5783630000000  0.4844590000000 1.0
C      1  0.4639130000000  0.5626720000000  0.5353680000000 1.0
C      1  0.5204160000000  0.5353920000000  0.5814830000000 1.0
C      1  0.4661820000000  0.4483620000000  0.4454780000000 1.0
C      1  0.4468010000000  0.4401260000000  0.4024200000000 1.0
C      1  0.4381450000000  0.5082440000000  0.4998350000000 1.0
C      1  0.4071460000000  0.4955230000000  0.4645610000000 1.0
C      1  0.3878990000000  0.4540680000000  0.5068530000000 1.0
C      1  0.4647490000000  0.4309100000000  0.4224850000000 1.0
C      1  0.4545510000000  0.4533160000000  0.5200230000000 1.0
C      1  0.4627680000000  0.4981390000000  0.4905950000000 1.0
C      1  0.5327030000000  0.5192940000000  0.5009820000000 1.0
C      1  0.4941500000000  0.3855000000000  0.4185540000000 1.0
C      1  0.4960820000000  0.4592460000000  0.5681250000000 1.0
C      1  0.5522100000000  0.5555090000000  0.5246320000000 1.0
C      1  0.5021790000000  0.5175630000000  0.5734030000000 1.0
C      1  0.5756620000000  0.5302680000000  0.4860540000000 1.0
C      1  0.4797330000000  0.4076720000000  0.4201180000000 1.0
C      1  0.4556300000000  0.4275070000000  0.5856140000000 1.0
C      1  0.4343040000000  0.4926410000000  0.5434320000000 1.0
C      1  0.4853090000000  0.4813520000000  0.4976120000000 1.0
C      1  0.5714240000000  0.4696740000000  0.5124840000000 1.0
C      1  0.5098690000000  0.5313440000000  0.3399450000000 1.0
C      1  0.4171480000000  0.4934430000000  0.4398790000000 1.0
C      1  0.5083410000000  0.3636810000000  0.4170780000000 1.0
C      1  0.4842530000000  0.4961550000000  0.4376970000000 1.0
C      1  0.5816430000000  0.5031220000000  0.4793980000000 1.0
C      1  0.5588000000000  0.6267120000000  0.5375570000000 1.0
C      1  0.5619310000000  0.4839470000000  0.4898220000000 1.0
C      1  0.4380280000000  0.5165090000000  0.5276750000000 1.0
C      1  0.4981970000000  0.5144760000000  0.3883540000000 1.0
C      1  0.5092380000000  0.5795850000000  0.5124400000000 1.0
C      1  0.5804760000000  0.6720130000000  0.5531210000000 1.0
C      1  0.3674970000000  0.4380070000000  0.5046480000000 1.0
C      1  0.5540970000000  0.5374640000000  0.5027510000000 1.0
C      1  0.4960630000000  0.5312680000000  0.4750030000000 1.0
C      1  0.4605900000000  0.4379420000000  0.4710430000000 1.0
C      1  0.4762730000000  0.4423740000000  0.5782170000000 1.0
C      1  0.5597140000000  0.5442010000000  0.5500260000000 1.0
C      1  0.5478660000000  0.6038770000000  0.5297820000000 1.0
C      1  0.4309060000000  0.4678920000000  0.5286040000000 1.0
C      1  0.4345760000000  0.4133890000000  0.5916980000000 1.0
C      1  0.4099830000000  0.4707400000000  0.5085700000000 1.0
C      1  0.5466980000000  0.4675690000000  0.5826260000000 1.0
C      1  0.5058510000000  0.5276670000000  0.5023150000000 1.0
C      1  0.5216330000000  0.4594110000000  0.5794960000000 1.0
C      1  0.5905520000000  0.4787590000000  0.5316300000000 1.0
C      1  0.4798160000000  0.4673930000000  0.5219780000000 1.0
C      1  0.4466040000000  0.5421200000000  0.5352570000000 1.0
C      1  0.6086820000000  0.4951730000000  0.4773140000000 1.0
C      1  0.6248120000000  0.4861430000000  0.4970830000000 1.0
C      1  0.5040840000000  0.5229810000000  0.3639500000000 1.0
C      1  0.4920750000000  0.5058530000000  0.4126350000000 1.0
C      1  0.5776280000000  0.5222680000000  0.5511870000000 1.0
C      1  0.4940860000000  0.5051820000000  0.5495640000000 1.0
C      1  0.5423800000000  0.5473840000000  0.5719860000000 1.0
END
