TITL C-612607-4507-1287 0.0100067801084091 125000 -794.297517414987 0 0 129 (C1) n - 1
REM
REM in /home/nfs/bkarasulu/CARBON/AIRSS/Generating-Clusters/TERSOFF/Only-C1/FIRE-HFTN
REM
REM
REM
REM
REM
REM ./C.cell (11c1c37f851c82e70ff6c80c92926a4b)
REM AIRSS Version 0.9.1 bugfix July 2018 build 013d7b7c2542+ Fri, 06 Jul 2018 19:26:36 +0100
REM compiler GCC version 9.2.1 20190827 (Red Hat 9.2.1-1)
REM options -cpp -mtune=generic -march=x86-64 -g -O0 -fpre-include=/usr/include/finclude/math-vector-fortran.h
REM seed -1495183516 -1402974934 1175252391 1798084646 -352164338 -682276919 688845124 -1868499127 -280432332 -1036710406 -1831376576 822118516 1089306679 800503398 1896884215 1278530739 -1012726544 -548301628 261582196 -426747391 -2127584510 411647161 184821855 -1579092102 315252743 -374416478 -240333250 1307116901 694131150 -1683835678 319425383 985392278 -525551114
REM
CELL 1.54180   50.00000   50.00000   50.00000   90.00000   90.00000   90.00000
LATT -1
SFAC C  
C      1  0.4436650000000  0.5824580000000  0.4569540000000 1.0
C      1  0.5215070000000  0.5668820000000  0.4995160000000 1.0
C      1  0.5268350000000  0.4623030000000  0.5339870000000 1.0
C      1  0.4761610000000  0.4721120000000  0.4342590000000 1.0
C      1  0.5468380000000  0.5000280000000  0.4926250000000 1.0
C      1  0.4328830000000  0.4651540000000  0.4546550000000 1.0
C      1  0.5508570000000  0.4847360000000  0.5676560000000 1.0
C      1  0.6037890000000  0.5053860000000  0.5331040000000 1.0
C      1  0.4713960000000  0.5445690000000  0.4732160000000 1.0
C      1  0.4637890000000  0.4960700000000  0.5523590000000 1.0
C      1  0.4188780000000  0.5674680000000  0.4591410000000 1.0
C      1  0.4928660000000  0.5004200000000  0.4831550000000 1.0
C      1  0.5709190000000  0.5377830000000  0.4760640000000 1.0
C      1  0.5324140000000  0.5039930000000  0.3882240000000 1.0
C      1  0.5000750000000  0.4101190000000  0.4665880000000 1.0
C      1  0.4529520000000  0.4179150000000  0.5422530000000 1.0
C      1  0.4479810000000  0.5106030000000  0.4451280000000 1.0
C      1  0.5225520000000  0.5925890000000  0.5064540000000 1.0
C      1  0.4637630000000  0.4727920000000  0.5110290000000 1.0
C      1  0.4431800000000  0.4859080000000  0.5689520000000 1.0
C      1  0.4825530000000  0.5364670000000  0.5752290000000 1.0
C      1  0.4865850000000  0.5694220000000  0.4760700000000 1.0
C      1  0.5030070000000  0.4222450000000  0.4918500000000 1.0
C      1  0.5013350000000  0.4670400000000  0.5452890000000 1.0
C      1  0.5815120000000  0.5721380000000  0.5040580000000 1.0
C      1  0.4770160000000  0.5904000000000  0.4930300000000 1.0
C      1  0.4608910000000  0.4686680000000  0.4598850000000 1.0
C      1  0.4182350000000  0.4549220000000  0.4315760000000 1.0
C      1  0.4484510000000  0.4609010000000  0.5833380000000 1.0
C      1  0.5367120000000  0.4374830000000  0.5256300000000 1.0
C      1  0.4628300000000  0.5591790000000  0.5768800000000 1.0
C      1  0.4737150000000  0.4481380000000  0.5787660000000 1.0
C      1  0.5529090000000  0.5940920000000  0.5446650000000 1.0
C      1  0.4718130000000  0.4226940000000  0.5638920000000 1.0
C      1  0.5417310000000  0.4280060000000  0.4446250000000 1.0
C      1  0.4120100000000  0.4427620000000  0.5578800000000 1.0
C      1  0.5671880000000  0.5678760000000  0.4777810000000 1.0
C      1  0.5377320000000  0.5344550000000  0.5297640000000 1.0
C      1  0.5077660000000  0.4030540000000  0.5380500000000 1.0
C      1  0.5079210000000  0.3987470000000  0.5876110000000 1.0
C      1  0.4260090000000  0.5576870000000  0.5075220000000 1.0
C      1  0.4858170000000  0.5115230000000  0.5937280000000 1.0
C      1  0.5249460000000  0.5933370000000  0.5519330000000 1.0
C      1  0.4535970000000  0.5778870000000  0.5596510000000 1.0
C      1  0.4642390000000  0.4104430000000  0.5161390000000 1.0
C      1  0.4786690000000  0.4733240000000  0.4855710000000 1.0
C      1  0.5785980000000  0.5401420000000  0.5545040000000 1.0
C      1  0.5143470000000  0.5066030000000  0.4346430000000 1.0
C      1  0.4717200000000  0.5311820000000  0.5218080000000 1.0
C      1  0.5213070000000  0.5891870000000  0.4481130000000 1.0
C      1  0.5049490000000  0.4904100000000  0.5876750000000 1.0
C      1  0.4257880000000  0.4433980000000  0.5831040000000 1.0
C      1  0.5108060000000  0.5478590000000  0.5766130000000 1.0
C      1  0.5611800000000  0.4901810000000  0.5156280000000 1.0
C      1  0.4372040000000  0.5147240000000  0.4924790000000 1.0
C      1  0.4950120000000  0.5226250000000  0.5036630000000 1.0
C      1  0.5508450000000  0.5359030000000  0.5543570000000 1.0
C      1  0.5631700000000  0.4796080000000  0.4164640000000 1.0
C      1  0.5348950000000  0.4118480000000  0.5367790000000 1.0
C      1  0.4732320000000  0.5227230000000  0.5492650000000 1.0
C      1  0.4805580000000  0.5960620000000  0.5219040000000 1.0
C      1  0.5388110000000  0.5419750000000  0.4100580000000 1.0
C      1  0.5118170000000  0.4964820000000  0.4615400000000 1.0
C      1  0.5125060000000  0.5454640000000  0.3662700000000 1.0
C      1  0.5188060000000  0.4902760000000  0.4107060000000 1.0
C      1  0.4924160000000  0.4083390000000  0.5144030000000 1.0
C      1  0.4936580000000  0.5800000000000  0.4500040000000 1.0
C      1  0.5657490000000  0.4389090000000  0.5883790000000 1.0
C      1  0.4966590000000  0.4656700000000  0.5742980000000 1.0
C      1  0.5983640000000  0.5334700000000  0.5353860000000 1.0
C      1  0.4725910000000  0.5260810000000  0.4115640000000 1.0
C      1  0.5076400000000  0.5996330000000  0.5298090000000 1.0
C      1  0.5329850000000  0.5294570000000  0.5754240000000 1.0
C      1  0.4158690000000  0.4895240000000  0.5611740000000 1.0
C      1  0.5249570000000  0.5332460000000  0.4336330000000 1.0
C      1  0.3740120000000  0.4707970000000  0.5426500000000 1.0
C      1  0.5616800000000  0.5021280000000  0.3979890000000 1.0
C      1  0.5223110000000  0.4442170000000  0.4290430000000 1.0
C      1  0.5545060000000  0.4137590000000  0.5828400000000 1.0
C      1  0.5898360000000  0.4477790000000  0.4690820000000 1.0
C      1  0.4515840000000  0.5239970000000  0.4691600000000 1.0
C      1  0.5352130000000  0.4666380000000  0.4159240000000 1.0
C      1  0.4537420000000  0.4185190000000  0.4647120000000 1.0
C      1  0.5475040000000  0.4811580000000  0.5391130000000 1.0
C      1  0.4945750000000  0.4053620000000  0.5637310000000 1.0
C      1  0.5256650000000  0.5320540000000  0.3856480000000 1.0
C      1  0.5415470000000  0.5718540000000  0.4601940000000 1.0
C      1  0.5325650000000  0.4035940000000  0.5975020000000 1.0
C      1  0.5898730000000  0.4907720000000  0.5128960000000 1.0
C      1  0.3916260000000  0.4629700000000  0.4326040000000 1.0
C      1  0.5348100000000  0.4843270000000  0.4725890000000 1.0
C      1  0.4800290000000  0.4234080000000  0.4506640000000 1.0
C      1  0.3875920000000  0.4781630000000  0.4554800000000 1.0
C      1  0.4361520000000  0.4684940000000  0.5080680000000 1.0
C      1  0.5279390000000  0.6126430000000  0.4357390000000 1.0
C      1  0.5428110000000  0.5283260000000  0.4822690000000 1.0
C      1  0.5953710000000  0.4778630000000  0.4637070000000 1.0
C      1  0.5306770000000  0.5440500000000  0.4585200000000 1.0
C      1  0.4233600000000  0.4897690000000  0.4939580000000 1.0
C      1  0.4550140000000  0.5889420000000  0.5338070000000 1.0
C      1  0.4770890000000  0.4777760000000  0.5347690000000 1.0
C      1  0.5544650000000  0.4049400000000  0.5558020000000 1.0
C      1  0.4367530000000  0.5838230000000  0.5111960000000 1.0
C      1  0.5614620000000  0.4414200000000  0.4612280000000 1.0
C      1  0.4988430000000  0.4505310000000  0.4900390000000 1.0
C      1  0.4271440000000  0.4307590000000  0.5370730000000 1.0
C      1  0.5953250000000  0.5278040000000  0.4865970000000 1.0
C      1  0.4122250000000  0.4802100000000  0.4701250000000 1.0
C      1  0.3989210000000  0.4679550000000  0.5531260000000 1.0
C      1  0.4297070000000  0.4405340000000  0.5093100000000 1.0
C      1  0.5712390000000  0.5878070000000  0.5256220000000 1.0
C      1  0.5656180000000  0.5296380000000  0.4073820000000 1.0
C      1  0.5519820000000  0.4688350000000  0.4587160000000 1.0
C      1  0.4670910000000  0.5756380000000  0.4364980000000 1.0
C      1  0.4669540000000  0.5006850000000  0.4255380000000 1.0
C      1  0.5984250000000  0.4980210000000  0.4855640000000 1.0
C      1  0.5983500000000  0.5469990000000  0.5097180000000 1.0
C      1  0.5736850000000  0.4820210000000  0.4434280000000 1.0
C      1  0.4483210000000  0.4221620000000  0.4937410000000 1.0
C      1  0.5158750000000  0.5752870000000  0.5715690000000 1.0
C      1  0.4922690000000  0.4458060000000  0.4337890000000 1.0
C      1  0.4102550000000  0.5568290000000  0.4830850000000 1.0
C      1  0.4435270000000  0.5346430000000  0.5121860000000 1.0
C      1  0.5311290000000  0.5012220000000  0.5807810000000 1.0
C      1  0.4342620000000  0.4053340000000  0.4500600000000 1.0
C      1  0.5227670000000  0.5379290000000  0.5045410000000 1.0
C      1  0.4491780000000  0.5929850000000  0.4852370000000 1.0
C      1  0.5646940000000  0.4649200000000  0.5820750000000 1.0
C      1  0.4675240000000  0.5527500000000  0.4179380000000 1.0
END
