TITL C-612604-1799-1241 60408.6022469969 125000 -423.228762304302 0 0 70 (C1) n - 1
REM
REM in /home/nfs/bkarasulu/CARBON/AIRSS/Generating-Clusters/TERSOFF/Only-C1/FIRE-HFTN
REM
REM
REM
REM
REM
REM ./C.cell (11c1c37f851c82e70ff6c80c92926a4b)
REM AIRSS Version 0.9.1 bugfix July 2018 build 013d7b7c2542+ Fri, 06 Jul 2018 19:26:36 +0100
REM compiler GCC version 9.2.1 20190827 (Red Hat 9.2.1-1)
REM options -cpp -mtune=generic -march=x86-64 -g -O0 -fpre-include=/usr/include/finclude/math-vector-fortran.h
REM seed 176749253 -1073890919 -10753055 1445341093 46276351 579266230 1717052296 -1053596537 856109451 1906192719 -941261543 753121065 -389641756 693516187 1028309920 -132559512 1266876241 1118693227 512242154 1790555760 -42942894 1339576762 936052738 -1215171302 2097477809 1748842773 -1846237607 838090041 1802256551 -2045747848 1383120906 1946684754 26435423
REM
CELL 1.54180   50.00000   50.00000   50.00000   90.00000   90.00000   90.00000
LATT -1
SFAC C  
C      1  0.4788250000000  0.5965850000000  0.4774240000000 1.0
C      1  0.4470830000000  0.3651540000000  0.5407220000000 1.0
C      1  0.4671070000000  0.5705420000000  0.4717270000000 1.0
C      1  0.4863190000000  0.3944810000000  0.5491990000000 1.0
C      1  0.5138270000000  0.4888920000000  0.4671530000000 1.0
C      1  0.4250020000000  0.3917600000000  0.4457910000000 1.0
C      1  0.6126260000000  0.4929120000000  0.4796130000000 1.0
C      1  0.4578590000000  0.5569120000000  0.4947950000000 1.0
C      1  0.5178850000000  0.5458480000000  0.5078120000000 1.0
C      1  0.4346360000000  0.3697600000000  0.5175440000000 1.0
C      1  0.4492940000000  0.4056030000000  0.4430350000000 1.0
C      1  0.4685300000000  0.3750170000000  0.5532850000000 1.0
C      1  0.4884800000000  0.5037320000000  0.4609490000000 1.0
C      1  0.5181180000000  0.5407770000000  0.4550160000000 1.0
C      1  0.5034230000000  0.6040440000000  0.4649820000000 1.0
C      1  0.5280870000000  0.5959310000000  0.4774090000000 1.0
C      1  0.5343200000000  0.5675850000000  0.5476350000000 1.0
C      1  0.5256800000000  0.5397240000000  0.4818110000000 1.0
C      1  0.5471880000000  0.5449760000000  0.5592720000000 1.0
C      1  0.4850490000000  0.4165090000000  0.5066060000000 1.0
C      1  0.4906370000000  0.4590880000000  0.5584460000000 1.0
C      1  0.4368800000000  0.3846890000000  0.4939730000000 1.0
C      1  0.5690140000000  0.5132790000000  0.4868840000000 1.0
C      1  0.4183980000000  0.3817720000000  0.4725000000000 1.0
C      1  0.4929910000000  0.6296420000000  0.5625140000000 1.0
C      1  0.5339250000000  0.4394500000000  0.5465930000000 1.0
C      1  0.5565370000000  0.4535020000000  0.5458810000000 1.0
C      1  0.4904540000000  0.4254990000000  0.4722490000000 1.0
C      1  0.5858820000000  0.4940170000000  0.4741240000000 1.0
C      1  0.5670490000000  0.5649540000000  0.4709600000000 1.0
C      1  0.4653570000000  0.6659640000000  0.5885840000000 1.0
C      1  0.5478010000000  0.5036260000000  0.5042810000000 1.0
C      1  0.4589930000000  0.4017250000000  0.4905790000000 1.0
C      1  0.5059390000000  0.4385520000000  0.5456500000000 1.0
C      1  0.5671200000000  0.5487390000000  0.5777180000000 1.0
C      1  0.5239830000000  0.4648530000000  0.4563730000000 1.0
C      1  0.3817760000000  0.3749890000000  0.4295220000000 1.0
C      1  0.4949290000000  0.5315240000000  0.5167900000000 1.0
C      1  0.5250040000000  0.5929750000000  0.5062900000000 1.0
C      1  0.4930030000000  0.4165610000000  0.5330790000000 1.0
C      1  0.4057410000000  0.3872540000000  0.4254780000000 1.0
C      1  0.4911220000000  0.5307480000000  0.4511770000000 1.0
C      1  0.5026050000000  0.4835600000000  0.5654290000000 1.0
C      1  0.5299560000000  0.5680390000000  0.5195900000000 1.0
C      1  0.5445890000000  0.5790940000000  0.4606430000000 1.0
C      1  0.3753150000000  0.3660270000000  0.4544230000000 1.0
C      1  0.5508840000000  0.4648740000000  0.4486730000000 1.0
C      1  0.5214900000000  0.5893640000000  0.5604870000000 1.0
C      1  0.4788200000000  0.6070620000000  0.5042860000000 1.0
C      1  0.4745150000000  0.5550930000000  0.4479380000000 1.0
C      1  0.3929120000000  0.3693590000000  0.4749250000000 1.0
C      1  0.4951390000000  0.5045570000000  0.5072210000000 1.0
C      1  0.4835790000000  0.5702110000000  0.4251360000000 1.0
C      1  0.4641220000000  0.4550250000000  0.5640640000000 1.0
C      1  0.5105710000000  0.5742230000000  0.4219260000000 1.0
C      1  0.5095600000000  0.4414040000000  0.4610570000000 1.0
C      1  0.5182840000000  0.5050910000000  0.5643580000000 1.0
C      1  0.4747900000000  0.5001800000000  0.4864930000000 1.0
C      1  0.5735800000000  0.5407830000000  0.4811140000000 1.0
C      1  0.4670260000000  0.4117250000000  0.4634830000000 1.0
C      1  0.5738640000000  0.4761170000000  0.4561980000000 1.0
C      1  0.4700920000000  0.5449640000000  0.5156770000000 1.0
C      1  0.5653770000000  0.4783030000000  0.5412630000000 1.0
C      1  0.4793240000000  0.6481010000000  0.5757200000000 1.0
C      1  0.5213930000000  0.4955910000000  0.4952390000000 1.0
C      1  0.5054300000000  0.6094610000000  0.5480310000000 1.0
C      1  0.5285320000000  0.5639320000000  0.4414490000000 1.0
C      1  0.5535290000000  0.5022540000000  0.5323240000000 1.0
C      1  0.5029980000000  0.6071680000000  0.5195790000000 1.0
C      1  0.5398520000000  0.5182910000000  0.5518490000000 1.0
END
