TITL C-612602-9376-1032 2395.67319277549 125000 -826.628376551215 0 0 135 (C1) n - 1
REM
REM in /home/nfs/bkarasulu/CARBON/AIRSS/Generating-Clusters/TERSOFF/Only-C1/FIRE-HFTN
REM
REM
REM
REM
REM
REM ./C.cell (11c1c37f851c82e70ff6c80c92926a4b)
REM AIRSS Version 0.9.1 bugfix July 2018 build 013d7b7c2542+ Fri, 06 Jul 2018 19:26:36 +0100
REM compiler GCC version 9.2.1 20190827 (Red Hat 9.2.1-1)
REM options -cpp -mtune=generic -march=x86-64 -g -O0 -fpre-include=/usr/include/finclude/math-vector-fortran.h
REM seed -1839550811 1026855781 -1911658182 -88518092 -1261290548 2066197384 1671248380 -2135896904 361188288 227925001 81565525 -1170667840 1924412117 721815524 -1273023319 648335309 -867726329 1299600494 441690227 -493035521 -606098042 -179532708 1810698163 -861078635 2090551463 1952580879 1746314192 -686295066 -1684925092 -2113975064 -1519609559 736155173 -1840596091
REM
CELL 1.54180   50.00000   50.00000   50.00000   90.00000   90.00000   90.00000
LATT -1
SFAC C  
C      1  0.4510630000000  0.5469300000000  0.4067490000000 1.0
C      1  0.5122460000000  0.5831280000000  0.4196270000000 1.0
C      1  0.5999450000000  0.4562900000000  0.4839170000000 1.0
C      1  0.5624930000000  0.4730670000000  0.6353920000000 1.0
C      1  0.4854510000000  0.5112690000000  0.4176240000000 1.0
C      1  0.3999060000000  0.4919980000000  0.5433940000000 1.0
C      1  0.4675640000000  0.5501940000000  0.4519330000000 1.0
C      1  0.3791430000000  0.4908930000000  0.4999670000000 1.0
C      1  0.5843450000000  0.4943990000000  0.4636430000000 1.0
C      1  0.5236130000000  0.5333670000000  0.4437960000000 1.0
C      1  0.4817610000000  0.5008950000000  0.3912790000000 1.0
C      1  0.4565020000000  0.6028040000000  0.4828520000000 1.0
C      1  0.6038360000000  0.5044300000000  0.4843640000000 1.0
C      1  0.5827030000000  0.4651560000000  0.4622260000000 1.0
C      1  0.4682870000000  0.5629870000000  0.5635870000000 1.0
C      1  0.5424980000000  0.4844490000000  0.4962650000000 1.0
C      1  0.4001190000000  0.5201140000000  0.5381760000000 1.0
C      1  0.3872800000000  0.4757380000000  0.5226480000000 1.0
C      1  0.5674750000000  0.5862260000000  0.5337690000000 1.0
C      1  0.5017710000000  0.5038330000000  0.3728080000000 1.0
C      1  0.4408480000000  0.5599850000000  0.5539040000000 1.0
C      1  0.6127080000000  0.4794070000000  0.4969020000000 1.0
C      1  0.4260930000000  0.4294550000000  0.4750660000000 1.0
C      1  0.4368710000000  0.5519140000000  0.5260420000000 1.0
C      1  0.5419800000000  0.4566100000000  0.4985320000000 1.0
C      1  0.4949600000000  0.4675930000000  0.4431190000000 1.0
C      1  0.4584110000000  0.4880600000000  0.3849340000000 1.0
C      1  0.5302020000000  0.5792930000000  0.5690210000000 1.0
C      1  0.5937860000000  0.5432980000000  0.5196010000000 1.0
C      1  0.4701960000000  0.4315350000000  0.5411110000000 1.0
C      1  0.4308930000000  0.5364960000000  0.5953380000000 1.0
C      1  0.4435410000000  0.4841120000000  0.5092110000000 1.0
C      1  0.5642180000000  0.4533430000000  0.4196880000000 1.0
C      1  0.4728600000000  0.4331840000000  0.4700760000000 1.0
C      1  0.4142760000000  0.4465620000000  0.4954010000000 1.0
C      1  0.4742490000000  0.5078130000000  0.6041180000000 1.0
C      1  0.5402670000000  0.4056340000000  0.5628880000000 1.0
C      1  0.5225350000000  0.5031190000000  0.6179460000000 1.0
C      1  0.4153630000000  0.5346260000000  0.5188770000000 1.0
C      1  0.5835110000000  0.5268260000000  0.5408950000000 1.0
C      1  0.4567240000000  0.4457880000000  0.5625970000000 1.0
C      1  0.4476950000000  0.5718740000000  0.4453400000000 1.0
C      1  0.4460290000000  0.4924060000000  0.5357840000000 1.0
C      1  0.4970090000000  0.4435750000000  0.5900170000000 1.0
C      1  0.5725930000000  0.5196330000000  0.3936890000000 1.0
C      1  0.4103810000000  0.4380860000000  0.5432380000000 1.0
C      1  0.5792890000000  0.5927580000000  0.4508230000000 1.0
C      1  0.5820370000000  0.4573370000000  0.6424810000000 1.0
C      1  0.5919680000000  0.5674570000000  0.4495350000000 1.0
C      1  0.6140980000000  0.4775930000000  0.5249940000000 1.0
C      1  0.3889780000000  0.5124720000000  0.4841870000000 1.0
C      1  0.4607430000000  0.4384300000000  0.4424190000000 1.0
C      1  0.5208970000000  0.4419490000000  0.4824520000000 1.0
C      1  0.5022460000000  0.5507500000000  0.4910820000000 1.0
C      1  0.5078880000000  0.4257430000000  0.5063790000000 1.0
C      1  0.4761330000000  0.5527510000000  0.5895520000000 1.0
C      1  0.5259950000000  0.4169540000000  0.4373980000000 1.0
C      1  0.4140100000000  0.5249350000000  0.4918000000000 1.0
C      1  0.4360670000000  0.5656580000000  0.4200150000000 1.0
C      1  0.5625930000000  0.4403420000000  0.5090510000000 1.0
C      1  0.4591780000000  0.4072820000000  0.5316220000000 1.0
C      1  0.5721040000000  0.4934570000000  0.3888200000000 1.0
C      1  0.5525690000000  0.5400630000000  0.5817360000000 1.0
C      1  0.4947700000000  0.4573320000000  0.4726120000000 1.0
C      1  0.5425250000000  0.4885880000000  0.6274710000000 1.0
C      1  0.5083740000000  0.4840980000000  0.5396680000000 1.0
C      1  0.4888610000000  0.4807540000000  0.4923600000000 1.0
C      1  0.4902370000000  0.4423530000000  0.5233610000000 1.0
C      1  0.5880480000000  0.4369810000000  0.5006950000000 1.0
C      1  0.5230230000000  0.5430640000000  0.5045050000000 1.0
C      1  0.5378430000000  0.4351350000000  0.4566950000000 1.0
C      1  0.5862430000000  0.5706110000000  0.5225450000000 1.0
C      1  0.3750900000000  0.5215020000000  0.4617780000000 1.0
C      1  0.4621830000000  0.5849250000000  0.5019890000000 1.0
C      1  0.5844800000000  0.4615580000000  0.5612560000000 1.0
C      1  0.4479080000000  0.5965880000000  0.4582160000000 1.0
C      1  0.4322210000000  0.4742780000000  0.4612610000000 1.0
C      1  0.5886490000000  0.5494220000000  0.4714590000000 1.0
C      1  0.5191540000000  0.4024960000000  0.5172760000000 1.0
C      1  0.5739410000000  0.5355490000000  0.5660290000000 1.0
C      1  0.4287020000000  0.4710420000000  0.4897740000000 1.0
C      1  0.4227960000000  0.5518110000000  0.5743400000000 1.0
C      1  0.4868440000000  0.5541070000000  0.5443980000000 1.0
C      1  0.5909110000000  0.4797180000000  0.5410800000000 1.0
C      1  0.5692610000000  0.4433630000000  0.5734390000000 1.0
C      1  0.4885820000000  0.5075050000000  0.4809600000000 1.0
C      1  0.5040800000000  0.4262500000000  0.4217750000000 1.0
C      1  0.5420440000000  0.5398310000000  0.4251120000000 1.0
C      1  0.3550400000000  0.5500330000000  0.3909620000000 1.0
C      1  0.5675890000000  0.5395620000000  0.4126750000000 1.0
C      1  0.5554730000000  0.6020360000000  0.4424200000000 1.0
C      1  0.4667370000000  0.5361250000000  0.4799510000000 1.0
C      1  0.5887430000000  0.5546830000000  0.4240770000000 1.0
C      1  0.3602930000000  0.5405160000000  0.4146570000000 1.0
C      1  0.4557530000000  0.5579020000000  0.5053650000000 1.0
C      1  0.5319150000000  0.5976050000000  0.4305210000000 1.0
C      1  0.5115960000000  0.5097030000000  0.4596430000000 1.0
C      1  0.4934770000000  0.4706570000000  0.5195450000000 1.0
C      1  0.5465010000000  0.5894890000000  0.5501670000000 1.0
C      1  0.4969320000000  0.5617140000000  0.4148160000000 1.0
C      1  0.5284200000000  0.5549830000000  0.5835680000000 1.0
C      1  0.5312320000000  0.5222290000000  0.5217100000000 1.0
C      1  0.3663940000000  0.5308530000000  0.4385720000000 1.0
C      1  0.5739670000000  0.5011750000000  0.5332460000000 1.0
C      1  0.5215520000000  0.4480740000000  0.5770420000000 1.0
C      1  0.5369210000000  0.4975490000000  0.4714360000000 1.0
C      1  0.4768790000000  0.5398580000000  0.4226700000000 1.0
C      1  0.5311080000000  0.3950590000000  0.5400600000000 1.0
C      1  0.4366730000000  0.5011580000000  0.4551350000000 1.0
C      1  0.4874660000000  0.5263370000000  0.5411540000000 1.0
C      1  0.4582020000000  0.5316470000000  0.6001840000000 1.0
C      1  0.4341480000000  0.4467970000000  0.4506570000000 1.0
C      1  0.5440620000000  0.4309050000000  0.5745840000000 1.0
C      1  0.4294030000000  0.4537960000000  0.5577450000000 1.0
C      1  0.6008790000000  0.5331340000000  0.4927430000000 1.0
C      1  0.4537710000000  0.4015580000000  0.5058970000000 1.0
C      1  0.5606950000000  0.5095610000000  0.4619280000000 1.0
C      1  0.5683180000000  0.4689780000000  0.3985590000000 1.0
C      1  0.5213100000000  0.4703690000000  0.5600150000000 1.0
C      1  0.4718260000000  0.4559270000000  0.5850470000000 1.0
C      1  0.4641730000000  0.5113570000000  0.5437780000000 1.0
C      1  0.5106310000000  0.5119770000000  0.5377080000000 1.0
C      1  0.4843270000000  0.4456020000000  0.4273760000000 1.0
C      1  0.5354880000000  0.3914410000000  0.4347290000000 1.0
C      1  0.3988980000000  0.4489480000000  0.5192250000000 1.0
C      1  0.5042420000000  0.5442790000000  0.5944950000000 1.0
C      1  0.5620630000000  0.4503460000000  0.4478510000000 1.0
C      1  0.5634270000000  0.5367100000000  0.4677720000000 1.0
C      1  0.4254530000000  0.4817420000000  0.5522260000000 1.0
C      1  0.4675200000000  0.4812560000000  0.5973740000000 1.0
C      1  0.4981570000000  0.4947540000000  0.4371850000000 1.0
C      1  0.5508850000000  0.5020670000000  0.5168310000000 1.0
C      1  0.4378120000000  0.5211300000000  0.4756430000000 1.0
C      1  0.5019570000000  0.5172530000000  0.6058660000000 1.0
C      1  0.4519280000000  0.4179860000000  0.4834400000000 1.0
END
