TITL C-612605-9286-321 7.13130990973678e-06 125000 -367.827640619536 0 0 60 (C1) n - 1
REM
REM in /home/nfs/bkarasulu/CARBON/AIRSS/Generating-Clusters/TERSOFF/Only-C1/FIRE-HFTN
REM
REM
REM
REM
REM
REM ./C.cell (11c1c37f851c82e70ff6c80c92926a4b)
REM AIRSS Version 0.9.1 bugfix July 2018 build 013d7b7c2542+ Fri, 06 Jul 2018 19:26:36 +0100
REM compiler GCC version 9.2.1 20190827 (Red Hat 9.2.1-1)
REM options -cpp -mtune=generic -march=x86-64 -g -O0 -fpre-include=/usr/include/finclude/math-vector-fortran.h
REM seed 141836272 -193877375 1625431890 2129685353 93021528 -1256996287 -867371261 -1516065182 1160404017 -1927143990 1525318025 411024159 -1615765691 -516503509 141648768 -749785022 -1655261438 -311094261 1051245584 -810426146 1230545179 1957472562 1647119850 -243353292 -607597785 857867882 -107158969 1928104103 869756875 -1740634797 -757922321 -1018915322 -968350526
REM
CELL 1.54180   50.00000   50.00000   50.00000   90.00000   90.00000   90.00000
LATT -1
SFAC C  
C      1  0.5211420000000  0.4249810000000  0.5167720000000 1.0
C      1  0.5644850000000  0.4812730000000  0.5401520000000 1.0
C      1  0.4580580000000  0.4584240000000  0.4937500000000 1.0
C      1  0.5575730000000  0.5520370000000  0.4935680000000 1.0
C      1  0.5374080000000  0.5208820000000  0.4407120000000 1.0
C      1  0.5468480000000  0.4973500000000  0.5551980000000 1.0
C      1  0.4053800000000  0.5355800000000  0.4844080000000 1.0
C      1  0.5685870000000  0.4812840000000  0.4364630000000 1.0
C      1  0.4009460000000  0.5580570000000  0.4709140000000 1.0
C      1  0.4874700000000  0.4216330000000  0.4812770000000 1.0
C      1  0.5115700000000  0.5421630000000  0.4813100000000 1.0
C      1  0.4602830000000  0.5678780000000  0.4499420000000 1.0
C      1  0.4829500000000  0.5388850000000  0.4826890000000 1.0
C      1  0.5011600000000  0.4859330000000  0.4652390000000 1.0
C      1  0.4685260000000  0.5308630000000  0.5551790000000 1.0
C      1  0.5271670000000  0.4790750000000  0.4613380000000 1.0
C      1  0.5843300000000  0.4703060000000  0.4802960000000 1.0
C      1  0.4091610000000  0.4995580000000  0.5484060000000 1.0
C      1  0.5972790000000  0.5195550000000  0.4896800000000 1.0
C      1  0.4377780000000  0.5822870000000  0.4490050000000 1.0
C      1  0.5289770000000  0.5386200000000  0.5285510000000 1.0
C      1  0.5034770000000  0.4960750000000  0.5795140000000 1.0
C      1  0.5441140000000  0.4937850000000  0.4434520000000 1.0
C      1  0.5604300000000  0.4637880000000  0.4947630000000 1.0
C      1  0.4674780000000  0.4401940000000  0.4744750000000 1.0
C      1  0.4788420000000  0.4850730000000  0.5675940000000 1.0
C      1  0.4658250000000  0.5442710000000  0.5300540000000 1.0
C      1  0.5823820000000  0.4619620000000  0.4524380000000 1.0
C      1  0.4457430000000  0.5108470000000  0.5007860000000 1.0
C      1  0.4872110000000  0.4609040000000  0.5543790000000 1.0
C      1  0.5309780000000  0.5465890000000  0.5018140000000 1.0
C      1  0.4127110000000  0.5778290000000  0.4573300000000 1.0
C      1  0.5544100000000  0.4202510000000  0.4553970000000 1.0
C      1  0.4662650000000  0.5306620000000  0.5048240000000 1.0
C      1  0.4612650000000  0.5713810000000  0.5298020000000 1.0
C      1  0.4693760000000  0.5424140000000  0.4574080000000 1.0
C      1  0.4613910000000  0.4471170000000  0.4478400000000 1.0
C      1  0.4850370000000  0.5420320000000  0.5759970000000 1.0
C      1  0.4032770000000  0.5074320000000  0.5235560000000 1.0
C      1  0.4317530000000  0.4984290000000  0.5625290000000 1.0
C      1  0.5231720000000  0.5381370000000  0.4555310000000 1.0
C      1  0.4574300000000  0.4692020000000  0.4332110000000 1.0
C      1  0.4841190000000  0.5680290000000  0.5840420000000 1.0
C      1  0.5410400000000  0.5235100000000  0.5469860000000 1.0
C      1  0.4589880000000  0.5041730000000  0.5611200000000 1.0
C      1  0.5385630000000  0.4587740000000  0.4770080000000 1.0
C      1  0.5339190000000  0.4310370000000  0.4716810000000 1.0
C      1  0.5256910000000  0.4826990000000  0.5671610000000 1.0
C      1  0.5018800000000  0.5227380000000  0.5881240000000 1.0
C      1  0.5991460000000  0.4930300000000  0.4872090000000 1.0
C      1  0.5818420000000  0.5412820000000  0.4906470000000 1.0
C      1  0.5143850000000  0.4206340000000  0.4894870000000 1.0
C      1  0.4178590000000  0.5177870000000  0.5018450000000 1.0
C      1  0.5549650000000  0.4614050000000  0.5223820000000 1.0
C      1  0.5160390000000  0.4590620000000  0.5520500000000 1.0
C      1  0.5764940000000  0.4343830000000  0.4476760000000 1.0
C      1  0.5315690000000  0.4466460000000  0.5317490000000 1.0
C      1  0.4580720000000  0.4958660000000  0.4319490000000 1.0
C      1  0.4633020000000  0.5203430000000  0.4410830000000 1.0
C      1  0.4524830000000  0.4836040000000  0.5002600000000 1.0
END
