TITL C-612607-4507-1024 465.749678279209 125000 -1145.29710272889 0 0 189 (C1) n - 1
REM
REM in /home/nfs/bkarasulu/CARBON/AIRSS/Generating-Clusters/TERSOFF/Only-C1/FIRE-HFTN
REM
REM
REM
REM
REM
REM ./C.cell (11c1c37f851c82e70ff6c80c92926a4b)
REM AIRSS Version 0.9.1 bugfix July 2018 build 013d7b7c2542+ Fri, 06 Jul 2018 19:26:36 +0100
REM compiler GCC version 9.2.1 20190827 (Red Hat 9.2.1-1)
REM options -cpp -mtune=generic -march=x86-64 -g -O0 -fpre-include=/usr/include/finclude/math-vector-fortran.h
REM seed 170015267 -898783073 -213137366 -1490967290 -811824930 659845546 893566039 -1025531064 282319276 -1987123951 933382655 1875685216 -591968865 -467509920 -1818070836 -93584291 2129413596 284462815 621270744 -261120177 793842348 -1630829413 1595411341 -394892704 1668892923 1383136660 -654188027 -850865737 532099847 -2087584297 1683464351 2017472842 -218040258
REM
CELL 1.54180   50.00000   50.00000   50.00000   90.00000   90.00000   90.00000
LATT -1
SFAC C  
C      1  0.5531000000000  0.4818310000000  0.5284910000000 1.0
C      1  0.4524120000000  0.5824430000000  0.5948870000000 1.0
C      1  0.5873730000000  0.4393170000000  0.4831900000000 1.0
C      1  0.5996760000000  0.4346690000000  0.4154060000000 1.0
C      1  0.5041710000000  0.5997600000000  0.4294110000000 1.0
C      1  0.5913180000000  0.3583230000000  0.4590310000000 1.0
C      1  0.5073890000000  0.5224370000000  0.4407930000000 1.0
C      1  0.5177110000000  0.5664410000000  0.3916560000000 1.0
C      1  0.4645860000000  0.5766680000000  0.5201800000000 1.0
C      1  0.6543390000000  0.5142690000000  0.6373310000000 1.0
C      1  0.4165970000000  0.5414840000000  0.4844130000000 1.0
C      1  0.4479320000000  0.5351180000000  0.3954270000000 1.0
C      1  0.4700280000000  0.4936370000000  0.4220810000000 1.0
C      1  0.4000090000000  0.5226410000000  0.4115550000000 1.0
C      1  0.4912620000000  0.5238980000000  0.6268100000000 1.0
C      1  0.4861760000000  0.4805710000000  0.5670100000000 1.0
C      1  0.5186020000000  0.3928310000000  0.5071250000000 1.0
C      1  0.5619360000000  0.4365700000000  0.4946830000000 1.0
C      1  0.4866700000000  0.4389110000000  0.4321150000000 1.0
C      1  0.6245650000000  0.4497410000000  0.6173610000000 1.0
C      1  0.4030190000000  0.5742210000000  0.5318280000000 1.0
C      1  0.3843640000000  0.4513780000000  0.4844890000000 1.0
C      1  0.5351130000000  0.5269570000000  0.4419850000000 1.0
C      1  0.5054630000000  0.5009040000000  0.6231000000000 1.0
C      1  0.4538970000000  0.5884270000000  0.5429610000000 1.0
C      1  0.5645300000000  0.5286020000000  0.5038800000000 1.0
C      1  0.3847050000000  0.5005550000000  0.4706150000000 1.0
C      1  0.5617270000000  0.4869280000000  0.5997940000000 1.0
C      1  0.5114170000000  0.4781590000000  0.3609530000000 1.0
C      1  0.5597810000000  0.5830730000000  0.4475330000000 1.0
C      1  0.4556080000000  0.3897180000000  0.4674050000000 1.0
C      1  0.4727280000000  0.4476760000000  0.6094640000000 1.0
C      1  0.4492010000000  0.4238640000000  0.5105670000000 1.0
C      1  0.4822140000000  0.5938070000000  0.4459900000000 1.0
C      1  0.5575820000000  0.4031040000000  0.5292530000000 1.0
C      1  0.5599110000000  0.4321950000000  0.5238620000000 1.0
C      1  0.4815510000000  0.6194190000000  0.5014880000000 1.0
C      1  0.4902110000000  0.5549440000000  0.5656910000000 1.0
C      1  0.5476820000000  0.3862790000000  0.5065350000000 1.0
C      1  0.5540300000000  0.6017790000000  0.5063130000000 1.0
C      1  0.5987360000000  0.5316100000000  0.4113560000000 1.0
C      1  0.6058330000000  0.4348800000000  0.4627650000000 1.0
C      1  0.5375800000000  0.5780500000000  0.4615910000000 1.0
C      1  0.4821320000000  0.4516850000000  0.4810520000000 1.0
C      1  0.5341870000000  0.4608350000000  0.5645660000000 1.0
C      1  0.4034110000000  0.4341570000000  0.4916570000000 1.0
C      1  0.4484110000000  0.5740910000000  0.4984800000000 1.0
C      1  0.3770010000000  0.4753980000000  0.4754720000000 1.0
C      1  0.5611190000000  0.5150970000000  0.6050790000000 1.0
C      1  0.4387500000000  0.4900260000000  0.4863240000000 1.0
C      1  0.5210890000000  0.3937160000000  0.5626210000000 1.0
C      1  0.5856730000000  0.4726770000000  0.6011030000000 1.0
C      1  0.4707830000000  0.6113710000000  0.4742260000000 1.0
C      1  0.5692990000000  0.4364060000000  0.3753990000000 1.0
C      1  0.4871880000000  0.5214790000000  0.5334810000000 1.0
C      1  0.4409770000000  0.6110180000000  0.4728630000000 1.0
C      1  0.5106990000000  0.4377090000000  0.4158080000000 1.0
C      1  0.4518660000000  0.4557470000000  0.5924380000000 1.0
C      1  0.4579630000000  0.4499350000000  0.5215120000000 1.0
C      1  0.5204200000000  0.5741040000000  0.4836260000000 1.0
C      1  0.4450740000000  0.4627790000000  0.5436490000000 1.0
C      1  0.5174870000000  0.4655960000000  0.4071960000000 1.0
C      1  0.5800210000000  0.5952920000000  0.5080030000000 1.0
C      1  0.4953040000000  0.5070860000000  0.5749940000000 1.0
C      1  0.4203130000000  0.4751090000000  0.5367470000000 1.0
C      1  0.4364300000000  0.5456470000000  0.5500390000000 1.0
C      1  0.3930610000000  0.5090230000000  0.5686320000000 1.0
C      1  0.5149880000000  0.5877450000000  0.4077760000000 1.0
C      1  0.4618880000000  0.4273160000000  0.4268840000000 1.0
C      1  0.5765970000000  0.5481390000000  0.4173090000000 1.0
C      1  0.3878510000000  0.5498710000000  0.5398700000000 1.0
C      1  0.4253090000000  0.4509490000000  0.5992750000000 1.0
C      1  0.5940990000000  0.5018570000000  0.4478550000000 1.0
C      1  0.4083200000000  0.5473570000000  0.3705050000000 1.0
C      1  0.4561640000000  0.5590940000000  0.6115210000000 1.0
C      1  0.4860240000000  0.5201580000000  0.4203740000000 1.0
C      1  0.4779520000000  0.4685180000000  0.5054190000000 1.0
C      1  0.5726010000000  0.3790320000000  0.4586660000000 1.0
C      1  0.4369110000000  0.4269700000000  0.4403280000000 1.0
C      1  0.5922370000000  0.5714400000000  0.5090050000000 1.0
C      1  0.4459370000000  0.5487590000000  0.4864280000000 1.0
C      1  0.6243120000000  0.4511730000000  0.5450660000000 1.0
C      1  0.5487720000000  0.5125410000000  0.4631630000000 1.0
C      1  0.5550820000000  0.4740780000000  0.4384110000000 1.0
C      1  0.4894210000000  0.4565850000000  0.4548230000000 1.0
C      1  0.4382180000000  0.5254960000000  0.5307040000000 1.0
C      1  0.4770060000000  0.3934130000000  0.5387110000000 1.0
C      1  0.5317750000000  0.4207600000000  0.4280040000000 1.0
C      1  0.5289620000000  0.4137910000000  0.4559330000000 1.0
C      1  0.5524310000000  0.6032280000000  0.5976050000000 1.0
C      1  0.4310180000000  0.6052300000000  0.4468450000000 1.0
C      1  0.4739990000000  0.5399890000000  0.4809520000000 1.0
C      1  0.5203050000000  0.5809450000000  0.5324510000000 1.0
C      1  0.4630050000000  0.5136710000000  0.5216340000000 1.0
C      1  0.3947820000000  0.5583180000000  0.4492550000000 1.0
C      1  0.5276010000000  0.4934930000000  0.5118650000000 1.0
C      1  0.5076010000000  0.4778560000000  0.4521740000000 1.0
C      1  0.5416130000000  0.5584420000000  0.5987340000000 1.0
C      1  0.5750330000000  0.4289160000000  0.4014090000000 1.0
C      1  0.6092370000000  0.3394060000000  0.4594600000000 1.0
C      1  0.4291660000000  0.5947400000000  0.4933400000000 1.0
C      1  0.4967900000000  0.4056870000000  0.5546520000000 1.0
C      1  0.4770630000000  0.5973810000000  0.5843810000000 1.0
C      1  0.5054470000000  0.4622540000000  0.5516240000000 1.0
C      1  0.5842920000000  0.5459740000000  0.5077650000000 1.0
C      1  0.6094860000000  0.4588240000000  0.5964370000000 1.0
C      1  0.5752430000000  0.5894770000000  0.6053030000000 1.0
C      1  0.4281220000000  0.5753950000000  0.5514950000000 1.0
C      1  0.4276990000000  0.5837940000000  0.5802290000000 1.0
C      1  0.5092530000000  0.4847830000000  0.3870610000000 1.0
C      1  0.5030010000000  0.3812440000000  0.4850250000000 1.0
C      1  0.5345500000000  0.5191540000000  0.5507060000000 1.0
C      1  0.4628620000000  0.5399820000000  0.4232550000000 1.0
C      1  0.6226330000000  0.4545660000000  0.4499600000000 1.0
C      1  0.5075750000000  0.5706560000000  0.5530020000000 1.0
C      1  0.5051550000000  0.4715980000000  0.5206260000000 1.0
C      1  0.4231550000000  0.5564350000000  0.4420550000000 1.0
C      1  0.5508610000000  0.3787380000000  0.4773690000000 1.0
C      1  0.4209890000000  0.4731270000000  0.4206500000000 1.0
C      1  0.5295970000000  0.5856460000000  0.5946850000000 1.0
C      1  0.4650660000000  0.5737320000000  0.4337470000000 1.0
C      1  0.5226840000000  0.5172250000000  0.5764440000000 1.0
C      1  0.5514710000000  0.5356360000000  0.4209090000000 1.0
C      1  0.4190220000000  0.5349210000000  0.3926850000000 1.0
C      1  0.6165120000000  0.4575940000000  0.4213630000000 1.0
C      1  0.4829700000000  0.5287400000000  0.5608730000000 1.0
C      1  0.5584420000000  0.5044190000000  0.5455880000000 1.0
C      1  0.5300470000000  0.5868870000000  0.5073160000000 1.0
C      1  0.4594400000000  0.4686830000000  0.5680610000000 1.0
C      1  0.5577620000000  0.4131620000000  0.4187880000000 1.0
C      1  0.4478900000000  0.4803050000000  0.4162800000000 1.0
C      1  0.5751840000000  0.4002340000000  0.4395630000000 1.0
C      1  0.5452550000000  0.5121670000000  0.4909840000000 1.0
C      1  0.5378450000000  0.4287720000000  0.4807790000000 1.0
C      1  0.4727730000000  0.6068490000000  0.5552840000000 1.0
C      1  0.5373340000000  0.4729730000000  0.5920720000000 1.0
C      1  0.4995370000000  0.5033360000000  0.4606150000000 1.0
C      1  0.5279130000000  0.4753510000000  0.4320730000000 1.0
C      1  0.5523470000000  0.4555000000000  0.5407620000000 1.0
C      1  0.4034840000000  0.4866900000000  0.5571050000000 1.0
C      1  0.6169680000000  0.4836630000000  0.4107980000000 1.0
C      1  0.4183220000000  0.4471270000000  0.4321170000000 1.0
C      1  0.5678840000000  0.4941190000000  0.4530180000000 1.0
C      1  0.5151010000000  0.4760230000000  0.6114470000000 1.0
C      1  0.5661620000000  0.4426770000000  0.3503020000000 1.0
C      1  0.3973680000000  0.5631630000000  0.4791770000000 1.0
C      1  0.4376670000000  0.5799560000000  0.4360990000000 1.0
C      1  0.4829040000000  0.6209620000000  0.5300320000000 1.0
C      1  0.4979530000000  0.4540040000000  0.6156400000000 1.0
C      1  0.4804480000000  0.5500900000000  0.6237870000000 1.0
C      1  0.5375050000000  0.5299710000000  0.5962850000000 1.0
C      1  0.4024280000000  0.4942840000000  0.4157960000000 1.0
C      1  0.4963570000000  0.4336720000000  0.5547880000000 1.0
C      1  0.6064860000000  0.5293970000000  0.6217430000000 1.0
C      1  0.4036430000000  0.5825810000000  0.5019170000000 1.0
C      1  0.4809710000000  0.5122460000000  0.4792240000000 1.0
C      1  0.4321470000000  0.5070190000000  0.4621490000000 1.0
C      1  0.4068550000000  0.5174270000000  0.4718980000000 1.0
C      1  0.4013790000000  0.4445070000000  0.6073500000000 1.0
C      1  0.3837880000000  0.5401030000000  0.4291970000000 1.0
C      1  0.6176800000000  0.4543970000000  0.5700640000000 1.0
C      1  0.4197430000000  0.4887540000000  0.5102720000000 1.0
C      1  0.5237510000000  0.3852960000000  0.4639510000000 1.0
C      1  0.5017840000000  0.5899700000000  0.6004190000000 1.0
C      1  0.5136660000000  0.5406480000000  0.3849370000000 1.0
C      1  0.6063030000000  0.5069310000000  0.4227290000000 1.0
C      1  0.4400710000000  0.5307570000000  0.4431720000000 1.0
C      1  0.3642120000000  0.5198800000000  0.5107350000000 1.0
C      1  0.4742920000000  0.3857200000000  0.4885930000000 1.0
C      1  0.5977090000000  0.4181680000000  0.4405560000000 1.0
C      1  0.3867520000000  0.5355080000000  0.5650500000000 1.0
C      1  0.4965200000000  0.5583450000000  0.4823050000000 1.0
C      1  0.4682130000000  0.5230820000000  0.3776260000000 1.0
C      1  0.4922060000000  0.4284820000000  0.4919120000000 1.0
C      1  0.4136330000000  0.5158370000000  0.5188380000000 1.0
C      1  0.4374280000000  0.4117630000000  0.4646000000000 1.0
C      1  0.5705740000000  0.5612040000000  0.6072900000000 1.0
C      1  0.5467860000000  0.3951270000000  0.5543500000000 1.0
C      1  0.4956290000000  0.5179320000000  0.3911970000000 1.0
C      1  0.5811650000000  0.5349300000000  0.6120530000000 1.0
C      1  0.5171820000000  0.4208280000000  0.4999450000000 1.0
C      1  0.4650080000000  0.3989850000000  0.5136900000000 1.0
C      1  0.4290700000000  0.4232500000000  0.4896630000000 1.0
C      1  0.4658480000000  0.4948210000000  0.4980450000000 1.0
C      1  0.3882220000000  0.5285830000000  0.5204170000000 1.0
C      1  0.4963820000000  0.5738760000000  0.6241660000000 1.0
C      1  0.5775240000000  0.5734000000000  0.4297450000000 1.0
C      1  0.6306660000000  0.5221950000000  0.6298240000000 1.0
C      1  0.5152890000000  0.5171050000000  0.5284220000000 1.0
END
