TITL C-612601-4209-1414 0.818876151514209 125000 -912.989033172059 0 0 148 (C1) n - 1
REM
REM in /home/nfs/bkarasulu/CARBON/AIRSS/Generating-Clusters/TERSOFF/Only-C1/FIRE-HFTN
REM
REM
REM
REM
REM
REM ./C.cell (11c1c37f851c82e70ff6c80c92926a4b)
REM AIRSS Version 0.9.1 bugfix July 2018 build 013d7b7c2542+ Fri, 06 Jul 2018 19:26:36 +0100
REM compiler GCC version 9.2.1 20190827 (Red Hat 9.2.1-1)
REM options -cpp -mtune=generic -march=x86-64 -g -O0 -fpre-include=/usr/include/finclude/math-vector-fortran.h
REM seed -1603430892 -1804041519 927874099 317648812 477595362 2068033802 1310646339 -1496628067 -59123382 216156472 1555572097 -117662722 859189262 -309003194 -1014543421 1157792751 1632270815 -697343344 1997182842 -791365219 -1103209366 -677032336 1695013610 -1424574902 -1994646680 29510049 678846426 174741613 1976131567 1217372910 -1720235875 -1682722236 1534661322
REM
CELL 1.54180   50.00000   50.00000   50.00000   90.00000   90.00000   90.00000
LATT -1
SFAC C  
C      1  0.5338800000000  0.3937310000000  0.4212560000000 1.0
C      1  0.5225030000000  0.4651560000000  0.6464960000000 1.0
C      1  0.5311620000000  0.5217820000000  0.4640620000000 1.0
C      1  0.4427880000000  0.5428020000000  0.4164060000000 1.0
C      1  0.4467540000000  0.5057980000000  0.4532510000000 1.0
C      1  0.5261670000000  0.4880830000000  0.5779820000000 1.0
C      1  0.4567580000000  0.4646540000000  0.5144180000000 1.0
C      1  0.4161950000000  0.4525420000000  0.5469810000000 1.0
C      1  0.4321660000000  0.5932080000000  0.5599190000000 1.0
C      1  0.5468230000000  0.4456530000000  0.6097640000000 1.0
C      1  0.4773040000000  0.4999210000000  0.5476290000000 1.0
C      1  0.5125480000000  0.4792850000000  0.6011200000000 1.0
C      1  0.4843650000000  0.4827340000000  0.6037550000000 1.0
C      1  0.4745170000000  0.5205100000000  0.5674100000000 1.0
C      1  0.4655970000000  0.5048600000000  0.4337520000000 1.0
C      1  0.4628900000000  0.4744520000000  0.5869530000000 1.0
C      1  0.4910930000000  0.5436960000000  0.5660380000000 1.0
C      1  0.4297520000000  0.5776790000000  0.4783400000000 1.0
C      1  0.4717290000000  0.4295510000000  0.4292550000000 1.0
C      1  0.5329280000000  0.4686000000000  0.4007380000000 1.0
C      1  0.5818390000000  0.5881450000000  0.4860560000000 1.0
C      1  0.5964720000000  0.5258810000000  0.5197690000000 1.0
C      1  0.4575720000000  0.5113720000000  0.4789450000000 1.0
C      1  0.5564070000000  0.5131080000000  0.4130920000000 1.0
C      1  0.4286390000000  0.4560420000000  0.4745530000000 1.0
C      1  0.4852740000000  0.5101320000000  0.4837180000000 1.0
C      1  0.5986310000000  0.4331520000000  0.5551160000000 1.0
C      1  0.4716550000000  0.4539300000000  0.5694370000000 1.0
C      1  0.4468240000000  0.5211060000000  0.5782400000000 1.0
C      1  0.6036700000000  0.4555260000000  0.4628640000000 1.0
C      1  0.6001480000000  0.5416360000000  0.4699240000000 1.0
C      1  0.5049220000000  0.4010040000000  0.5336390000000 1.0
C      1  0.4417080000000  0.5744440000000  0.5808040000000 1.0
C      1  0.4102780000000  0.4431310000000  0.4935210000000 1.0
C      1  0.5123900000000  0.4565540000000  0.4162330000000 1.0
C      1  0.5303210000000  0.4257890000000  0.4979260000000 1.0
C      1  0.4026170000000  0.5040200000000  0.4303330000000 1.0
C      1  0.4957370000000  0.4994630000000  0.4371620000000 1.0
C      1  0.4509130000000  0.5674800000000  0.4286800000000 1.0
C      1  0.4040640000000  0.4551340000000  0.5191010000000 1.0
C      1  0.5818840000000  0.5446640000000  0.4481070000000 1.0
C      1  0.5993470000000  0.4979620000000  0.5154380000000 1.0
C      1  0.4740490000000  0.4142030000000  0.4552920000000 1.0
C      1  0.4850830000000  0.4457920000000  0.5462300000000 1.0
C      1  0.4993060000000  0.4309620000000  0.4169990000000 1.0
C      1  0.5415260000000  0.5744970000000  0.5266550000000 1.0
C      1  0.4686590000000  0.4401290000000  0.5231310000000 1.0
C      1  0.5518890000000  0.5159600000000  0.5340960000000 1.0
C      1  0.4682390000000  0.6061780000000  0.4573510000000 1.0
C      1  0.5619860000000  0.5166540000000  0.5800440000000 1.0
C      1  0.5152770000000  0.5650720000000  0.6021600000000 1.0
C      1  0.6018530000000  0.4482690000000  0.5314430000000 1.0
C      1  0.5663700000000  0.4338990000000  0.5960600000000 1.0
C      1  0.5131710000000  0.4475950000000  0.5398980000000 1.0
C      1  0.5674130000000  0.5626500000000  0.5269040000000 1.0
C      1  0.4819060000000  0.3440340000000  0.4935380000000 1.0
C      1  0.5500030000000  0.5073180000000  0.4811790000000 1.0
C      1  0.4476380000000  0.5843440000000  0.4546220000000 1.0
C      1  0.4581070000000  0.4109090000000  0.4789310000000 1.0
C      1  0.4315360000000  0.4519840000000  0.4460700000000 1.0
C      1  0.4673550000000  0.5761730000000  0.5925410000000 1.0
C      1  0.5330270000000  0.5452850000000  0.4426490000000 1.0
C      1  0.4939850000000  0.3968420000000  0.5596800000000 1.0
C      1  0.4602390000000  0.5209790000000  0.4105410000000 1.0
C      1  0.4965230000000  0.4973480000000  0.5056030000000 1.0
C      1  0.5146320000000  0.4100460000000  0.4310050000000 1.0
C      1  0.5726990000000  0.4909760000000  0.4735330000000 1.0
C      1  0.5985270000000  0.4928230000000  0.4878820000000 1.0
C      1  0.5400240000000  0.5555010000000  0.6047950000000 1.0
C      1  0.4050740000000  0.4900580000000  0.4075730000000 1.0
C      1  0.4366420000000  0.5833380000000  0.5067790000000 1.0
C      1  0.5037780000000  0.5128850000000  0.4625120000000 1.0
C      1  0.5933960000000  0.4758640000000  0.5335220000000 1.0
C      1  0.4816440000000  0.5097640000000  0.3931920000000 1.0
C      1  0.5732350000000  0.4794970000000  0.5533600000000 1.0
C      1  0.5423670000000  0.5057530000000  0.5089930000000 1.0
C      1  0.5271860000000  0.4632160000000  0.6196150000000 1.0
C      1  0.3961160000000  0.4831520000000  0.5189950000000 1.0
C      1  0.5087790000000  0.5984310000000  0.4798700000000 1.0
C      1  0.4978180000000  0.5825740000000  0.4267960000000 1.0
C      1  0.4752540000000  0.5726570000000  0.4134320000000 1.0
C      1  0.4915750000000  0.5623490000000  0.5877110000000 1.0
C      1  0.4137940000000  0.5276000000000  0.4761480000000 1.0
C      1  0.5061980000000  0.5135640000000  0.4110500000000 1.0
C      1  0.4587810000000  0.4898770000000  0.5281810000000 1.0
C      1  0.4249300000000  0.5796080000000  0.5347800000000 1.0
C      1  0.4643610000000  0.5766800000000  0.5111000000000 1.0
C      1  0.5407990000000  0.6009210000000  0.5149840000000 1.0
C      1  0.4769230000000  0.4625580000000  0.4735200000000 1.0
C      1  0.4095420000000  0.4151680000000  0.4891050000000 1.0
C      1  0.5435000000000  0.6243010000000  0.5296910000000 1.0
C      1  0.5580000000000  0.5615780000000  0.4524270000000 1.0
C      1  0.5786460000000  0.4687630000000  0.4547140000000 1.0
C      1  0.4779760000000  0.6323850000000  0.4984180000000 1.0
C      1  0.5056670000000  0.5705760000000  0.4731980000000 1.0
C      1  0.5031040000000  0.4578880000000  0.4650120000000 1.0
C      1  0.4696350000000  0.4158010000000  0.5053730000000 1.0
C      1  0.4398540000000  0.4913960000000  0.5789030000000 1.0
C      1  0.6014380000000  0.5456890000000  0.4982250000000 1.0
C      1  0.5036750000000  0.4116160000000  0.4579270000000 1.0
C      1  0.5258060000000  0.4724470000000  0.5371120000000 1.0
C      1  0.5875370000000  0.5699790000000  0.5067290000000 1.0
C      1  0.4116620000000  0.5556880000000  0.4751750000000 1.0
C      1  0.5175310000000  0.5586540000000  0.5228830000000 1.0
C      1  0.4468100000000  0.5372380000000  0.5307290000000 1.0
C      1  0.5713590000000  0.4700130000000  0.4279980000000 1.0
C      1  0.4861590000000  0.3937630000000  0.5136810000000 1.0
C      1  0.4265910000000  0.5515350000000  0.5444110000000 1.0
C      1  0.5454300000000  0.6463300000000  0.5434760000000 1.0
C      1  0.6065200000000  0.4347350000000  0.5072420000000 1.0
C      1  0.4838910000000  0.3678760000000  0.5038670000000 1.0
C      1  0.5549330000000  0.4842750000000  0.4102670000000 1.0
C      1  0.5848840000000  0.4288560000000  0.5775800000000 1.0
C      1  0.5575010000000  0.5855640000000  0.4708280000000 1.0
C      1  0.4877990000000  0.6080500000000  0.4357050000000 1.0
C      1  0.5114270000000  0.5542220000000  0.4952600000000 1.0
C      1  0.4373480000000  0.5106880000000  0.5222060000000 1.0
C      1  0.4184000000000  0.5123790000000  0.4516370000000 1.0
C      1  0.5364700000000  0.6004550000000  0.4863030000000 1.0
C      1  0.5106060000000  0.5651020000000  0.4456080000000 1.0
C      1  0.5207310000000  0.4889810000000  0.5156630000000 1.0
C      1  0.4702600000000  0.5529490000000  0.5250030000000 1.0
C      1  0.4508610000000  0.4486060000000  0.4243930000000 1.0
C      1  0.4311850000000  0.4021410000000  0.4792720000000 1.0
C      1  0.4716180000000  0.4820890000000  0.3886550000000 1.0
C      1  0.5787770000000  0.5264060000000  0.4259290000000 1.0
C      1  0.6186290000000  0.4782040000000  0.4736960000000 1.0
C      1  0.5313770000000  0.5276460000000  0.4166620000000 1.0
C      1  0.6050820000000  0.4335700000000  0.4803410000000 1.0
C      1  0.4528230000000  0.4642640000000  0.4868240000000 1.0
C      1  0.5556760000000  0.4162500000000  0.4932130000000 1.0
C      1  0.5723690000000  0.5351590000000  0.5332640000000 1.0
C      1  0.4685840000000  0.3994270000000  0.5689930000000 1.0
C      1  0.4952020000000  0.5523530000000  0.5393540000000 1.0
C      1  0.4843740000000  0.6130860000000  0.4803610000000 1.0
C      1  0.4330050000000  0.5469720000000  0.5731960000000 1.0
C      1  0.4338550000000  0.5162390000000  0.4939330000000 1.0
C      1  0.5575130000000  0.5373280000000  0.5961880000000 1.0
C      1  0.4258810000000  0.4284700000000  0.5583850000000 1.0
C      1  0.5207750000000  0.4240320000000  0.5253410000000 1.0
C      1  0.5146030000000  0.4328130000000  0.4746770000000 1.0
C      1  0.4213430000000  0.4804850000000  0.5588530000000 1.0
C      1  0.4237420000000  0.4754840000000  0.3949060000000 1.0
C      1  0.4500420000000  0.4663530000000  0.4009320000000 1.0
C      1  0.4134890000000  0.4983720000000  0.5361000000000 1.0
C      1  0.5067030000000  0.4714320000000  0.4399010000000 1.0
C      1  0.5489320000000  0.4965260000000  0.5586600000000 1.0
C      1  0.4439660000000  0.4102130000000  0.5664870000000 1.0
END
