TITL C-612603-7354-623 7807.2490401219 125000 -1104.91112903931 0 0 180 (C1) n - 1
REM
REM in /home/nfs/bkarasulu/CARBON/AIRSS/Generating-Clusters/TERSOFF/Only-C1/FIRE-HFTN
REM
REM
REM
REM
REM
REM ./C.cell (11c1c37f851c82e70ff6c80c92926a4b)
REM AIRSS Version 0.9.1 bugfix July 2018 build 013d7b7c2542+ Fri, 06 Jul 2018 19:26:36 +0100
REM compiler GCC version 9.2.1 20190827 (Red Hat 9.2.1-1)
REM options -cpp -mtune=generic -march=x86-64 -g -O0 -fpre-include=/usr/include/finclude/math-vector-fortran.h
REM seed -1258819358 -1633747705 -1746491355 -205220719 229149742 -1768816284 815344659 628877850 757809977 -379643261 -1221598143 -1042570808 1753460601 -1242577067 1495257083 1300384366 -905932126 -1791950600 -1731299762 -12675277 -1709195364 -613601173 -1365600438 -885466384 -1820805898 -807374901 -717473756 1731704164 1047761643 -2053584001 -1255179758 -81672217 1080383854
REM
CELL 1.54180   50.00000   50.00000   50.00000   90.00000   90.00000   90.00000
LATT -1
SFAC C  
C      1  0.4376050000000  0.5151920000000  0.4561960000000 1.0
C      1  0.5663580000000  0.5593840000000  0.5594970000000 1.0
C      1  0.5608170000000  0.4180780000000  0.5384310000000 1.0
C      1  0.5339420000000  0.5030240000000  0.5864550000000 1.0
C      1  0.4700600000000  0.5321840000000  0.5250110000000 1.0
C      1  0.4930540000000  0.5612680000000  0.4982960000000 1.0
C      1  0.4318470000000  0.4168190000000  0.4343220000000 1.0
C      1  0.4710320000000  0.5161160000000  0.4186160000000 1.0
C      1  0.5142210000000  0.3896810000000  0.4107940000000 1.0
C      1  0.4479640000000  0.3938940000000  0.4317480000000 1.0
C      1  0.4337950000000  0.3912450000000  0.4924890000000 1.0
C      1  0.5518480000000  0.3955290000000  0.5527390000000 1.0
C      1  0.4556710000000  0.5865970000000  0.5527890000000 1.0
C      1  0.5835010000000  0.5113580000000  0.5066980000000 1.0
C      1  0.4402750000000  0.4873480000000  0.5564240000000 1.0
C      1  0.3847830000000  0.5105090000000  0.4798040000000 1.0
C      1  0.5613320000000  0.4089070000000  0.4711180000000 1.0
C      1  0.5563320000000  0.5205490000000  0.5900440000000 1.0
C      1  0.4188190000000  0.5956870000000  0.4899010000000 1.0
C      1  0.4365090000000  0.5273720000000  0.4855700000000 1.0
C      1  0.5002770000000  0.4396980000000  0.5939590000000 1.0
C      1  0.5633660000000  0.5713720000000  0.4720280000000 1.0
C      1  0.5132640000000  0.4370780000000  0.3918130000000 1.0
C      1  0.5244640000000  0.4723720000000  0.5082120000000 1.0
C      1  0.4857450000000  0.3819540000000  0.5809930000000 1.0
C      1  0.4535170000000  0.4625150000000  0.5203360000000 1.0
C      1  0.5277220000000  0.3843080000000  0.5563400000000 1.0
C      1  0.3824250000000  0.4626850000000  0.4546160000000 1.0
C      1  0.4820360000000  0.5837130000000  0.3990150000000 1.0
C      1  0.6236030000000  0.4552090000000  0.4727240000000 1.0
C      1  0.4654550000000  0.5575130000000  0.5084000000000 1.0
C      1  0.6211250000000  0.4847840000000  0.5119530000000 1.0
C      1  0.3867250000000  0.5127340000000  0.5099720000000 1.0
C      1  0.6127210000000  0.5670230000000  0.4982220000000 1.0
C      1  0.4900550000000  0.4195900000000  0.6110010000000 1.0
C      1  0.4652130000000  0.5286070000000  0.6286350000000 1.0
C      1  0.5191020000000  0.5137440000000  0.4254080000000 1.0
C      1  0.4166570000000  0.5255060000000  0.5578160000000 1.0
C      1  0.5227050000000  0.4558060000000  0.6015270000000 1.0
C      1  0.6321930000000  0.4772240000000  0.4864940000000 1.0
C      1  0.4929190000000  0.6113660000000  0.5386520000000 1.0
C      1  0.4236770000000  0.5942550000000  0.5173920000000 1.0
C      1  0.5452590000000  0.4653270000000  0.5270780000000 1.0
C      1  0.4802750000000  0.3747780000000  0.4983940000000 1.0
C      1  0.5613630000000  0.5432280000000  0.4712790000000 1.0
C      1  0.5175860000000  0.5733910000000  0.5083660000000 1.0
C      1  0.4997720000000  0.6108910000000  0.4649210000000 1.0
C      1  0.5340220000000  0.5300500000000  0.5168480000000 1.0
C      1  0.5292880000000  0.5550360000000  0.5283370000000 1.0
C      1  0.4378050000000  0.5281100000000  0.6197190000000 1.0
C      1  0.3964480000000  0.5445840000000  0.5214450000000 1.0
C      1  0.5511200000000  0.4722100000000  0.3781140000000 1.0
C      1  0.4229080000000  0.5478200000000  0.5736920000000 1.0
C      1  0.6118160000000  0.5124850000000  0.5169390000000 1.0
C      1  0.4680770000000  0.5148670000000  0.4489200000000 1.0
C      1  0.4213270000000  0.5243670000000  0.4317280000000 1.0
C      1  0.5792820000000  0.5119340000000  0.3974040000000 1.0
C      1  0.4823540000000  0.5290190000000  0.5503200000000 1.0
C      1  0.5246190000000  0.5201620000000  0.4906180000000 1.0
C      1  0.4800310000000  0.5133680000000  0.5045790000000 1.0
C      1  0.4293530000000  0.5079890000000  0.5388500000000 1.0
C      1  0.4430200000000  0.5545540000000  0.4894640000000 1.0
C      1  0.5470360000000  0.4554060000000  0.4516070000000 1.0
C      1  0.5792710000000  0.4156320000000  0.5171950000000 1.0
C      1  0.4772580000000  0.5443250000000  0.5729480000000 1.0
C      1  0.4915490000000  0.4167160000000  0.5457570000000 1.0
C      1  0.5010990000000  0.4593500000000  0.5224490000000 1.0
C      1  0.3968960000000  0.4627900000000  0.5365080000000 1.0
C      1  0.3897880000000  0.4369320000000  0.4504990000000 1.0
C      1  0.5007810000000  0.4586330000000  0.4352180000000 1.0
C      1  0.5685420000000  0.4911350000000  0.3848050000000 1.0
C      1  0.6073220000000  0.4606050000000  0.5223890000000 1.0
C      1  0.4752230000000  0.4308090000000  0.4988440000000 1.0
C      1  0.5798650000000  0.5339290000000  0.4149510000000 1.0
C      1  0.4131070000000  0.5699500000000  0.5313780000000 1.0
C      1  0.4911290000000  0.5361500000000  0.6260720000000 1.0
C      1  0.5003880000000  0.3910170000000  0.5585500000000 1.0
C      1  0.4926060000000  0.4468100000000  0.4087820000000 1.0
C      1  0.4185620000000  0.4361970000000  0.4962520000000 1.0
C      1  0.4309870000000  0.4594530000000  0.5043590000000 1.0
C      1  0.5213750000000  0.4841620000000  0.6031170000000 1.0
C      1  0.4967370000000  0.5323070000000  0.4878390000000 1.0
C      1  0.5448460000000  0.5718620000000  0.5458160000000 1.0
C      1  0.5137900000000  0.5288810000000  0.4012950000000 1.0
C      1  0.5344180000000  0.5474710000000  0.3946190000000 1.0
C      1  0.4599840000000  0.4716810000000  0.5457980000000 1.0
C      1  0.6196060000000  0.5505820000000  0.4779220000000 1.0
C      1  0.4859840000000  0.5916350000000  0.5593460000000 1.0
C      1  0.5503330000000  0.6222090000000  0.5490380000000 1.0
C      1  0.5307480000000  0.5744190000000  0.3843150000000 1.0
C      1  0.3875360000000  0.4870330000000  0.5257910000000 1.0
C      1  0.4825840000000  0.3944200000000  0.6047360000000 1.0
C      1  0.4279420000000  0.4798730000000  0.5803640000000 1.0
C      1  0.4252900000000  0.4857890000000  0.4622620000000 1.0
C      1  0.4714310000000  0.5581270000000  0.3950720000000 1.0
C      1  0.5414930000000  0.5930110000000  0.4018900000000 1.0
C      1  0.4140460000000  0.4410530000000  0.5424070000000 1.0
C      1  0.4645610000000  0.4414880000000  0.4062820000000 1.0
C      1  0.5253710000000  0.5607260000000  0.5911510000000 1.0
C      1  0.4306080000000  0.5694110000000  0.5561140000000 1.0
C      1  0.5522020000000  0.5485110000000  0.5834260000000 1.0
C      1  0.6031630000000  0.4366580000000  0.4800900000000 1.0
C      1  0.4283040000000  0.4838830000000  0.4921970000000 1.0
C      1  0.4784940000000  0.4879740000000  0.4916650000000 1.0
C      1  0.5328730000000  0.4117930000000  0.4611950000000 1.0
C      1  0.5486760000000  0.4889050000000  0.5417380000000 1.0
C      1  0.5689710000000  0.3985990000000  0.4963960000000 1.0
C      1  0.4110570000000  0.4180840000000  0.4538340000000 1.0
C      1  0.5703130000000  0.5043470000000  0.5333410000000 1.0
C      1  0.5724310000000  0.4464610000000  0.4446730000000 1.0
C      1  0.5892870000000  0.5712630000000  0.5143160000000 1.0
C      1  0.4038900000000  0.5071940000000  0.4190900000000 1.0
C      1  0.4852630000000  0.5336280000000  0.4004330000000 1.0
C      1  0.4768390000000  0.4900180000000  0.4637520000000 1.0
C      1  0.5253060000000  0.4380180000000  0.4510950000000 1.0
C      1  0.4001410000000  0.5584010000000  0.4655500000000 1.0
C      1  0.5035690000000  0.5106160000000  0.5512470000000 1.0
C      1  0.5826580000000  0.4271560000000  0.4621220000000 1.0
C      1  0.5201750000000  0.4881220000000  0.4349810000000 1.0
C      1  0.6050180000000  0.5317840000000  0.4625160000000 1.0
C      1  0.4858490000000  0.6149780000000  0.4897660000000 1.0
C      1  0.5017820000000  0.3786900000000  0.4827860000000 1.0
C      1  0.5495300000000  0.4465380000000  0.6024120000000 1.0
C      1  0.4723580000000  0.3832120000000  0.4336780000000 1.0
C      1  0.4355270000000  0.4255940000000  0.5397510000000 1.0
C      1  0.5085520000000  0.5800360000000  0.5753000000000 1.0
C      1  0.5881440000000  0.5122900000000  0.5557260000000 1.0
C      1  0.4824860000000  0.6041160000000  0.4161600000000 1.0
C      1  0.5898060000000  0.5561970000000  0.5405100000000 1.0
C      1  0.5734960000000  0.4587330000000  0.6000880000000 1.0
C      1  0.5312910000000  0.4545800000000  0.3796250000000 1.0
C      1  0.4742500000000  0.4668800000000  0.4490840000000 1.0
C      1  0.4462390000000  0.4624100000000  0.4446220000000 1.0
C      1  0.4497320000000  0.6020250000000  0.5271860000000 1.0
C      1  0.4190770000000  0.4127490000000  0.4809200000000 1.0
C      1  0.4493070000000  0.5701460000000  0.6045140000000 1.0
C      1  0.5538050000000  0.5796270000000  0.4246230000000 1.0
C      1  0.4431610000000  0.4416400000000  0.4256170000000 1.0
C      1  0.5491860000000  0.5863060000000  0.4519250000000 1.0
C      1  0.5162470000000  0.5328250000000  0.4465960000000 1.0
C      1  0.5408030000000  0.5935900000000  0.5080110000000 1.0
C      1  0.4717050000000  0.5635600000000  0.5910810000000 1.0
C      1  0.5415470000000  0.4380330000000  0.5342190000000 1.0
C      1  0.5267100000000  0.6019700000000  0.4606370000000 1.0
C      1  0.5133240000000  0.3907390000000  0.4600340000000 1.0
C      1  0.5360720000000  0.5334410000000  0.4666210000000 1.0
C      1  0.4225190000000  0.5049010000000  0.6221200000000 1.0
C      1  0.3941660000000  0.4874100000000  0.4625550000000 1.0
C      1  0.4574850000000  0.3882110000000  0.5087250000000 1.0
C      1  0.5857010000000  0.4819940000000  0.5942120000000 1.0
C      1  0.5280300000000  0.4900290000000  0.4862340000000 1.0
C      1  0.6003030000000  0.5348960000000  0.4345840000000 1.0
C      1  0.4228810000000  0.5713220000000  0.4767560000000 1.0
C      1  0.4434500000000  0.5568910000000  0.3983080000000 1.0
C      1  0.5280650000000  0.4996190000000  0.5587390000000 1.0
C      1  0.5974160000000  0.4366350000000  0.5088910000000 1.0
C      1  0.4895160000000  0.4397380000000  0.5674160000000 1.0
C      1  0.5183450000000  0.4094810000000  0.3932940000000 1.0
C      1  0.5408750000000  0.4833380000000  0.4583530000000 1.0
C      1  0.4898610000000  0.5337670000000  0.4585110000000 1.0
C      1  0.6062790000000  0.5303330000000  0.5413420000000 1.0
C      1  0.5004130000000  0.3855230000000  0.4348910000000 1.0
C      1  0.5135970000000  0.4308530000000  0.5287930000000 1.0
C      1  0.3846150000000  0.5363700000000  0.4672600000000 1.0
C      1  0.5119280000000  0.5484250000000  0.6137420000000 1.0
C      1  0.4274170000000  0.5477890000000  0.4175730000000 1.0
C      1  0.5575620000000  0.5517470000000  0.4139470000000 1.0
C      1  0.4852210000000  0.6135110000000  0.4409300000000 1.0
C      1  0.5676230000000  0.4977930000000  0.4607340000000 1.0
C      1  0.4299430000000  0.5495030000000  0.6017670000000 1.0
C      1  0.5807570000000  0.5202310000000  0.4767930000000 1.0
C      1  0.5808330000000  0.5072800000000  0.5824340000000 1.0
C      1  0.4313860000000  0.5082170000000  0.5076820000000 1.0
C      1  0.4645330000000  0.4136960000000  0.5244570000000 1.0
C      1  0.5662610000000  0.5821080000000  0.4982630000000 1.0
C      1  0.4747840000000  0.6129050000000  0.5159560000000 1.0
C      1  0.4194360000000  0.4845150000000  0.6051240000000 1.0
C      1  0.4779080000000  0.4602440000000  0.5040950000000 1.0
C      1  0.4865370000000  0.4635600000000  0.5507220000000 1.0
C      1  0.5451900000000  0.5988940000000  0.5364450000000 1.0
END
