TITL C-612603-7354-451 -0.0218701500594571 125000 -1234.84779663438 0 0 199 (C1) n - 1
REM
REM in /home/nfs/bkarasulu/CARBON/AIRSS/Generating-Clusters/TERSOFF/Only-C1/FIRE-HFTN
REM
REM
REM
REM
REM
REM ./C.cell (11c1c37f851c82e70ff6c80c92926a4b)
REM AIRSS Version 0.9.1 bugfix July 2018 build 013d7b7c2542+ Fri, 06 Jul 2018 19:26:36 +0100
REM compiler GCC version 9.2.1 20190827 (Red Hat 9.2.1-1)
REM options -cpp -mtune=generic -march=x86-64 -g -O0 -fpre-include=/usr/include/finclude/math-vector-fortran.h
REM seed -351609918 -1266429039 -1021176019 818284706 -288157222 2108692900 339245306 -1463683729 1743592417 -287254621 -1378076245 -1440934311 1621551416 -1559977443 248751129 -1190269060 2125759518 2008170277 -875396568 95958173 -1267386900 1174265969 989815153 -1560709995 -1881497262 841805755 -1229468922 -384082088 1588766843 402031335 -2067381522 -396133777 -1669529850
REM
CELL 1.54180   50.00000   50.00000   50.00000   90.00000   90.00000   90.00000
LATT -1
SFAC C  
C      1  0.5942880000000  0.4936240000000  0.4072470000000 1.0
C      1  0.4878840000000  0.5677020000000  0.5188030000000 1.0
C      1  0.5532370000000  0.4282710000000  0.3922290000000 1.0
C      1  0.6298080000000  0.5076320000000  0.5088120000000 1.0
C      1  0.6073660000000  0.4665720000000  0.5262020000000 1.0
C      1  0.4547980000000  0.3754520000000  0.5741560000000 1.0
C      1  0.6171740000000  0.4185470000000  0.5270780000000 1.0
C      1  0.4552590000000  0.3419010000000  0.5367340000000 1.0
C      1  0.5459010000000  0.5061830000000  0.4294460000000 1.0
C      1  0.5134470000000  0.5499700000000  0.5968800000000 1.0
C      1  0.5821070000000  0.5721020000000  0.5697650000000 1.0
C      1  0.5116720000000  0.4234070000000  0.4620320000000 1.0
C      1  0.5978090000000  0.4390670000000  0.5215850000000 1.0
C      1  0.5628070000000  0.5435080000000  0.5159310000000 1.0
C      1  0.6332840000000  0.4931490000000  0.4374030000000 1.0
C      1  0.6026430000000  0.5904220000000  0.4589160000000 1.0
C      1  0.6175500000000  0.3944540000000  0.5145520000000 1.0
C      1  0.5006450000000  0.5004560000000  0.3882750000000 1.0
C      1  0.5735790000000  0.5829620000000  0.4975490000000 1.0
C      1  0.4435090000000  0.5113190000000  0.6077160000000 1.0
C      1  0.4808900000000  0.4145920000000  0.5951060000000 1.0
C      1  0.4870170000000  0.5367790000000  0.5580780000000 1.0
C      1  0.4883340000000  0.5417850000000  0.3649220000000 1.0
C      1  0.4482690000000  0.4498710000000  0.4523950000000 1.0
C      1  0.3929770000000  0.5507630000000  0.4273650000000 1.0
C      1  0.4705420000000  0.5536490000000  0.6080390000000 1.0
C      1  0.3865810000000  0.4566830000000  0.4965310000000 1.0
C      1  0.4890800000000  0.4840880000000  0.4785560000000 1.0
C      1  0.5196430000000  0.5857970000000  0.5650240000000 1.0
C      1  0.4277160000000  0.3813780000000  0.4457600000000 1.0
C      1  0.5826940000000  0.4833510000000  0.6059120000000 1.0
C      1  0.4465910000000  0.3434140000000  0.5115850000000 1.0
C      1  0.4325740000000  0.3893250000000  0.5645860000000 1.0
C      1  0.5970460000000  0.5780880000000  0.5463950000000 1.0
C      1  0.6113040000000  0.5523510000000  0.4876520000000 1.0
C      1  0.4820010000000  0.4331630000000  0.5731100000000 1.0
C      1  0.4162350000000  0.4691040000000  0.5613910000000 1.0
C      1  0.5238440000000  0.5010200000000  0.5355270000000 1.0
C      1  0.3923360000000  0.5462560000000  0.5970090000000 1.0
C      1  0.3881030000000  0.5592880000000  0.4545380000000 1.0
C      1  0.5058750000000  0.5686840000000  0.4956050000000 1.0
C      1  0.3968780000000  0.4694020000000  0.4354590000000 1.0
C      1  0.4823770000000  0.5318880000000  0.4682340000000 1.0
C      1  0.4767510000000  0.5784300000000  0.5924970000000 1.0
C      1  0.5375580000000  0.4593140000000  0.4373460000000 1.0
C      1  0.4808590000000  0.4480110000000  0.4153940000000 1.0
C      1  0.4681190000000  0.4963750000000  0.6140570000000 1.0
C      1  0.5773340000000  0.6317000000000  0.4562940000000 1.0
C      1  0.5752410000000  0.5230510000000  0.5653740000000 1.0
C      1  0.4785160000000  0.4230900000000  0.5470240000000 1.0
C      1  0.5156510000000  0.5369820000000  0.5687590000000 1.0
C      1  0.5231590000000  0.4837580000000  0.3932290000000 1.0
C      1  0.4900740000000  0.4744660000000  0.5051710000000 1.0
C      1  0.5545210000000  0.4143240000000  0.4404610000000 1.0
C      1  0.5370520000000  0.4628380000000  0.3459170000000 1.0
C      1  0.6243600000000  0.5319880000000  0.4990200000000 1.0
C      1  0.4270420000000  0.5126680000000  0.4209130000000 1.0
C      1  0.6191000000000  0.4913490000000  0.5705650000000 1.0
C      1  0.4564570000000  0.4975250000000  0.5570270000000 1.0
C      1  0.3888400000000  0.5647980000000  0.4046020000000 1.0
C      1  0.4501310000000  0.5370340000000  0.5921770000000 1.0
C      1  0.6225400000000  0.4714330000000  0.4796980000000 1.0
C      1  0.5974670000000  0.6151450000000  0.4500540000000 1.0
C      1  0.4759640000000  0.4884160000000  0.3821940000000 1.0
C      1  0.5098140000000  0.4088600000000  0.4167690000000 1.0
C      1  0.6056830000000  0.5003680000000  0.4327680000000 1.0
C      1  0.4381240000000  0.4700990000000  0.5177990000000 1.0
C      1  0.5437430000000  0.5013770000000  0.5142070000000 1.0
C      1  0.4973740000000  0.4299750000000  0.5263460000000 1.0
C      1  0.6329220000000  0.5408950000000  0.5559970000000 1.0
C      1  0.3975840000000  0.5937010000000  0.5861880000000 1.0
C      1  0.6076060000000  0.4852790000000  0.5958180000000 1.0
C      1  0.3938100000000  0.4546380000000  0.5623460000000 1.0
C      1  0.4512330000000  0.4249740000000  0.5361950000000 1.0
C      1  0.4958990000000  0.3658300000000  0.5922090000000 1.0
C      1  0.4737690000000  0.5200980000000  0.5184250000000 1.0
C      1  0.4211490000000  0.5290010000000  0.5166750000000 1.0
C      1  0.4143350000000  0.4647030000000  0.4134940000000 1.0
C      1  0.4328930000000  0.4282130000000  0.4553560000000 1.0
C      1  0.4643070000000  0.3506330000000  0.5615190000000 1.0
C      1  0.5639220000000  0.5193740000000  0.5018610000000 1.0
C      1  0.3953980000000  0.5139960000000  0.4571250000000 1.0
C      1  0.5770460000000  0.4045090000000  0.4891460000000 1.0
C      1  0.4500760000000  0.5251810000000  0.4327690000000 1.0
C      1  0.6016830000000  0.4830980000000  0.5486700000000 1.0
C      1  0.5155820000000  0.4506020000000  0.4542170000000 1.0
C      1  0.5161330000000  0.4619340000000  0.6336600000000 1.0
C      1  0.5712160000000  0.5153170000000  0.4722530000000 1.0
C      1  0.4746440000000  0.5830040000000  0.4631340000000 1.0
C      1  0.4881540000000  0.5596770000000  0.4736920000000 1.0
C      1  0.4850230000000  0.4264760000000  0.6203310000000 1.0
C      1  0.5781610000000  0.4532790000000  0.4655470000000 1.0
C      1  0.5828680000000  0.5884650000000  0.5238060000000 1.0
C      1  0.4938400000000  0.5431200000000  0.4119180000000 1.0
C      1  0.4530780000000  0.5957880000000  0.4766670000000 1.0
C      1  0.5628030000000  0.4008390000000  0.4644120000000 1.0
C      1  0.4317060000000  0.3628600000000  0.4645350000000 1.0
C      1  0.5056410000000  0.5783840000000  0.5889790000000 1.0
C      1  0.4928690000000  0.6007100000000  0.4495800000000 1.0
C      1  0.5132100000000  0.6288370000000  0.5337300000000 1.0
C      1  0.5391740000000  0.4134410000000  0.4135760000000 1.0
C      1  0.5056880000000  0.4032280000000  0.4448110000000 1.0
C      1  0.3953850000000  0.4856760000000  0.4588380000000 1.0
C      1  0.4890410000000  0.3449680000000  0.5753430000000 1.0
C      1  0.5355310000000  0.4819250000000  0.4190500000000 1.0
C      1  0.5004420000000  0.5288700000000  0.3876060000000 1.0
C      1  0.3747570000000  0.4459170000000  0.5177970000000 1.0
C      1  0.4474390000000  0.5200070000000  0.5082940000000 1.0
C      1  0.5399130000000  0.4949500000000  0.5834140000000 1.0
C      1  0.5268380000000  0.5047860000000  0.4721100000000 1.0
C      1  0.5289690000000  0.5608020000000  0.5534570000000 1.0
C      1  0.4638940000000  0.5839990000000  0.5229030000000 1.0
C      1  0.4640560000000  0.5540680000000  0.3683350000000 1.0
C      1  0.4821970000000  0.4621830000000  0.5767980000000 1.0
C      1  0.4849660000000  0.5421430000000  0.5305340000000 1.0
C      1  0.4673350000000  0.6424870000000  0.4779880000000 1.0
C      1  0.4922360000000  0.4662330000000  0.4572350000000 1.0
C      1  0.5248930000000  0.4259150000000  0.5238770000000 1.0
C      1  0.4179600000000  0.4389830000000  0.4001010000000 1.0
C      1  0.4808910000000  0.4814020000000  0.5551750000000 1.0
C      1  0.5473110000000  0.5143070000000  0.4561150000000 1.0
C      1  0.4940670000000  0.6365810000000  0.4847750000000 1.0
C      1  0.4603860000000  0.4100610000000  0.3988810000000 1.0
C      1  0.4026340000000  0.5236970000000  0.4302420000000 1.0
C      1  0.5543870000000  0.6280580000000  0.4694410000000 1.0
C      1  0.4531680000000  0.4459100000000  0.5167230000000 1.0
C      1  0.3946840000000  0.5386520000000  0.4743800000000 1.0
C      1  0.5357970000000  0.4859520000000  0.4918610000000 1.0
C      1  0.5108090000000  0.5637650000000  0.4215750000000 1.0
C      1  0.3951080000000  0.5147060000000  0.5621750000000 1.0
C      1  0.4293340000000  0.4076560000000  0.4364580000000 1.0
C      1  0.4438300000000  0.5058840000000  0.4829140000000 1.0
C      1  0.6332310000000  0.5157390000000  0.5659130000000 1.0
C      1  0.4344260000000  0.5616360000000  0.5800770000000 1.0
C      1  0.5959030000000  0.4737950000000  0.4703290000000 1.0
C      1  0.4782190000000  0.4711910000000  0.6044510000000 1.0
C      1  0.4444990000000  0.5849590000000  0.5013780000000 1.0
C      1  0.4762910000000  0.3871690000000  0.5908150000000 1.0
C      1  0.4997380000000  0.5101940000000  0.4728960000000 1.0
C      1  0.5544410000000  0.4839010000000  0.6051520000000 1.0
C      1  0.4515110000000  0.6227390000000  0.5489120000000 1.0
C      1  0.4571760000000  0.5958220000000  0.5483740000000 1.0
C      1  0.4089020000000  0.5468650000000  0.4979190000000 1.0
C      1  0.5336840000000  0.6102030000000  0.4756770000000 1.0
C      1  0.4499780000000  0.4860280000000  0.3871360000000 1.0
C      1  0.4055270000000  0.5205540000000  0.5382900000000 1.0
C      1  0.5014000000000  0.5904770000000  0.4247410000000 1.0
C      1  0.3884280000000  0.6180140000000  0.5841430000000 1.0
C      1  0.6411880000000  0.4783210000000  0.4591430000000 1.0
C      1  0.5278500000000  0.5102260000000  0.5629220000000 1.0
C      1  0.5910310000000  0.4995100000000  0.4584190000000 1.0
C      1  0.5946540000000  0.5739180000000  0.4801730000000 1.0
C      1  0.4913000000000  0.4538090000000  0.6235570000000 1.0
C      1  0.5756820000000  0.5470210000000  0.5772250000000 1.0
C      1  0.4858370000000  0.4216260000000  0.4055740000000 1.0
C      1  0.5037970000000  0.6393350000000  0.5110410000000 1.0
C      1  0.4043500000000  0.4351590000000  0.3764040000000 1.0
C      1  0.5801510000000  0.5014750000000  0.5500820000000 1.0
C      1  0.4888370000000  0.5133110000000  0.6246080000000 1.0
C      1  0.4648650000000  0.5432370000000  0.4159380000000 1.0
C      1  0.4352410000000  0.4817070000000  0.5447980000000 1.0
C      1  0.3765170000000  0.4447950000000  0.5444430000000 1.0
C      1  0.4191160000000  0.5729660000000  0.5010490000000 1.0
C      1  0.4947260000000  0.4918390000000  0.5290160000000 1.0
C      1  0.4631170000000  0.5239250000000  0.5678140000000 1.0
C      1  0.4078790000000  0.5679140000000  0.5877710000000 1.0
C      1  0.5430150000000  0.5647560000000  0.4609110000000 1.0
C      1  0.5736670000000  0.4274120000000  0.5079060000000 1.0
C      1  0.4385080000000  0.3507900000000  0.4872960000000 1.0
C      1  0.4814940000000  0.4483560000000  0.5102410000000 1.0
C      1  0.5193460000000  0.6103780000000  0.5519900000000 1.0
C      1  0.4310410000000  0.4090920000000  0.5465720000000 1.0
C      1  0.5838610000000  0.4750490000000  0.3898740000000 1.0
C      1  0.5751420000000  0.4479070000000  0.3945440000000 1.0
C      1  0.4554200000000  0.5814140000000  0.5729200000000 1.0
C      1  0.5340660000000  0.5586450000000  0.4364260000000 1.0
C      1  0.5386410000000  0.5819190000000  0.4843450000000 1.0
C      1  0.5329380000000  0.4707340000000  0.3704420000000 1.0
C      1  0.5987170000000  0.3874930000000  0.4962800000000 1.0
C      1  0.4344120000000  0.4167960000000  0.4096560000000 1.0
C      1  0.5636320000000  0.4436720000000  0.4421210000000 1.0
C      1  0.6241690000000  0.4799010000000  0.5065820000000 1.0
C      1  0.4037020000000  0.4741170000000  0.4830250000000 1.0
C      1  0.4561900000000  0.5212200000000  0.4606110000000 1.0
C      1  0.4488760000000  0.6234750000000  0.4726160000000 1.0
C      1  0.4158820000000  0.5051080000000  0.6058770000000 1.0
C      1  0.4293990000000  0.4881520000000  0.4059280000000 1.0
C      1  0.4520240000000  0.5549180000000  0.3929360000000 1.0
C      1  0.5469920000000  0.4370790000000  0.5104210000000 1.0
C      1  0.4294300000000  0.4816900000000  0.4925230000000 1.0
C      1  0.4943580000000  0.5390710000000  0.6154590000000 1.0
C      1  0.4717350000000  0.4584630000000  0.4400270000000 1.0
C      1  0.5406240000000  0.4591210000000  0.4945530000000 1.0
C      1  0.3969230000000  0.5192590000000  0.5899290000000 1.0
C      1  0.5074210000000  0.6177820000000  0.4676410000000 1.0
C      1  0.6215410000000  0.5633710000000  0.5460120000000 1.0
C      1  0.5462700000000  0.5564500000000  0.5323890000000 1.0
C      1  0.5848170000000  0.4432050000000  0.4210620000000 1.0
C      1  0.5394200000000  0.4724120000000  0.6259170000000 1.0
END
