TITL C-612601-4209-1038 8.54786913892147 125000 -245.204194985919 0 0 43 (C1) n - 1
REM
REM in /home/nfs/bkarasulu/CARBON/AIRSS/Generating-Clusters/TERSOFF/Only-C1/FIRE-HFTN
REM
REM
REM
REM
REM
REM ./C.cell (11c1c37f851c82e70ff6c80c92926a4b)
REM AIRSS Version 0.9.1 bugfix July 2018 build 013d7b7c2542+ Fri, 06 Jul 2018 19:26:36 +0100
REM compiler GCC version 9.2.1 20190827 (Red Hat 9.2.1-1)
REM options -cpp -mtune=generic -march=x86-64 -g -O0 -fpre-include=/usr/include/finclude/math-vector-fortran.h
REM seed 674441729 702764135 2113646508 -458887985 1411266707 -1142750307 -650515071 203922765 -1571498951 1259476816 528791058 -1849904817 -1116511882 2072003277 -1422193559 465012769 1273643221 -777133240 672696253 1661070559 1089112538 219565511 -643731170 -1301374468 -1081608030 -1526102952 1955396071 -1196042998 -196181576 1944130282 -2016912328 -1747677306 -1230065872
REM
CELL 1.54180   50.00000   50.00000   50.00000   90.00000   90.00000   90.00000
LATT -1
SFAC C  
C      1  0.5008420000000  0.5253350000000  0.5244570000000 1.0
C      1  0.6516650000000  0.4518010000000  0.5344040000000 1.0
C      1  0.4480150000000  0.4916740000000  0.4680570000000 1.0
C      1  0.4846900000000  0.5077840000000  0.5400790000000 1.0
C      1  0.4710130000000  0.4619820000000  0.5356900000000 1.0
C      1  0.6302500000000  0.4666470000000  0.5336340000000 1.0
C      1  0.4999950000000  0.5220320000000  0.4965360000000 1.0
C      1  0.4555740000000  0.5268060000000  0.3860820000000 1.0
C      1  0.5670040000000  0.5016770000000  0.5776280000000 1.0
C      1  0.4684730000000  0.5123750000000  0.4042690000000 1.0
C      1  0.5685570000000  0.5123390000000  0.6018230000000 1.0
C      1  0.6084640000000  0.4817040000000  0.5328970000000 1.0
C      1  0.5699350000000  0.5234060000000  0.6258680000000 1.0
C      1  0.4921710000000  0.4802680000000  0.5416370000000 1.0
C      1  0.4345260000000  0.5068770000000  0.5301500000000 1.0
C      1  0.5853070000000  0.4972960000000  0.5326420000000 1.0
C      1  0.4056830000000  0.5436600000000  0.4467160000000 1.0
C      1  0.4170090000000  0.5527660000000  0.3970380000000 1.0
C      1  0.4270050000000  0.4964050000000  0.5058300000000 1.0
C      1  0.4674760000000  0.4548890000000  0.5083010000000 1.0
C      1  0.4341420000000  0.5533390000000  0.3518830000000 1.0
C      1  0.5176020000000  0.4706680000000  0.5323710000000 1.0
C      1  0.4956790000000  0.4364320000000  0.4495330000000 1.0
C      1  0.5646370000000  0.4922490000000  0.5514620000000 1.0
C      1  0.5712650000000  0.5343360000000  0.6494990000000 1.0
C      1  0.4127740000000  0.5285400000000  0.4673560000000 1.0
C      1  0.4915800000000  0.4442930000000  0.4967760000000 1.0
C      1  0.5330160000000  0.5610180000000  0.5487900000000 1.0
C      1  0.4715210000000  0.5012740000000  0.4563010000000 1.0
C      1  0.4918240000000  0.4265950000000  0.4747980000000 1.0
C      1  0.4269080000000  0.5086660000000  0.4800860000000 1.0
C      1  0.4355390000000  0.5445300000000  0.3776720000000 1.0
C      1  0.4487390000000  0.4689130000000  0.4940000000000 1.0
C      1  0.4571480000000  0.5134190000000  0.5430880000000 1.0
C      1  0.5169710000000  0.5445770000000  0.5364840000000 1.0
C      1  0.4882170000000  0.3997760000000  0.4790100000000 1.0
C      1  0.4069290000000  0.5522600000000  0.4216130000000 1.0
C      1  0.5152470000000  0.4532640000000  0.5099220000000 1.0
C      1  0.5418080000000  0.4783230000000  0.5434790000000 1.0
C      1  0.4739220000000  0.5031910000000  0.4285750000000 1.0
C      1  0.5777740000000  0.5364070000000  0.4962340000000 1.0
C      1  0.4908540000000  0.5124350000000  0.4734350000000 1.0
C      1  0.5822500000000  0.5177730000000  0.5138950000000 1.0
END
