TITL C-612600-6631-1427 -9.06328851956639e-05 125000 -496.359980824154 0 0 81 (C1) n - 1
REM
REM in /home/nfs/bkarasulu/CARBON/AIRSS/Generating-Clusters/TERSOFF/Only-C1/FIRE-HFTN
REM
REM
REM
REM
REM
REM ./C.cell (11c1c37f851c82e70ff6c80c92926a4b)
REM AIRSS Version 0.9.1 bugfix July 2018 build 013d7b7c2542+ Fri, 06 Jul 2018 19:26:36 +0100
REM compiler GCC version 9.2.1 20190827 (Red Hat 9.2.1-1)
REM options -cpp -mtune=generic -march=x86-64 -g -O0 -fpre-include=/usr/include/finclude/math-vector-fortran.h
REM seed 1445818082 -1130418572 -1832640835 -1582948882 -1850178695 -347980141 -1659396047 -1283214761 -767060909 1658919336 1751929233 1661344377 -1838705938 -748666379 1081361144 1829359843 33445305 1114807221 -1644387777 900937867 2105452361 -1898508006 -1982200461 -1601253836 737862203 -1196348455 1752647890 1085147198 517594124 1121623559 1859646133 723943059 413107828
REM
CELL 1.54180   50.00000   50.00000   50.00000   90.00000   90.00000   90.00000
LATT -1
SFAC C  
C      1  0.3743510000000  0.5103840000000  0.4583020000000 1.0
C      1  0.4467680000000  0.5028390000000  0.4008670000000 1.0
C      1  0.5154620000000  0.4511340000000  0.4990500000000 1.0
C      1  0.5451780000000  0.5612760000000  0.5707230000000 1.0
C      1  0.5633740000000  0.4297770000000  0.4990830000000 1.0
C      1  0.4602450000000  0.5401980000000  0.4677340000000 1.0
C      1  0.5288790000000  0.5492400000000  0.4804530000000 1.0
C      1  0.5383810000000  0.4975090000000  0.5724800000000 1.0
C      1  0.5052280000000  0.5589760000000  0.4651370000000 1.0
C      1  0.4132250000000  0.5000200000000  0.5366750000000 1.0
C      1  0.4439180000000  0.5062550000000  0.6034700000000 1.0
C      1  0.5686210000000  0.5186760000000  0.4696700000000 1.0
C      1  0.4328140000000  0.4308830000000  0.5222950000000 1.0
C      1  0.5149090000000  0.5757610000000  0.5385830000000 1.0
C      1  0.4265030000000  0.5225460000000  0.5316840000000 1.0
C      1  0.4734960000000  0.4088130000000  0.5038400000000 1.0
C      1  0.5517370000000  0.4698410000000  0.4728040000000 1.0
C      1  0.5222430000000  0.4555280000000  0.5569190000000 1.0
C      1  0.6013980000000  0.4947280000000  0.5503700000000 1.0
C      1  0.5579940000000  0.4936910000000  0.4570820000000 1.0
C      1  0.4089390000000  0.4737450000000  0.5373500000000 1.0
C      1  0.5360010000000  0.4331470000000  0.5527460000000 1.0
C      1  0.4153010000000  0.4482900000000  0.5325880000000 1.0
C      1  0.5396930000000  0.4095170000000  0.5381700000000 1.0
C      1  0.5597670000000  0.5567520000000  0.5459080000000 1.0
C      1  0.5921510000000  0.5381880000000  0.5131980000000 1.0
C      1  0.6129480000000  0.5538010000000  0.5049440000000 1.0
C      1  0.4971400000000  0.3939210000000  0.5067320000000 1.0
C      1  0.4772100000000  0.4832980000000  0.5018400000000 1.0
C      1  0.4988810000000  0.5430720000000  0.5731860000000 1.0
C      1  0.5376140000000  0.5021170000000  0.4363920000000 1.0
C      1  0.5372380000000  0.5122350000000  0.5150460000000 1.0
C      1  0.5443270000000  0.4117970000000  0.5095640000000 1.0
C      1  0.5163860000000  0.5642780000000  0.5661290000000 1.0
C      1  0.4669890000000  0.4571890000000  0.5030310000000 1.0
C      1  0.4744830000000  0.5258250000000  0.5214300000000 1.0
C      1  0.4231250000000  0.5121810000000  0.4136550000000 1.0
C      1  0.4329800000000  0.5412340000000  0.4588760000000 1.0
C      1  0.5020860000000  0.3798110000000  0.5310950000000 1.0
C      1  0.4740310000000  0.5160480000000  0.4602810000000 1.0
C      1  0.5263720000000  0.5392510000000  0.5087650000000 1.0
C      1  0.5790820000000  0.5193430000000  0.4961350000000 1.0
C      1  0.4549940000000  0.4765680000000  0.3942860000000 1.0
C      1  0.5492600000000  0.5387520000000  0.4626360000000 1.0
C      1  0.4646530000000  0.5120690000000  0.5887940000000 1.0
C      1  0.4482710000000  0.5376100000000  0.5229410000000 1.0
C      1  0.5846520000000  0.5164480000000  0.5576410000000 1.0
C      1  0.4273320000000  0.5338840000000  0.4319130000000 1.0
C      1  0.4718800000000  0.5746680000000  0.5015920000000 1.0
C      1  0.4810120000000  0.4986950000000  0.5260210000000 1.0
C      1  0.4939410000000  0.4968440000000  0.5523180000000 1.0
C      1  0.5816360000000  0.5394660000000  0.5403420000000 1.0
C      1  0.4692890000000  0.5185990000000  0.4079950000000 1.0
C      1  0.4104770000000  0.5402960000000  0.4758190000000 1.0
C      1  0.5219540000000  0.4017540000000  0.4944130000000 1.0
C      1  0.5021760000000  0.4720860000000  0.4132220000000 1.0
C      1  0.4859340000000  0.5176890000000  0.5714900000000 1.0
C      1  0.5626630000000  0.5009460000000  0.5111760000000 1.0
C      1  0.5747860000000  0.4753020000000  0.5140770000000 1.0
C      1  0.5237370000000  0.4648290000000  0.4770750000000 1.0
C      1  0.5390980000000  0.5620490000000  0.5261110000000 1.0
C      1  0.5148220000000  0.4846490000000  0.4349920000000 1.0
C      1  0.4795060000000  0.4662920000000  0.3998600000000 1.0
C      1  0.4797640000000  0.5169810000000  0.4325840000000 1.0
C      1  0.4473590000000  0.5645200000000  0.5130220000000 1.0
C      1  0.5124150000000  0.5501830000000  0.4379190000000 1.0
C      1  0.5344880000000  0.5312780000000  0.4374070000000 1.0
C      1  0.4841990000000  0.4935900000000  0.4751530000000 1.0
C      1  0.3870000000000  0.5271940000000  0.4750090000000 1.0
C      1  0.5623000000000  0.5092960000000  0.5734170000000 1.0
C      1  0.5952860000000  0.4745340000000  0.5333370000000 1.0
C      1  0.5176180000000  0.4828430000000  0.5600890000000 1.0
C      1  0.5051260000000  0.4790250000000  0.4614710000000 1.0
C      1  0.4576110000000  0.4314100000000  0.5090870000000 1.0
C      1  0.4781820000000  0.5619340000000  0.4755580000000 1.0
C      1  0.4930450000000  0.5706690000000  0.5207800000000 1.0
C      1  0.4971740000000  0.5416340000000  0.5168750000000 1.0
C      1  0.5240780000000  0.3867910000000  0.5457100000000 1.0
C      1  0.3788750000000  0.4990210000000  0.4343820000000 1.0
C      1  0.5676700000000  0.4571870000000  0.4934490000000 1.0
C      1  0.3982750000000  0.4993000000000  0.4157550000000 1.0
END
