TITL C-612606-7351-927 0.0320242503705392 125000 -610.430656805854 0 0 99 (C1) n - 1
REM
REM in /home/nfs/bkarasulu/CARBON/AIRSS/Generating-Clusters/TERSOFF/Only-C1/FIRE-HFTN
REM
REM
REM
REM
REM
REM ./C.cell (11c1c37f851c82e70ff6c80c92926a4b)
REM AIRSS Version 0.9.1 bugfix July 2018 build 013d7b7c2542+ Fri, 06 Jul 2018 19:26:36 +0100
REM compiler GCC version 9.2.1 20190827 (Red Hat 9.2.1-1)
REM options -cpp -mtune=generic -march=x86-64 -g -O0 -fpre-include=/usr/include/finclude/math-vector-fortran.h
REM seed 1364576380 943758013 360497862 -1669434963 -67251400 -344033140 -177781938 984745504 609714672 -1345965386 41336539 -1516413259 -510357348 142422777 1279980212 766437037 -118140126 775744982 26758574 729138105 -1149971850 384497240 1065425594 991494277 -2098414558 1951921760 -1072814344 -1706810139 1772395351 -1266836931 1184543654 -736029577 -1481934034
REM
CELL 1.54180   50.00000   50.00000   50.00000   90.00000   90.00000   90.00000
LATT -1
SFAC C  
C      1  0.4414380000000  0.4717040000000  0.5146250000000 1.0
C      1  0.4925440000000  0.4850750000000  0.4099380000000 1.0
C      1  0.4405840000000  0.5493560000000  0.5364810000000 1.0
C      1  0.5434750000000  0.5539970000000  0.4671630000000 1.0
C      1  0.5417010000000  0.5782930000000  0.5661130000000 1.0
C      1  0.4447210000000  0.5065030000000  0.5878400000000 1.0
C      1  0.4779560000000  0.5117320000000  0.4631980000000 1.0
C      1  0.5762250000000  0.4520320000000  0.5648140000000 1.0
C      1  0.4576410000000  0.4865830000000  0.6029550000000 1.0
C      1  0.4793200000000  0.4605920000000  0.4048020000000 1.0
C      1  0.4764010000000  0.4675640000000  0.6036330000000 1.0
C      1  0.5010670000000  0.5173350000000  0.4812560000000 1.0
C      1  0.4239740000000  0.5006180000000  0.4391210000000 1.0
C      1  0.4508580000000  0.5346120000000  0.5934770000000 1.0
C      1  0.4712750000000  0.5501220000000  0.5009490000000 1.0
C      1  0.5471750000000  0.4887990000000  0.4240810000000 1.0
C      1  0.4348620000000  0.4859350000000  0.4600000000000 1.0
C      1  0.5913720000000  0.5160300000000  0.5345870000000 1.0
C      1  0.5488320000000  0.4698150000000  0.4718040000000 1.0
C      1  0.5529660000000  0.5096700000000  0.5895640000000 1.0
C      1  0.5416850000000  0.5154380000000  0.4319780000000 1.0
C      1  0.5600280000000  0.4472120000000  0.5432770000000 1.0
C      1  0.4659510000000  0.5573280000000  0.4746880000000 1.0
C      1  0.5064240000000  0.5866490000000  0.5253860000000 1.0
C      1  0.5045210000000  0.5836750000000  0.4679150000000 1.0
C      1  0.4637360000000  0.4142160000000  0.5313320000000 1.0
C      1  0.6175660000000  0.5178480000000  0.5249760000000 1.0
C      1  0.5191250000000  0.5276610000000  0.4195920000000 1.0
C      1  0.4918600000000  0.4163550000000  0.5233980000000 1.0
C      1  0.5322130000000  0.5808440000000  0.5396110000000 1.0
C      1  0.4956500000000  0.4287780000000  0.4979500000000 1.0
C      1  0.5373010000000  0.4913330000000  0.5768220000000 1.0
C      1  0.5077420000000  0.4261920000000  0.5466440000000 1.0
C      1  0.4085120000000  0.5093100000000  0.4174760000000 1.0
C      1  0.5067150000000  0.4879700000000  0.5310670000000 1.0
C      1  0.5737180000000  0.4831140000000  0.4769100000000 1.0
C      1  0.4213040000000  0.4580020000000  0.4995680000000 1.0
C      1  0.5425650000000  0.4171880000000  0.4897300000000 1.0
C      1  0.4208810000000  0.4639020000000  0.4707700000000 1.0
C      1  0.4867050000000  0.5081990000000  0.5254180000000 1.0
C      1  0.5384620000000  0.5354190000000  0.5289980000000 1.0
C      1  0.5142460000000  0.5841010000000  0.4954660000000 1.0
C      1  0.5107290000000  0.4708730000000  0.5086120000000 1.0
C      1  0.6415010000000  0.5190280000000  0.5147350000000 1.0
C      1  0.5551220000000  0.5283660000000  0.4550810000000 1.0
C      1  0.5346770000000  0.4344840000000  0.5466640000000 1.0
C      1  0.4870840000000  0.5266730000000  0.5041570000000 1.0
C      1  0.4656980000000  0.5792910000000  0.4357390000000 1.0
C      1  0.4614430000000  0.5642040000000  0.5234090000000 1.0
C      1  0.4990060000000  0.5123040000000  0.4057960000000 1.0
C      1  0.5850010000000  0.5276400000000  0.5593590000000 1.0
C      1  0.5640290000000  0.4302650000000  0.4992150000000 1.0
C      1  0.4966880000000  0.5372070000000  0.5590630000000 1.0
C      1  0.5397530000000  0.5671850000000  0.4937340000000 1.0
C      1  0.5716270000000  0.5028300000000  0.5187260000000 1.0
C      1  0.4613910000000  0.4298400000000  0.5556380000000 1.0
C      1  0.4880510000000  0.4335920000000  0.5669010000000 1.0
C      1  0.4608160000000  0.4898380000000  0.4718760000000 1.0
C      1  0.5271910000000  0.4414850000000  0.4323590000000 1.0
C      1  0.4761250000000  0.5203940000000  0.5479290000000 1.0
C      1  0.5402060000000  0.4629330000000  0.4229500000000 1.0
C      1  0.4881150000000  0.4565940000000  0.4993170000000 1.0
C      1  0.4644890000000  0.4463790000000  0.4241710000000 1.0
C      1  0.4645780000000  0.5360850000000  0.4541000000000 1.0
C      1  0.4595080000000  0.5516370000000  0.4294450000000 1.0
C      1  0.4646100000000  0.5572990000000  0.5857880000000 1.0
C      1  0.4846930000000  0.5625400000000  0.5654310000000 1.0
C      1  0.4374920000000  0.5004750000000  0.5595250000000 1.0
C      1  0.4809340000000  0.4501130000000  0.3794670000000 1.0
C      1  0.4474100000000  0.4342200000000  0.4408600000000 1.0
C      1  0.5442980000000  0.5615530000000  0.5215110000000 1.0
C      1  0.5164300000000  0.4213240000000  0.4795040000000 1.0
C      1  0.5219020000000  0.5269390000000  0.5504710000000 1.0
C      1  0.5277760000000  0.4791040000000  0.4875890000000 1.0
C      1  0.4898280000000  0.4485810000000  0.5903770000000 1.0
C      1  0.4293650000000  0.4240110000000  0.4932350000000 1.0
C      1  0.5224090000000  0.5674760000000  0.4510190000000 1.0
C      1  0.5659400000000  0.5329930000000  0.5794920000000 1.0
C      1  0.5697660000000  0.4520040000000  0.5165830000000 1.0
C      1  0.4428540000000  0.4509220000000  0.5577160000000 1.0
C      1  0.5774000000000  0.4780340000000  0.5057360000000 1.0
C      1  0.4648690000000  0.4733130000000  0.4961770000000 1.0
C      1  0.4389160000000  0.4754650000000  0.5437560000000 1.0
C      1  0.4600520000000  0.5419160000000  0.4034060000000 1.0
C      1  0.4476790000000  0.5239100000000  0.5464380000000 1.0
C      1  0.5228540000000  0.4974050000000  0.5534130000000 1.0
C      1  0.5467490000000  0.5158520000000  0.5105060000000 1.0
C      1  0.4821270000000  0.5770550000000  0.5394790000000 1.0
C      1  0.5272700000000  0.5077240000000  0.4892980000000 1.0
C      1  0.3919650000000  0.5309160000000  0.4204550000000 1.0
C      1  0.4100860000000  0.4960330000000  0.3935790000000 1.0
C      1  0.5545340000000  0.5590920000000  0.5804000000000 1.0
C      1  0.5155630000000  0.4273220000000  0.4519360000000 1.0
C      1  0.4297350000000  0.4359890000000  0.4623990000000 1.0
C      1  0.4769100000000  0.5812780000000  0.4622860000000 1.0
C      1  0.4433620000000  0.4106920000000  0.5125480000000 1.0
C      1  0.5161040000000  0.5549520000000  0.4265700000000 1.0
C      1  0.4792090000000  0.5269930000000  0.3920230000000 1.0
C      1  0.5747810000000  0.5102740000000  0.4666750000000 1.0
END
