TITL C-612605-9286-1071 11632.3048923594 125000 -996.257616350496 0 0 161 (C1) n - 1
REM
REM in /home/nfs/bkarasulu/CARBON/AIRSS/Generating-Clusters/TERSOFF/Only-C1/FIRE-HFTN
REM
REM
REM
REM
REM
REM ./C.cell (11c1c37f851c82e70ff6c80c92926a4b)
REM AIRSS Version 0.9.1 bugfix July 2018 build 013d7b7c2542+ Fri, 06 Jul 2018 19:26:36 +0100
REM compiler GCC version 9.2.1 20190827 (Red Hat 9.2.1-1)
REM options -cpp -mtune=generic -march=x86-64 -g -O0 -fpre-include=/usr/include/finclude/math-vector-fortran.h
REM seed 55005299 -367725010 -461747210 -808122777 -555180235 -1735386336 -1046577185 697138058 828667895 -1669120208 309771159 862008005 2061033968 -734248149 482548086 34189111 -1610432634 -1664304046 986994383 1534020193 138455633 -271230165 1850840520 2133967337 -1886236738 -395982030 -1110737814 -605137504 -2084871948 -138351482 183498843 1498464206 -70971087
REM
CELL 1.54180   50.00000   50.00000   50.00000   90.00000   90.00000   90.00000
LATT -1
SFAC C  
C      1  0.6486750000000  0.3792840000000  0.4697810000000 1.0
C      1  0.5454480000000  0.3843430000000  0.5833850000000 1.0
C      1  0.3939090000000  0.5173280000000  0.5865000000000 1.0
C      1  0.5312930000000  0.5621570000000  0.5282410000000 1.0
C      1  0.5100950000000  0.5592670000000  0.5897240000000 1.0
C      1  0.4575820000000  0.5303040000000  0.5972410000000 1.0
C      1  0.4757830000000  0.4253110000000  0.5616980000000 1.0
C      1  0.4578150000000  0.5496060000000  0.5526650000000 1.0
C      1  0.5648200000000  0.4657080000000  0.4644840000000 1.0
C      1  0.5044050000000  0.4843400000000  0.4515480000000 1.0
C      1  0.4499730000000  0.5946170000000  0.5488510000000 1.0
C      1  0.5118770000000  0.5577840000000  0.5074450000000 1.0
C      1  0.5864380000000  0.5079500000000  0.5688350000000 1.0
C      1  0.5603800000000  0.3853710000000  0.5611860000000 1.0
C      1  0.4569550000000  0.4603800000000  0.5887210000000 1.0
C      1  0.5656620000000  0.4048610000000  0.5416020000000 1.0
C      1  0.5248990000000  0.4694210000000  0.5553150000000 1.0
C      1  0.5187180000000  0.4333790000000  0.4566820000000 1.0
C      1  0.4839170000000  0.4158350000000  0.3478300000000 1.0
C      1  0.5675360000000  0.4668400000000  0.5802880000000 1.0
C      1  0.3907560000000  0.5258570000000  0.6342890000000 1.0
C      1  0.5041190000000  0.4089570000000  0.5228790000000 1.0
C      1  0.5376090000000  0.5272130000000  0.4349970000000 1.0
C      1  0.4335810000000  0.5291370000000  0.6114620000000 1.0
C      1  0.4840870000000  0.5727680000000  0.5843360000000 1.0
C      1  0.4765680000000  0.4097780000000  0.5862480000000 1.0
C      1  0.4801580000000  0.5277160000000  0.4009130000000 1.0
C      1  0.4637640000000  0.5527840000000  0.5806600000000 1.0
C      1  0.3855660000000  0.5489490000000  0.5112500000000 1.0
C      1  0.4478860000000  0.4588210000000  0.5368810000000 1.0
C      1  0.6025690000000  0.4047580000000  0.4719160000000 1.0
C      1  0.4604780000000  0.3990100000000  0.4301920000000 1.0
C      1  0.4953850000000  0.5036220000000  0.5424640000000 1.0
C      1  0.4991510000000  0.4789330000000  0.6107110000000 1.0
C      1  0.3995260000000  0.5106950000000  0.4851430000000 1.0
C      1  0.4467420000000  0.4411490000000  0.6070290000000 1.0
C      1  0.4694810000000  0.5064060000000  0.5870670000000 1.0
C      1  0.4012110000000  0.5667010000000  0.4956680000000 1.0
C      1  0.5390070000000  0.5891800000000  0.5365110000000 1.0
C      1  0.6736660000000  0.3718320000000  0.4650230000000 1.0
C      1  0.4661880000000  0.4935070000000  0.5019550000000 1.0
C      1  0.4633330000000  0.5711650000000  0.5326150000000 1.0
C      1  0.4739350000000  0.4812370000000  0.5982760000000 1.0
C      1  0.4873980000000  0.6089200000000  0.5051580000000 1.0
C      1  0.4524340000000  0.4215560000000  0.4718530000000 1.0
C      1  0.4102580000000  0.5289790000000  0.4648040000000 1.0
C      1  0.4055060000000  0.5120400000000  0.5353320000000 1.0
C      1  0.5262450000000  0.4078820000000  0.5053890000000 1.0
C      1  0.3765020000000  0.5277240000000  0.6560270000000 1.0
C      1  0.5557120000000  0.4486240000000  0.5983520000000 1.0
C      1  0.5482170000000  0.5005950000000  0.4371720000000 1.0
C      1  0.4630070000000  0.4322160000000  0.3949840000000 1.0
C      1  0.4575630000000  0.4391090000000  0.4947930000000 1.0
C      1  0.5456140000000  0.5996310000000  0.4356870000000 1.0
C      1  0.3969360000000  0.5735700000000  0.4472580000000 1.0
C      1  0.4231130000000  0.5787190000000  0.5093410000000 1.0
C      1  0.4428700000000  0.4754280000000  0.4030990000000 1.0
C      1  0.5178920000000  0.5999120000000  0.4290300000000 1.0
C      1  0.5289830000000  0.4773580000000  0.4362430000000 1.0
C      1  0.4922580000000  0.4328350000000  0.4453930000000 1.0
C      1  0.4734560000000  0.4238670000000  0.3708050000000 1.0
C      1  0.6039730000000  0.5690230000000  0.5015960000000 1.0
C      1  0.5116600000000  0.5393310000000  0.4384120000000 1.0
C      1  0.5820310000000  0.4497930000000  0.4830860000000 1.0
C      1  0.4826470000000  0.5026320000000  0.4436150000000 1.0
C      1  0.5784270000000  0.4284210000000  0.5500420000000 1.0
C      1  0.5576080000000  0.6190830000000  0.4985770000000 1.0
C      1  0.5119150000000  0.4798330000000  0.4788930000000 1.0
C      1  0.5430860000000  0.5674290000000  0.4725360000000 1.0
C      1  0.4737900000000  0.5080620000000  0.5592810000000 1.0
C      1  0.5059340000000  0.5299550000000  0.5028110000000 1.0
C      1  0.4320730000000  0.5225900000000  0.4465090000000 1.0
C      1  0.6245710000000  0.3900040000000  0.4723580000000 1.0
C      1  0.4255770000000  0.5973930000000  0.5323290000000 1.0
C      1  0.4562410000000  0.5086850000000  0.4564770000000 1.0
C      1  0.6036850000000  0.5228450000000  0.5249400000000 1.0
C      1  0.4581530000000  0.5459240000000  0.4862590000000 1.0
C      1  0.4669230000000  0.4583220000000  0.4073600000000 1.0
C      1  0.4119870000000  0.4414960000000  0.5093380000000 1.0
C      1  0.5965590000000  0.5419780000000  0.5042590000000 1.0
C      1  0.5314090000000  0.4948120000000  0.4918210000000 1.0
C      1  0.5693770000000  0.4928000000000  0.4552590000000 1.0
C      1  0.4854570000000  0.5873560000000  0.5208260000000 1.0
C      1  0.4460310000000  0.4168270000000  0.4128710000000 1.0
C      1  0.4032980000000  0.5573150000000  0.4683320000000 1.0
C      1  0.5815190000000  0.4556970000000  0.5566710000000 1.0
C      1  0.5420680000000  0.6107060000000  0.5187690000000 1.0
C      1  0.4984910000000  0.4251010000000  0.5449420000000 1.0
C      1  0.4645920000000  0.4667040000000  0.4841590000000 1.0
C      1  0.5551110000000  0.5899630000000  0.4609810000000 1.0
C      1  0.4943080000000  0.4077810000000  0.3253170000000 1.0
C      1  0.4567840000000  0.4634850000000  0.4555770000000 1.0
C      1  0.3977090000000  0.4587740000000  0.4944340000000 1.0
C      1  0.4698810000000  0.5965930000000  0.5718860000000 1.0
C      1  0.5291010000000  0.4027180000000  0.5970460000000 1.0
C      1  0.4414090000000  0.5402310000000  0.4256570000000 1.0
C      1  0.4207890000000  0.4592310000000  0.4125360000000 1.0
C      1  0.4900050000000  0.6032850000000  0.4333820000000 1.0
C      1  0.4472020000000  0.4851070000000  0.5248030000000 1.0
C      1  0.5423160000000  0.5103430000000  0.5352510000000 1.0
C      1  0.4393340000000  0.4401810000000  0.5167860000000 1.0
C      1  0.4922640000000  0.5230680000000  0.4256880000000 1.0
C      1  0.5955210000000  0.5911330000000  0.4887320000000 1.0
C      1  0.5227050000000  0.4919070000000  0.6094440000000 1.0
C      1  0.5837170000000  0.4246970000000  0.4677960000000 1.0
C      1  0.5784140000000  0.5329550000000  0.4836570000000 1.0
C      1  0.5400690000000  0.5100070000000  0.5952320000000 1.0
C      1  0.4514160000000  0.5253100000000  0.4031700000000 1.0
C      1  0.3937040000000  0.5218250000000  0.5114080000000 1.0
C      1  0.5637850000000  0.6085670000000  0.4171840000000 1.0
C      1  0.5516000000000  0.5413810000000  0.4801250000000 1.0
C      1  0.4479660000000  0.5631780000000  0.5069590000000 1.0
C      1  0.5463310000000  0.5390070000000  0.5394890000000 1.0
C      1  0.4910790000000  0.5269060000000  0.3745820000000 1.0
C      1  0.4558970000000  0.4156250000000  0.6048530000000 1.0
C      1  0.5660260000000  0.5473240000000  0.5583650000000 1.0
C      1  0.4059420000000  0.5241100000000  0.6109690000000 1.0
C      1  0.4706220000000  0.5572660000000  0.4621620000000 1.0
C      1  0.5983580000000  0.5009570000000  0.5434600000000 1.0
C      1  0.4767130000000  0.4558400000000  0.4348450000000 1.0
C      1  0.4834720000000  0.6199930000000  0.4552000000000 1.0
C      1  0.3927010000000  0.5127890000000  0.5602780000000 1.0
C      1  0.4371320000000  0.4406540000000  0.4539460000000 1.0
C      1  0.4692930000000  0.5855820000000  0.4241820000000 1.0
C      1  0.5526590000000  0.5915930000000  0.5613180000000 1.0
C      1  0.5639430000000  0.4249520000000  0.4451270000000 1.0
C      1  0.4843410000000  0.6213750000000  0.4818220000000 1.0
C      1  0.5889290000000  0.4660410000000  0.5076460000000 1.0
C      1  0.4906080000000  0.5083340000000  0.5147680000000 1.0
C      1  0.5012370000000  0.4000550000000  0.5954280000000 1.0
C      1  0.5763640000000  0.4909840000000  0.5010940000000 1.0
C      1  0.4593630000000  0.4496330000000  0.5616190000000 1.0
C      1  0.4571670000000  0.5165010000000  0.4841760000000 1.0
C      1  0.5513750000000  0.4037560000000  0.5174000000000 1.0
C      1  0.5947320000000  0.4717470000000  0.5364130000000 1.0
C      1  0.4571900000000  0.5628620000000  0.4366620000000 1.0
C      1  0.5719330000000  0.6038820000000  0.4795690000000 1.0
C      1  0.5275490000000  0.5373500000000  0.5921980000000 1.0
C      1  0.5645690000000  0.4962720000000  0.5833870000000 1.0
C      1  0.4276270000000  0.4352140000000  0.4273500000000 1.0
C      1  0.4526660000000  0.5231800000000  0.5469690000000 1.0
C      1  0.6984680000000  0.3661620000000  0.4593290000000 1.0
C      1  0.5215010000000  0.4961970000000  0.5488170000000 1.0
C      1  0.5176820000000  0.4444000000000  0.5512660000000 1.0
C      1  0.4727940000000  0.4113890000000  0.4531130000000 1.0
C      1  0.5155470000000  0.5680210000000  0.4798880000000 1.0
C      1  0.5439440000000  0.4497660000000  0.4476720000000 1.0
C      1  0.4428870000000  0.5007290000000  0.3899840000000 1.0
C      1  0.5412210000000  0.4270470000000  0.6046110000000 1.0
C      1  0.5682460000000  0.5714270000000  0.5703590000000 1.0
C      1  0.5152560000000  0.5387600000000  0.3678530000000 1.0
C      1  0.4747380000000  0.5129870000000  0.3558340000000 1.0
C      1  0.4512600000000  0.5008860000000  0.3625920000000 1.0
C      1  0.3960750000000  0.4828790000000  0.4828490000000 1.0
C      1  0.5232380000000  0.4165830000000  0.4790800000000 1.0
C      1  0.5510150000000  0.4951990000000  0.5123220000000 1.0
C      1  0.4994130000000  0.5564780000000  0.4593660000000 1.0
C      1  0.4331210000000  0.5071150000000  0.5354820000000 1.0
C      1  0.5812920000000  0.5059010000000  0.4772650000000 1.0
C      1  0.5291850000000  0.5226650000000  0.4862820000000 1.0
C      1  0.5381950000000  0.5505650000000  0.3641590000000 1.0
END
