TITL C-612601-4209-530 143696.671837729 125000 -479.406924082366 0 0 81 (C1) n - 1
REM
REM in /home/nfs/bkarasulu/CARBON/AIRSS/Generating-Clusters/TERSOFF/Only-C1/FIRE-HFTN
REM
REM
REM
REM
REM
REM ./C.cell (11c1c37f851c82e70ff6c80c92926a4b)
REM AIRSS Version 0.9.1 bugfix July 2018 build 013d7b7c2542+ Fri, 06 Jul 2018 19:26:36 +0100
REM compiler GCC version 9.2.1 20190827 (Red Hat 9.2.1-1)
REM options -cpp -mtune=generic -march=x86-64 -g -O0 -fpre-include=/usr/include/finclude/math-vector-fortran.h
REM seed -1079783576 -832426350 2063818903 -789890680 -2009474029 -1023426130 1342834546 2116515321 1939371584 -1016091043 2020293365 1171802123 -822635639 -1365233528 1156004423 124626165 -2078389300 -1269613227 53987488 1404542430 -1578203951 1522075904 -599389464 -1238731532 1272057925 -40990501 1681648547 2064253626 1617466378 1893266386 -1913118047 -1550668102 1036242582
REM
CELL 1.54180   50.00000   50.00000   50.00000   90.00000   90.00000   90.00000
LATT -1
SFAC C  
C      1  0.4150480000000  0.4622820000000  0.4813130000000 1.0
C      1  0.4615410000000  0.4468580000000  0.4627580000000 1.0
C      1  0.4647540000000  0.4913290000000  0.5775210000000 1.0
C      1  0.4884250000000  0.5681160000000  0.5355920000000 1.0
C      1  0.4854550000000  0.5221620000000  0.5174400000000 1.0
C      1  0.5410040000000  0.4532360000000  0.4386260000000 1.0
C      1  0.4956110000000  0.5544990000000  0.4422890000000 1.0
C      1  0.4849770000000  0.4764360000000  0.5862910000000 1.0
C      1  0.4344030000000  0.5533900000000  0.5241840000000 1.0
C      1  0.4259870000000  0.4923750000000  0.5469630000000 1.0
C      1  0.5283820000000  0.5687640000000  0.4896740000000 1.0
C      1  0.5178500000000  0.5630740000000  0.5383210000000 1.0
C      1  0.5308980000000  0.4888380000000  0.4656700000000 1.0
C      1  0.4230010000000  0.4646200000000  0.5434240000000 1.0
C      1  0.4650710000000  0.5182100000000  0.5366220000000 1.0
C      1  0.4382140000000  0.4434100000000  0.4816230000000 1.0
C      1  0.5157400000000  0.4406390000000  0.4463690000000 1.0
C      1  0.4900630000000  0.5663980000000  0.4197830000000 1.0
C      1  0.4956740000000  0.4248030000000  0.5419390000000 1.0
C      1  0.5423550000000  0.5293790000000  0.5734480000000 1.0
C      1  0.4430690000000  0.4964720000000  0.4812110000000 1.0
C      1  0.5657740000000  0.4578280000000  0.4561240000000 1.0
C      1  0.4164900000000  0.4902130000000  0.4893650000000 1.0
C      1  0.5069850000000  0.4301030000000  0.4919830000000 1.0
C      1  0.5311350000000  0.5422780000000  0.4738280000000 1.0
C      1  0.5770960000000  0.5099630000000  0.5431170000000 1.0
C      1  0.5546090000000  0.4967280000000  0.4233100000000 1.0
C      1  0.5383600000000  0.4738360000000  0.4177340000000 1.0
C      1  0.4691540000000  0.5031370000000  0.4134650000000 1.0
C      1  0.4402520000000  0.4320120000000  0.5076490000000 1.0
C      1  0.5068280000000  0.5042420000000  0.5248810000000 1.0
C      1  0.5318920000000  0.5135060000000  0.5196190000000 1.0
C      1  0.5024980000000  0.4779100000000  0.5167510000000 1.0
C      1  0.4943200000000  0.4211800000000  0.5154290000000 1.0
C      1  0.5691410000000  0.4824680000000  0.5426320000000 1.0
C      1  0.5038160000000  0.4872020000000  0.4691640000000 1.0
C      1  0.5316110000000  0.5052020000000  0.5832700000000 1.0
C      1  0.5143310000000  0.4789160000000  0.4036840000000 1.0
C      1  0.4099190000000  0.5135830000000  0.5054030000000 1.0
C      1  0.4422390000000  0.5415680000000  0.4748730000000 1.0
C      1  0.5599430000000  0.4394060000000  0.5604090000000 1.0
C      1  0.5556550000000  0.4673940000000  0.5631440000000 1.0
C      1  0.5576430000000  0.5428230000000  0.4271690000000 1.0
C      1  0.5057250000000  0.5856080000000  0.4841460000000 1.0
C      1  0.5324300000000  0.4776560000000  0.5764300000000 1.0
C      1  0.4316540000000  0.4423730000000  0.5311030000000 1.0
C      1  0.4107590000000  0.5133420000000  0.5347360000000 1.0
C      1  0.4545420000000  0.4973760000000  0.4370990000000 1.0
C      1  0.4857650000000  0.5373850000000  0.4917330000000 1.0
C      1  0.4903350000000  0.4768730000000  0.4915940000000 1.0
C      1  0.4082080000000  0.5517510000000  0.5673090000000 1.0
C      1  0.4912800000000  0.4926600000000  0.4020280000000 1.0
C      1  0.5610750000000  0.4287470000000  0.5353780000000 1.0
C      1  0.5035390000000  0.4389130000000  0.5632030000000 1.0
C      1  0.5773700000000  0.4915200000000  0.4961210000000 1.0
C      1  0.4946730000000  0.4363750000000  0.4662150000000 1.0
C      1  0.5749910000000  0.4847980000000  0.4680650000000 1.0
C      1  0.5565100000000  0.4452760000000  0.5124210000000 1.0
C      1  0.4634170000000  0.4823580000000  0.4927290000000 1.0
C      1  0.5549160000000  0.5024710000000  0.4539670000000 1.0
C      1  0.5345640000000  0.4378010000000  0.4960410000000 1.0
C      1  0.5776940000000  0.5217490000000  0.5165750000000 1.0
C      1  0.4568530000000  0.4687380000000  0.4441500000000 1.0
C      1  0.4607910000000  0.5653350000000  0.5313760000000 1.0
C      1  0.5376560000000  0.5231580000000  0.4957860000000 1.0
C      1  0.5686400000000  0.4715960000000  0.5153030000000 1.0
C      1  0.5691840000000  0.5264560000000  0.5645730000000 1.0
C      1  0.4942420000000  0.5096950000000  0.4555470000000 1.0
C      1  0.5514150000000  0.5337010000000  0.4536680000000 1.0
C      1  0.4249810000000  0.5393530000000  0.4984450000000 1.0
C      1  0.4460050000000  0.5155140000000  0.4596910000000 1.0
C      1  0.4786230000000  0.5820190000000  0.4809930000000 1.0
C      1  0.4654670000000  0.5566630000000  0.4826490000000 1.0
C      1  0.5078790000000  0.4629250000000  0.5772050000000 1.0
C      1  0.5026800000000  0.5362910000000  0.4652260000000 1.0
C      1  0.5594760000000  0.5215570000000  0.4097320000000 1.0
C      1  0.4518880000000  0.5014280000000  0.5550100000000 1.0
C      1  0.4170180000000  0.5404310000000  0.5442050000000 1.0
C      1  0.5267250000000  0.5502020000000  0.5623850000000 1.0
C      1  0.5649460000000  0.5487780000000  0.5164140000000 1.0
C      1  0.5388730000000  0.5643420000000  0.5166850000000 1.0
END
