TITL C-612604-1799-402 0.224729306180676 125000 -519.874939926894 0 0 85 (C1) n - 1
REM
REM in /home/nfs/bkarasulu/CARBON/AIRSS/Generating-Clusters/TERSOFF/Only-C1/FIRE-HFTN
REM
REM
REM
REM
REM
REM ./C.cell (11c1c37f851c82e70ff6c80c92926a4b)
REM AIRSS Version 0.9.1 bugfix July 2018 build 013d7b7c2542+ Fri, 06 Jul 2018 19:26:36 +0100
REM compiler GCC version 9.2.1 20190827 (Red Hat 9.2.1-1)
REM options -cpp -mtune=generic -march=x86-64 -g -O0 -fpre-include=/usr/include/finclude/math-vector-fortran.h
REM seed -403420471 1859867822 -688816197 -2074369983 1702881153 -1089181836 -969196602 -231551526 -216397986 -296264185 785216807 1081183440 1106056717 -1991139219 615032691 1659961628 -1659227608 -779102619 792660910 -788950396 -432241433 -307861784 -1033043071 1128351242 -1932839572 -1531814663 -912572292 1028725939 -1991549710 317288679 1471970194 1202586438 994651972
REM
CELL 1.54180   50.00000   50.00000   50.00000   90.00000   90.00000   90.00000
LATT -1
SFAC C  
C      1  0.4627970000000  0.4304390000000  0.4738430000000 1.0
C      1  0.4954840000000  0.4999370000000  0.4733840000000 1.0
C      1  0.5381280000000  0.4207670000000  0.5056500000000 1.0
C      1  0.5696700000000  0.4839130000000  0.4672530000000 1.0
C      1  0.5204450000000  0.5545240000000  0.4373860000000 1.0
C      1  0.5082350000000  0.4271680000000  0.4429470000000 1.0
C      1  0.3958150000000  0.5231870000000  0.5253920000000 1.0
C      1  0.5477890000000  0.5288970000000  0.5059720000000 1.0
C      1  0.5812390000000  0.5305410000000  0.4706560000000 1.0
C      1  0.4407090000000  0.4614280000000  0.4434740000000 1.0
C      1  0.5420950000000  0.5974420000000  0.4601230000000 1.0
C      1  0.5605070000000  0.5009670000000  0.5553120000000 1.0
C      1  0.4792860000000  0.4772020000000  0.3996170000000 1.0
C      1  0.4841310000000  0.4790570000000  0.5155550000000 1.0
C      1  0.3946730000000  0.4629860000000  0.4983660000000 1.0
C      1  0.4081300000000  0.4767830000000  0.5187250000000 1.0
C      1  0.5248750000000  0.4071900000000  0.4447330000000 1.0
C      1  0.4843760000000  0.5405270000000  0.5130130000000 1.0
C      1  0.5287010000000  0.5283560000000  0.4442050000000 1.0
C      1  0.5276010000000  0.4667520000000  0.4953570000000 1.0
C      1  0.5466330000000  0.5899880000000  0.5713290000000 1.0
C      1  0.4902750000000  0.4984440000000  0.5360180000000 1.0
C      1  0.5379620000000  0.5107930000000  0.4870270000000 1.0
C      1  0.5515340000000  0.5138530000000  0.4338110000000 1.0
C      1  0.6092620000000  0.5930680000000  0.5209260000000 1.0
C      1  0.4682900000000  0.3888960000000  0.5224610000000 1.0
C      1  0.5956950000000  0.5426320000000  0.5162460000000 1.0
C      1  0.4508810000000  0.4544820000000  0.5809830000000 1.0
C      1  0.4382400000000  0.4844690000000  0.4268510000000 1.0
C      1  0.5502560000000  0.4752020000000  0.5512200000000 1.0
C      1  0.4639650000000  0.3710420000000  0.5026260000000 1.0
C      1  0.5253990000000  0.4748480000000  0.4130450000000 1.0
C      1  0.5359600000000  0.4528850000000  0.5419380000000 1.0
C      1  0.4585820000000  0.4031960000000  0.4669310000000 1.0
C      1  0.5480270000000  0.4837690000000  0.4855980000000 1.0
C      1  0.5446830000000  0.4932210000000  0.4158250000000 1.0
C      1  0.4988890000000  0.4661060000000  0.4162440000000 1.0
C      1  0.4050300000000  0.5441320000000  0.5119070000000 1.0
C      1  0.5527750000000  0.6087980000000  0.5535490000000 1.0
C      1  0.3988220000000  0.4528940000000  0.4740500000000 1.0
C      1  0.4226990000000  0.5564760000000  0.4963330000000 1.0
C      1  0.4212170000000  0.5048950000000  0.4331850000000 1.0
C      1  0.4609180000000  0.4629260000000  0.5133360000000 1.0
C      1  0.5431280000000  0.5236060000000  0.5545050000000 1.0
C      1  0.5878030000000  0.5065010000000  0.5518280000000 1.0
C      1  0.4544070000000  0.4856780000000  0.4040720000000 1.0
C      1  0.4166420000000  0.4515720000000  0.4543220000000 1.0
C      1  0.5502920000000  0.6206750000000  0.5061650000000 1.0
C      1  0.4939130000000  0.5597980000000  0.4298190000000 1.0
C      1  0.4930440000000  0.5107870000000  0.5833880000000 1.0
C      1  0.4695020000000  0.5670860000000  0.4377300000000 1.0
C      1  0.5231700000000  0.4363560000000  0.5605520000000 1.0
C      1  0.4662170000000  0.4729420000000  0.5708060000000 1.0
C      1  0.5111210000000  0.4190460000000  0.5765840000000 1.0
C      1  0.5728300000000  0.5092450000000  0.4532250000000 1.0
C      1  0.4468920000000  0.5554540000000  0.4825160000000 1.0
C      1  0.4985900000000  0.4017210000000  0.5914960000000 1.0
C      1  0.4829190000000  0.4940400000000  0.5632920000000 1.0
C      1  0.5183120000000  0.5157490000000  0.4674480000000 1.0
C      1  0.6093920000000  0.5669240000000  0.5160150000000 1.0
C      1  0.4682680000000  0.4157130000000  0.5204800000000 1.0
C      1  0.4652800000000  0.4487160000000  0.4514730000000 1.0
C      1  0.5308840000000  0.5290210000000  0.5293650000000 1.0
C      1  0.4639930000000  0.4368640000000  0.5021040000000 1.0
C      1  0.5422590000000  0.5652450000000  0.5800280000000 1.0
C      1  0.3820070000000  0.4897430000000  0.5578640000000 1.0
C      1  0.4904310000000  0.4481280000000  0.4369730000000 1.0
C      1  0.5927030000000  0.6130590000000  0.5270680000000 1.0
C      1  0.3950660000000  0.4966260000000  0.5342010000000 1.0
C      1  0.3705990000000  0.4826840000000  0.5802070000000 1.0
C      1  0.4713190000000  0.5140820000000  0.4754370000000 1.0
C      1  0.5745000000000  0.5373060000000  0.4980570000000 1.0
C      1  0.5441160000000  0.6132050000000  0.4814080000000 1.0
C      1  0.5649820000000  0.6168490000000  0.5296810000000 1.0
C      1  0.6011330000000  0.5234100000000  0.5359680000000 1.0
C      1  0.5344220000000  0.5386400000000  0.5769640000000 1.0
C      1  0.5124380000000  0.5276910000000  0.5905010000000 1.0
C      1  0.5338090000000  0.4464500000000  0.5141180000000 1.0
C      1  0.4518460000000  0.5677120000000  0.4577760000000 1.0
C      1  0.5021590000000  0.5238130000000  0.5274870000000 1.0
C      1  0.4666400000000  0.5371090000000  0.4912750000000 1.0
C      1  0.4592670000000  0.3782710000000  0.4770040000000 1.0
C      1  0.4356980000000  0.4722840000000  0.5208770000000 1.0
C      1  0.5011540000000  0.4786180000000  0.4926410000000 1.0
C      1  0.5361710000000  0.5765060000000  0.4448820000000 1.0
END
