TITL C-612601-4209-770 0.127165498735339 125000 -673.590412237539 0 0 110 (C1) n - 1
REM
REM in /home/nfs/bkarasulu/CARBON/AIRSS/Generating-Clusters/TERSOFF/Only-C1/FIRE-HFTN
REM
REM
REM
REM
REM
REM ./C.cell (11c1c37f851c82e70ff6c80c92926a4b)
REM AIRSS Version 0.9.1 bugfix July 2018 build 013d7b7c2542+ Fri, 06 Jul 2018 19:26:36 +0100
REM compiler GCC version 9.2.1 20190827 (Red Hat 9.2.1-1)
REM options -cpp -mtune=generic -march=x86-64 -g -O0 -fpre-include=/usr/include/finclude/math-vector-fortran.h
REM seed 54633329 -1549923329 1348509529 1795196859 -405831798 -1561860818 1848696529 23360987 -1969131166 155165307 1690455292 1025473676 -522417022 -785061681 -1947435807 1067604429 1742784647 414737492 -252359021 1126253909 -578687098 435423258 1122853883 1374146886 976640111 -1290574016 1245499621 384627016 -1773058229 -280557162 -38380253 -1436005783 1445029568
REM
CELL 1.54180   50.00000   50.00000   50.00000   90.00000   90.00000   90.00000
LATT -1
SFAC C  
C      1  0.5242090000000  0.4771930000000  0.5976720000000 1.0
C      1  0.4919610000000  0.4070620000000  0.5345430000000 1.0
C      1  0.5014230000000  0.4292770000000  0.4912350000000 1.0
C      1  0.4767090000000  0.4806880000000  0.4745370000000 1.0
C      1  0.5747200000000  0.4985190000000  0.4290760000000 1.0
C      1  0.5099870000000  0.5237330000000  0.5207570000000 1.0
C      1  0.4392670000000  0.5373580000000  0.4907760000000 1.0
C      1  0.5938230000000  0.4918690000000  0.4471560000000 1.0
C      1  0.4534520000000  0.5680850000000  0.5436070000000 1.0
C      1  0.4030320000000  0.5215400000000  0.4642500000000 1.0
C      1  0.4824370000000  0.5324340000000  0.3824780000000 1.0
C      1  0.4230650000000  0.5061260000000  0.5335510000000 1.0
C      1  0.4665260000000  0.4461790000000  0.4346440000000 1.0
C      1  0.4288280000000  0.5209050000000  0.5575970000000 1.0
C      1  0.5659950000000  0.4817050000000  0.5747440000000 1.0
C      1  0.4381440000000  0.5477320000000  0.5557640000000 1.0
C      1  0.5759360000000  0.5540620000000  0.6137190000000 1.0
C      1  0.4215220000000  0.4186250000000  0.5544990000000 1.0
C      1  0.5472400000000  0.5554220000000  0.5327990000000 1.0
C      1  0.4563150000000  0.4241150000000  0.5042590000000 1.0
C      1  0.4064270000000  0.3974890000000  0.5597160000000 1.0
C      1  0.5060520000000  0.4684730000000  0.4129010000000 1.0
C      1  0.4594780000000  0.5209540000000  0.5061580000000 1.0
C      1  0.5050240000000  0.4833000000000  0.5482390000000 1.0
C      1  0.5389010000000  0.4545860000000  0.4431850000000 1.0
C      1  0.5547690000000  0.4591260000000  0.4660960000000 1.0
C      1  0.5354950000000  0.5228770000000  0.4086700000000 1.0
C      1  0.4138810000000  0.5397890000000  0.5053680000000 1.0
C      1  0.4876030000000  0.5907660000000  0.5207040000000 1.0
C      1  0.4273610000000  0.4825250000000  0.4701180000000 1.0
C      1  0.5326920000000  0.4747360000000  0.4228340000000 1.0
C      1  0.5851970000000  0.5478730000000  0.4815880000000 1.0
C      1  0.4862500000000  0.4877630000000  0.5701330000000 1.0
C      1  0.4834390000000  0.4166960000000  0.5093070000000 1.0
C      1  0.4925480000000  0.5408340000000  0.4800770000000 1.0
C      1  0.5434420000000  0.5231380000000  0.4790590000000 1.0
C      1  0.5720960000000  0.4396660000000  0.5433750000000 1.0
C      1  0.5244340000000  0.6104460000000  0.4889760000000 1.0
C      1  0.4422770000000  0.5833010000000  0.5211010000000 1.0
C      1  0.5211290000000  0.4992790000000  0.5289980000000 1.0
C      1  0.5032360000000  0.4805580000000  0.4831300000000 1.0
C      1  0.5457270000000  0.4815630000000  0.5154890000000 1.0
C      1  0.4844290000000  0.5055950000000  0.3811910000000 1.0
C      1  0.5404400000000  0.5519850000000  0.4808230000000 1.0
C      1  0.5744370000000  0.4901870000000  0.5190860000000 1.0
C      1  0.5644510000000  0.5658610000000  0.4805290000000 1.0
C      1  0.4633540000000  0.5900430000000  0.5022870000000 1.0
C      1  0.4946630000000  0.4467340000000  0.4292430000000 1.0
C      1  0.4169510000000  0.5932710000000  0.5199390000000 1.0
C      1  0.4383750000000  0.4905160000000  0.4435960000000 1.0
C      1  0.5712080000000  0.5642640000000  0.5399010000000 1.0
C      1  0.4407510000000  0.5044770000000  0.5771830000000 1.0
C      1  0.5164640000000  0.4352450000000  0.4459610000000 1.0
C      1  0.5578080000000  0.5399350000000  0.6014340000000 1.0
C      1  0.4931900000000  0.4831590000000  0.3928740000000 1.0
C      1  0.4300660000000  0.5327170000000  0.4630190000000 1.0
C      1  0.5745920000000  0.4416120000000  0.4773270000000 1.0
C      1  0.5209310000000  0.5463970000000  0.5335780000000 1.0
C      1  0.5479510000000  0.4988320000000  0.4187930000000 1.0
C      1  0.4619080000000  0.5783510000000  0.4446380000000 1.0
C      1  0.5242570000000  0.4489210000000  0.5916120000000 1.0
C      1  0.4550490000000  0.4271150000000  0.4522110000000 1.0
C      1  0.4464030000000  0.5182320000000  0.4445820000000 1.0
C      1  0.5994800000000  0.4829300000000  0.4740950000000 1.0
C      1  0.4828320000000  0.5725670000000  0.5448500000000 1.0
C      1  0.5141870000000  0.5758170000000  0.4563540000000 1.0
C      1  0.5154120000000  0.4378150000000  0.5668040000000 1.0
C      1  0.5551530000000  0.4342630000000  0.5209090000000 1.0
C      1  0.5382130000000  0.5243490000000  0.5882710000000 1.0
C      1  0.5443810000000  0.4952360000000  0.5875650000000 1.0
C      1  0.5103060000000  0.4555090000000  0.4985790000000 1.0
C      1  0.4490110000000  0.4715410000000  0.5117580000000 1.0
C      1  0.5949280000000  0.5724070000000  0.5470120000000 1.0
C      1  0.5995970000000  0.4546650000000  0.4784540000000 1.0
C      1  0.5873660000000  0.4993370000000  0.4947320000000 1.0
C      1  0.5746500000000  0.4594500000000  0.5618810000000 1.0
C      1  0.5150330000000  0.5509500000000  0.4410330000000 1.0
C      1  0.4509830000000  0.4740000000000  0.4838790000000 1.0
C      1  0.4704870000000  0.5307350000000  0.4384630000000 1.0
C      1  0.4685810000000  0.5828980000000  0.4740080000000 1.0
C      1  0.5163730000000  0.4568870000000  0.5459450000000 1.0
C      1  0.4583910000000  0.4830830000000  0.5719900000000 1.0
C      1  0.4480220000000  0.4983700000000  0.5212700000000 1.0
C      1  0.5614910000000  0.4229640000000  0.4947650000000 1.0
C      1  0.4985890000000  0.4885720000000  0.5957110000000 1.0
C      1  0.5468400000000  0.4790810000000  0.4842350000000 1.0
C      1  0.5416510000000  0.4076800000000  0.4803160000000 1.0
C      1  0.5270130000000  0.5997170000000  0.4640370000000 1.0
C      1  0.4871720000000  0.5272300000000  0.5036550000000 1.0
C      1  0.5102510000000  0.6050400000000  0.5113890000000 1.0
C      1  0.4937890000000  0.5688990000000  0.4761140000000 1.0
C      1  0.4703810000000  0.5570430000000  0.4245640000000 1.0
C      1  0.3916800000000  0.3765730000000  0.5646840000000 1.0
C      1  0.4056560000000  0.4988040000000  0.4834650000000 1.0
C      1  0.4506540000000  0.4694090000000  0.4291920000000 1.0
C      1  0.4953240000000  0.5313690000000  0.4531140000000 1.0
C      1  0.5267460000000  0.4982480000000  0.4772810000000 1.0
C      1  0.5151250000000  0.5400140000000  0.5781910000000 1.0
C      1  0.4905660000000  0.5510020000000  0.4024700000000 1.0
C      1  0.5322080000000  0.4539790000000  0.5206810000000 1.0
C      1  0.4478300000000  0.4576530000000  0.5672800000000 1.0
C      1  0.4461980000000  0.4449670000000  0.5212970000000 1.0
C      1  0.5042580000000  0.5555190000000  0.5553160000000 1.0
C      1  0.5171420000000  0.4188750000000  0.4699240000000 1.0
C      1  0.4480520000000  0.4206020000000  0.4773790000000 1.0
C      1  0.5737570000000  0.5214380000000  0.4836050000000 1.0
C      1  0.5177110000000  0.5449910000000  0.4133540000000 1.0
C      1  0.5033410000000  0.4137800000000  0.5582080000000 1.0
C      1  0.4381890000000  0.4399190000000  0.5479440000000 1.0
C      1  0.4052730000000  0.5120070000000  0.5112890000000 1.0
END
