TITL C-612604-1799-85 3410.86844512002 125000 -812.337693895698 0 0 132 (C1) n - 1
REM
REM in /home/nfs/bkarasulu/CARBON/AIRSS/Generating-Clusters/TERSOFF/Only-C1/FIRE-HFTN
REM
REM
REM
REM
REM
REM ./C.cell (11c1c37f851c82e70ff6c80c92926a4b)
REM AIRSS Version 0.9.1 bugfix July 2018 build 013d7b7c2542+ Fri, 06 Jul 2018 19:26:36 +0100
REM compiler GCC version 9.2.1 20190827 (Red Hat 9.2.1-1)
REM options -cpp -mtune=generic -march=x86-64 -g -O0 -fpre-include=/usr/include/finclude/math-vector-fortran.h
REM seed -1409880397 -343141308 -838966408 273417903 -873996544 -1435926396 444767545 -1185112070 -742828277 -1435172544 1290508488 126190624 1018600865 -1076508503 1789855505 1751397130 1205176805 -267688335 -1028366835 1847797928 1523193316 -1074059114 -1475085493 -814772266 174586283 -222136820 1546313197 -1244077335 -77924210 -364574578 452807258 -1109897734 1279761764
REM
CELL 1.54180   50.00000   50.00000   50.00000   90.00000   90.00000   90.00000
LATT -1
SFAC C  
C      1  0.4434620000000  0.3981460000000  0.4724820000000 1.0
C      1  0.4624890000000  0.5367860000000  0.5089920000000 1.0
C      1  0.5228690000000  0.5383840000000  0.4247920000000 1.0
C      1  0.4323150000000  0.4584250000000  0.5615590000000 1.0
C      1  0.5151040000000  0.4003830000000  0.5540120000000 1.0
C      1  0.4456180000000  0.4680890000000  0.5387800000000 1.0
C      1  0.6111640000000  0.5035170000000  0.5088980000000 1.0
C      1  0.4897720000000  0.5474130000000  0.5460530000000 1.0
C      1  0.5863310000000  0.4500590000000  0.4574190000000 1.0
C      1  0.5153320000000  0.5248620000000  0.4995850000000 1.0
C      1  0.4673020000000  0.5096110000000  0.5003730000000 1.0
C      1  0.4196370000000  0.5181040000000  0.5476280000000 1.0
C      1  0.5387970000000  0.4998180000000  0.5276050000000 1.0
C      1  0.5895990000000  0.4833570000000  0.4053180000000 1.0
C      1  0.4010830000000  0.4939880000000  0.4912080000000 1.0
C      1  0.5236530000000  0.5857930000000  0.5473320000000 1.0
C      1  0.4353320000000  0.4497490000000  0.5866500000000 1.0
C      1  0.4918700000000  0.4042860000000  0.4606520000000 1.0
C      1  0.4343230000000  0.5785260000000  0.4479690000000 1.0
C      1  0.4743830000000  0.4748870000000  0.6027270000000 1.0
C      1  0.5710480000000  0.5858480000000  0.5299790000000 1.0
C      1  0.4911890000000  0.4392480000000  0.5147320000000 1.0
C      1  0.4532140000000  0.5874110000000  0.5661120000000 1.0
C      1  0.5335830000000  0.4812500000000  0.4340580000000 1.0
C      1  0.4582380000000  0.4798340000000  0.4047930000000 1.0
C      1  0.4224320000000  0.5009780000000  0.4464110000000 1.0
C      1  0.4722540000000  0.5155830000000  0.4513670000000 1.0
C      1  0.4678900000000  0.3900700000000  0.4644360000000 1.0
C      1  0.5137710000000  0.4322820000000  0.4263080000000 1.0
C      1  0.5166050000000  0.5170060000000  0.4729930000000 1.0
C      1  0.4421440000000  0.5981120000000  0.4653350000000 1.0
C      1  0.4460250000000  0.5931360000000  0.5169890000000 1.0
C      1  0.5378470000000  0.4098980000000  0.4920470000000 1.0
C      1  0.6131720000000  0.5524690000000  0.5188620000000 1.0
C      1  0.5627900000000  0.5094770000000  0.3760150000000 1.0
C      1  0.4378860000000  0.5501470000000  0.4441880000000 1.0
C      1  0.4834510000000  0.4964990000000  0.5208210000000 1.0
C      1  0.4514490000000  0.5222820000000  0.6042230000000 1.0
C      1  0.5959020000000  0.5740180000000  0.5243890000000 1.0
C      1  0.5173500000000  0.5850170000000  0.4792470000000 1.0
C      1  0.4648180000000  0.5423610000000  0.4468180000000 1.0
C      1  0.4782320000000  0.4150310000000  0.5218310000000 1.0
C      1  0.4870800000000  0.5195360000000  0.3895600000000 1.0
C      1  0.6114740000000  0.4833660000000  0.4907520000000 1.0
C      1  0.5576330000000  0.4858110000000  0.5070820000000 1.0
C      1  0.5034590000000  0.4485650000000  0.4035050000000 1.0
C      1  0.5004960000000  0.5588540000000  0.5221510000000 1.0
C      1  0.4752110000000  0.4556660000000  0.4077720000000 1.0
C      1  0.5607810000000  0.4371870000000  0.4580620000000 1.0
C      1  0.4429600000000  0.5305540000000  0.5575500000000 1.0
C      1  0.5425690000000  0.4845380000000  0.5839010000000 1.0
C      1  0.4143610000000  0.5655650000000  0.4887560000000 1.0
C      1  0.5674740000000  0.4766970000000  0.5713300000000 1.0
C      1  0.5508530000000  0.5698860000000  0.5441600000000 1.0
C      1  0.4996620000000  0.5508610000000  0.5722020000000 1.0
C      1  0.5688690000000  0.4496120000000  0.5632080000000 1.0
C      1  0.5231910000000  0.4644010000000  0.3910720000000 1.0
C      1  0.4824690000000  0.5633200000000  0.4525520000000 1.0
C      1  0.5649730000000  0.4908860000000  0.3960230000000 1.0
C      1  0.5363610000000  0.5568540000000  0.4098380000000 1.0
C      1  0.6040160000000  0.5260900000000  0.5250600000000 1.0
C      1  0.6033350000000  0.4654790000000  0.4720300000000 1.0
C      1  0.5465930000000  0.4583460000000  0.5001060000000 1.0
C      1  0.4828240000000  0.4723270000000  0.4693640000000 1.0
C      1  0.5499800000000  0.5476560000000  0.4684230000000 1.0
C      1  0.4456240000000  0.5410510000000  0.5840160000000 1.0
C      1  0.4019450000000  0.5205960000000  0.5006770000000 1.0
C      1  0.5838910000000  0.4986070000000  0.5615470000000 1.0
C      1  0.5454450000000  0.6202110000000  0.4999960000000 1.0
C      1  0.5240860000000  0.4897390000000  0.4756290000000 1.0
C      1  0.5207250000000  0.4666180000000  0.4907260000000 1.0
C      1  0.4501620000000  0.4078060000000  0.5178040000000 1.0
C      1  0.4968470000000  0.5965270000000  0.5430750000000 1.0
C      1  0.4272690000000  0.4571010000000  0.4670160000000 1.0
C      1  0.4858120000000  0.5639650000000  0.5915500000000 1.0
C      1  0.4907870000000  0.5050490000000  0.4328300000000 1.0
C      1  0.4662970000000  0.4408730000000  0.4327140000000 1.0
C      1  0.5257270000000  0.6113660000000  0.4838900000000 1.0
C      1  0.4197720000000  0.5300220000000  0.4539280000000 1.0
C      1  0.5446110000000  0.3996060000000  0.5172500000000 1.0
C      1  0.4437130000000  0.3891010000000  0.5385950000000 1.0
C      1  0.4714790000000  0.4806280000000  0.5412510000000 1.0
C      1  0.4801380000000  0.5596640000000  0.5005070000000 1.0
C      1  0.4391510000000  0.4821500000000  0.4278200000000 1.0
C      1  0.4963020000000  0.4696770000000  0.5850400000000 1.0
C      1  0.5853190000000  0.5240750000000  0.5468490000000 1.0
C      1  0.4664870000000  0.5008890000000  0.6098660000000 1.0
C      1  0.5290980000000  0.4497420000000  0.6151400000000 1.0
C      1  0.5040950000000  0.4498980000000  0.5385460000000 1.0
C      1  0.5406600000000  0.4071750000000  0.5441530000000 1.0
C      1  0.5416410000000  0.4791980000000  0.4067740000000 1.0
C      1  0.4631760000000  0.5376350000000  0.5390030000000 1.0
C      1  0.4318740000000  0.4432770000000  0.4911590000000 1.0
C      1  0.4660700000000  0.3836480000000  0.5539400000000 1.0
C      1  0.4695050000000  0.4983570000000  0.4742770000000 1.0
C      1  0.4908650000000  0.5733330000000  0.4771990000000 1.0
C      1  0.4218170000000  0.5758580000000  0.5149900000000 1.0
C      1  0.5365800000000  0.5648120000000  0.4873820000000 1.0
C      1  0.5578390000000  0.4261000000000  0.5562580000000 1.0
C      1  0.4544840000000  0.4549610000000  0.6047520000000 1.0
C      1  0.4888400000000  0.3988030000000  0.5446540000000 1.0
C      1  0.5337190000000  0.5097730000000  0.5750950000000 1.0
C      1  0.5516210000000  0.4339620000000  0.4852200000000 1.0
C      1  0.4055990000000  0.5596870000000  0.5319600000000 1.0
C      1  0.4898240000000  0.4250210000000  0.4414150000000 1.0
C      1  0.5018180000000  0.5225760000000  0.4135920000000 1.0
C      1  0.4134870000000  0.4826190000000  0.4683550000000 1.0
C      1  0.6379680000000  0.5566940000000  0.5081740000000 1.0
C      1  0.4656040000000  0.5947190000000  0.5405920000000 1.0
C      1  0.4357500000000  0.4594010000000  0.5140490000000 1.0
C      1  0.5629560000000  0.6097600000000  0.5174410000000 1.0
C      1  0.5237120000000  0.5500510000000  0.5082680000000 1.0
C      1  0.5152480000000  0.4015640000000  0.4767370000000 1.0
C      1  0.4947410000000  0.4557140000000  0.4906920000000 1.0
C      1  0.4912090000000  0.4668710000000  0.5572580000000 1.0
C      1  0.4669430000000  0.5010720000000  0.3879710000000 1.0
C      1  0.4498990000000  0.6046990000000  0.4907080000000 1.0
C      1  0.5663970000000  0.5001180000000  0.4794890000000 1.0
C      1  0.5475770000000  0.4883010000000  0.4588770000000 1.0
C      1  0.5700980000000  0.5285990000000  0.4763530000000 1.0
C      1  0.5408490000000  0.5190230000000  0.5495990000000 1.0
C      1  0.5111360000000  0.5039700000000  0.5185370000000 1.0
C      1  0.5405890000000  0.4320220000000  0.4375680000000 1.0
C      1  0.5029520000000  0.4807050000000  0.4393550000000 1.0
C      1  0.4580570000000  0.5671670000000  0.5856430000000 1.0
C      1  0.4431650000000  0.4555660000000  0.4429730000000 1.0
C      1  0.4378000000000  0.4155960000000  0.4938070000000 1.0
C      1  0.4042220000000  0.5309810000000  0.5278060000000 1.0
C      1  0.5229810000000  0.4674390000000  0.5952400000000 1.0
C      1  0.4088330000000  0.5390620000000  0.4796530000000 1.0
C      1  0.5599060000000  0.5405190000000  0.5476310000000 1.0
C      1  0.5288570000000  0.5344300000000  0.4526930000000 1.0
END
