TITL C-612602-9376-806 0.0360088742588561 125000 -759.733628431809 0 0 126 (C1) n - 1
REM
REM in /home/nfs/bkarasulu/CARBON/AIRSS/Generating-Clusters/TERSOFF/Only-C1/FIRE-HFTN
REM
REM
REM
REM
REM
REM ./C.cell (11c1c37f851c82e70ff6c80c92926a4b)
REM AIRSS Version 0.9.1 bugfix July 2018 build 013d7b7c2542+ Fri, 06 Jul 2018 19:26:36 +0100
REM compiler GCC version 9.2.1 20190827 (Red Hat 9.2.1-1)
REM options -cpp -mtune=generic -march=x86-64 -g -O0 -fpre-include=/usr/include/finclude/math-vector-fortran.h
REM seed -1938605910 745427458 1715120222 -937509151 1315373382 -1334972438 320266005 1910345092 -1976327460 1103850645 -1191874694 1808355312 -468892692 945386729 84229739 -1516986478 1873354763 1531107310 -531476789 1064855095 -1697155609 -341348028 -1433229155 -1913331983 -117912423 1366809290 1627491796 -888045505 -2095586936 797621685 1500381763 -1991482237 916013159
REM
CELL 1.54180   50.00000   50.00000   50.00000   90.00000   90.00000   90.00000
LATT -1
SFAC C  
C      1  0.5520670000000  0.5925030000000  0.5421480000000 1.0
C      1  0.5096120000000  0.4815580000000  0.3945410000000 1.0
C      1  0.5984990000000  0.4983000000000  0.4417980000000 1.0
C      1  0.5323670000000  0.4127710000000  0.4832390000000 1.0
C      1  0.4901620000000  0.3911760000000  0.4311770000000 1.0
C      1  0.5907210000000  0.5126550000000  0.5017920000000 1.0
C      1  0.5472160000000  0.4716270000000  0.4956990000000 1.0
C      1  0.5127450000000  0.4855840000000  0.4528400000000 1.0
C      1  0.4783580000000  0.5226010000000  0.5726590000000 1.0
C      1  0.4507980000000  0.5164590000000  0.5680070000000 1.0
C      1  0.5034070000000  0.4041880000000  0.4793290000000 1.0
C      1  0.5011180000000  0.5390980000000  0.5281910000000 1.0
C      1  0.4478290000000  0.5177600000000  0.4998270000000 1.0
C      1  0.4021560000000  0.4569610000000  0.5469850000000 1.0
C      1  0.5508080000000  0.5537240000000  0.5709150000000 1.0
C      1  0.5199310000000  0.5602140000000  0.5219010000000 1.0
C      1  0.5808970000000  0.5591210000000  0.4927080000000 1.0
C      1  0.5936840000000  0.4760330000000  0.4236580000000 1.0
C      1  0.5688530000000  0.5733850000000  0.5569000000000 1.0
C      1  0.4852800000000  0.4230320000000  0.3583270000000 1.0
C      1  0.4059250000000  0.5251740000000  0.4783700000000 1.0
C      1  0.4734880000000  0.4628850000000  0.5457270000000 1.0
C      1  0.3798960000000  0.4462100000000  0.5600700000000 1.0
C      1  0.5163090000000  0.4506160000000  0.5234130000000 1.0
C      1  0.5689530000000  0.5087920000000  0.5208100000000 1.0
C      1  0.5463320000000  0.4964260000000  0.5086750000000 1.0
C      1  0.5956860000000  0.5658800000000  0.5163480000000 1.0
C      1  0.4319110000000  0.4661320000000  0.4838010000000 1.0
C      1  0.4272410000000  0.4572980000000  0.5604970000000 1.0
C      1  0.5220880000000  0.4581120000000  0.4948660000000 1.0
C      1  0.4866760000000  0.5894450000000  0.5004580000000 1.0
C      1  0.5404620000000  0.4804080000000  0.4475690000000 1.0
C      1  0.5098030000000  0.4942640000000  0.5425850000000 1.0
C      1  0.4780450000000  0.4122280000000  0.4907110000000 1.0
C      1  0.3895770000000  0.5086520000000  0.4952210000000 1.0
C      1  0.4324670000000  0.5141340000000  0.4754630000000 1.0
C      1  0.5510830000000  0.4609810000000  0.6058870000000 1.0
C      1  0.3986190000000  0.4674150000000  0.5201900000000 1.0
C      1  0.5949770000000  0.5276510000000  0.4468210000000 1.0
C      1  0.4780170000000  0.5480880000000  0.6421370000000 1.0
C      1  0.5407540000000  0.4290030000000  0.4571240000000 1.0
C      1  0.4747580000000  0.5081280000000  0.4992380000000 1.0
C      1  0.5852050000000  0.4882170000000  0.4655040000000 1.0
C      1  0.5229000000000  0.5662450000000  0.5678590000000 1.0
C      1  0.4141190000000  0.4462040000000  0.4745160000000 1.0
C      1  0.4294700000000  0.5811910000000  0.4459530000000 1.0
C      1  0.4926460000000  0.5622300000000  0.4589960000000 1.0
C      1  0.5789160000000  0.4530320000000  0.4289740000000 1.0
C      1  0.5071780000000  0.4375590000000  0.6182070000000 1.0
C      1  0.5597890000000  0.6026480000000  0.4935820000000 1.0
C      1  0.5324810000000  0.4455750000000  0.6169340000000 1.0
C      1  0.4610630000000  0.4686640000000  0.5214670000000 1.0
C      1  0.5635550000000  0.6204070000000  0.4733110000000 1.0
C      1  0.5583070000000  0.4960690000000  0.4618660000000 1.0
C      1  0.4989760000000  0.5890230000000  0.4186360000000 1.0
C      1  0.4012210000000  0.5532690000000  0.4806240000000 1.0
C      1  0.4938920000000  0.5664350000000  0.5720640000000 1.0
C      1  0.6034370000000  0.4384850000000  0.4882610000000 1.0
C      1  0.4461370000000  0.4350460000000  0.4553630000000 1.0
C      1  0.4582440000000  0.4530730000000  0.4347940000000 1.0
C      1  0.4820680000000  0.5786180000000  0.4382250000000 1.0
C      1  0.4601290000000  0.4075100000000  0.5121400000000 1.0
C      1  0.5755040000000  0.5403570000000  0.4293240000000 1.0
C      1  0.5590100000000  0.6095400000000  0.5210680000000 1.0
C      1  0.5033480000000  0.5747410000000  0.4821470000000 1.0
C      1  0.4904950000000  0.4404210000000  0.3776220000000 1.0
C      1  0.5059610000000  0.4606930000000  0.4689320000000 1.0
C      1  0.4792560000000  0.4601220000000  0.4797510000000 1.0
C      1  0.3627380000000  0.5052990000000  0.4920120000000 1.0
C      1  0.4802230000000  0.5904540000000  0.5268600000000 1.0
C      1  0.5445010000000  0.4165570000000  0.5094740000000 1.0
C      1  0.3939430000000  0.4487840000000  0.4960140000000 1.0
C      1  0.4342980000000  0.5312430000000  0.5475800000000 1.0
C      1  0.4101900000000  0.5707270000000  0.4608940000000 1.0
C      1  0.4068670000000  0.5435880000000  0.5507920000000 1.0
C      1  0.4840360000000  0.5453890000000  0.5888270000000 1.0
C      1  0.5214430000000  0.5053020000000  0.3994150000000 1.0
C      1  0.4517990000000  0.5571190000000  0.5453420000000 1.0
C      1  0.5559970000000  0.5091590000000  0.5939710000000 1.0
C      1  0.4975070000000  0.5194600000000  0.5516510000000 1.0
C      1  0.3926900000000  0.5572380000000  0.5322380000000 1.0
C      1  0.6088140000000  0.4629520000000  0.4982030000000 1.0
C      1  0.5641060000000  0.4778060000000  0.5599110000000 1.0
C      1  0.4477700000000  0.4796710000000  0.4397000000000 1.0
C      1  0.4546180000000  0.5838150000000  0.4379200000000 1.0
C      1  0.5410570000000  0.4364530000000  0.5306290000000 1.0
C      1  0.5903650000000  0.5346640000000  0.4811960000000 1.0
C      1  0.5202590000000  0.5020900000000  0.5158820000000 1.0
C      1  0.4664260000000  0.4345070000000  0.4757160000000 1.0
C      1  0.4747960000000  0.4798010000000  0.4994820000000 1.0
C      1  0.4747150000000  0.5740590000000  0.5497570000000 1.0
C      1  0.5877590000000  0.4280420000000  0.4691130000000 1.0
C      1  0.4808790000000  0.5469420000000  0.6162610000000 1.0
C      1  0.5586900000000  0.5260610000000  0.5705340000000 1.0
C      1  0.4301060000000  0.5128430000000  0.5229600000000 1.0
C      1  0.5558590000000  0.5742140000000  0.4894080000000 1.0
C      1  0.5926140000000  0.5672470000000  0.5431070000000 1.0
C      1  0.5282370000000  0.5662310000000  0.4946820000000 1.0
C      1  0.4922900000000  0.5340900000000  0.4555980000000 1.0
C      1  0.5497090000000  0.5231320000000  0.4614900000000 1.0
C      1  0.4365830000000  0.4879130000000  0.4647800000000 1.0
C      1  0.4957230000000  0.4573440000000  0.3992880000000 1.0
C      1  0.4824050000000  0.4381680000000  0.6086400000000 1.0
C      1  0.5681920000000  0.4354180000000  0.4496870000000 1.0
C      1  0.5245050000000  0.5212280000000  0.4225600000000 1.0
C      1  0.5478220000000  0.5340050000000  0.4342630000000 1.0
C      1  0.5101340000000  0.4375770000000  0.4468150000000 1.0
C      1  0.5016850000000  0.4668120000000  0.5428260000000 1.0
C      1  0.5988890000000  0.4877450000000  0.4901790000000 1.0
C      1  0.3919570000000  0.5622150000000  0.5058410000000 1.0
C      1  0.5584220000000  0.4811770000000  0.5884060000000 1.0
C      1  0.5056950000000  0.5123160000000  0.4437850000000 1.0
C      1  0.4551420000000  0.4554500000000  0.5663240000000 1.0
C      1  0.5587040000000  0.4528930000000  0.5464480000000 1.0
C      1  0.4052850000000  0.4961160000000  0.5162010000000 1.0
C      1  0.4405630000000  0.4540280000000  0.5096550000000 1.0
C      1  0.4994570000000  0.5198590000000  0.5064450000000 1.0
C      1  0.4989130000000  0.4082790000000  0.4501090000000 1.0
C      1  0.5164880000000  0.5972030000000  0.4011560000000 1.0
C      1  0.3589680000000  0.4360800000000  0.5718410000000 1.0
C      1  0.5674130000000  0.5062700000000  0.5493250000000 1.0
C      1  0.4643230000000  0.4453600000000  0.5906020000000 1.0
C      1  0.4404930000000  0.4260800000000  0.5166980000000 1.0
C      1  0.4801160000000  0.4056660000000  0.3395820000000 1.0
C      1  0.4868690000000  0.4490700000000  0.4252620000000 1.0
C      1  0.5270690000000  0.5787430000000  0.5419170000000 1.0
END
