TITL C-612604-1799-625 20.3004798908758 125000 -192.016242789961 0 0 33 (C1) n - 1
REM
REM in /home/nfs/bkarasulu/CARBON/AIRSS/Generating-Clusters/TERSOFF/Only-C1/FIRE-HFTN
REM
REM
REM
REM
REM
REM ./C.cell (11c1c37f851c82e70ff6c80c92926a4b)
REM AIRSS Version 0.9.1 bugfix July 2018 build 013d7b7c2542+ Fri, 06 Jul 2018 19:26:36 +0100
REM compiler GCC version 9.2.1 20190827 (Red Hat 9.2.1-1)
REM options -cpp -mtune=generic -march=x86-64 -g -O0 -fpre-include=/usr/include/finclude/math-vector-fortran.h
REM seed 756803369 904272591 754410929 -1057513997 -28556668 1589094785 1250125199 263929326 1028230494 55151979 919597764 -2037713900 -1792089888 1782159925 1028682204 894894633 987647089 -47428110 1386083972 1221745868 -1867985510 -557766557 834303960 -378142810 -1663641060 -773971784 1134646181 -1252578600 1469571609 -1300182597 2115865075 662022472 458160577
REM
CELL 1.54180   50.00000   50.00000   50.00000   90.00000   90.00000   90.00000
LATT -1
SFAC C  
C      1  0.5250940000000  0.5159910000000  0.5105900000000 1.0
C      1  0.5233130000000  0.4892400000000  0.4957800000000 1.0
C      1  0.5585570000000  0.5292650000000  0.5588550000000 1.0
C      1  0.3261310000000  0.4439650000000  0.5020010000000 1.0
C      1  0.5693520000000  0.5163690000000  0.5356010000000 1.0
C      1  0.5241100000000  0.4836150000000  0.5492510000000 1.0
C      1  0.5446050000000  0.5608510000000  0.4705960000000 1.0
C      1  0.5472810000000  0.4741200000000  0.4941510000000 1.0
C      1  0.5706010000000  0.4871290000000  0.5338060000000 1.0
C      1  0.5933630000000  0.4878950000000  0.4897640000000 1.0
C      1  0.5975940000000  0.5093200000000  0.4742120000000 1.0
C      1  0.5499060000000  0.4741240000000  0.5489870000000 1.0
C      1  0.5687540000000  0.5511910000000  0.4646070000000 1.0
C      1  0.4940960000000  0.4559820000000  0.4747080000000 1.0
C      1  0.4942450000000  0.5662920000000  0.4648050000000 1.0
C      1  0.4818890000000  0.5271470000000  0.4866630000000 1.0
C      1  0.5878860000000  0.5325820000000  0.4653270000000 1.0
C      1  0.4903890000000  0.4323110000000  0.4644580000000 1.0
C      1  0.5309150000000  0.5297770000000  0.5591340000000 1.0
C      1  0.3754790000000  0.4627600000000  0.4974000000000 1.0
C      1  0.4495350000000  0.4907720000000  0.4904220000000 1.0
C      1  0.4248210000000  0.4815510000000  0.4927970000000 1.0
C      1  0.4734320000000  0.5485540000000  0.4692720000000 1.0
C      1  0.4757620000000  0.4997080000000  0.4875380000000 1.0
C      1  0.5542120000000  0.5255940000000  0.5125560000000 1.0
C      1  0.4976980000000  0.4812690000000  0.4859500000000 1.0
C      1  0.3018600000000  0.4347200000000  0.5042640000000 1.0
C      1  0.4001500000000  0.4721570000000  0.4950990000000 1.0
C      1  0.5181930000000  0.5578210000000  0.4787970000000 1.0
C      1  0.5184930000000  0.5108080000000  0.5409790000000 1.0
C      1  0.5727810000000  0.4781790000000  0.5063080000000 1.0
C      1  0.3508080000000  0.4533640000000  0.4997000000000 1.0
C      1  0.5086940000000  0.5355780000000  0.4956180000000 1.0
END
