TITL C-612604-1799-30 3701.51686277284 125000 -923.798803613837 0 0 151 (C1) n - 1
REM
REM in /home/nfs/bkarasulu/CARBON/AIRSS/Generating-Clusters/TERSOFF/Only-C1/FIRE-HFTN
REM
REM
REM
REM
REM
REM ./C.cell (11c1c37f851c82e70ff6c80c92926a4b)
REM AIRSS Version 0.9.1 bugfix July 2018 build 013d7b7c2542+ Fri, 06 Jul 2018 19:26:36 +0100
REM compiler GCC version 9.2.1 20190827 (Red Hat 9.2.1-1)
REM options -cpp -mtune=generic -march=x86-64 -g -O0 -fpre-include=/usr/include/finclude/math-vector-fortran.h
REM seed -1982003547 1008702576 1828369406 73997132 127630610 -1421001505 -1397639513 -944686260 1616358060 -1186307001 -1306309478 257535111 944426313 1410245414 -1972472650 743747305 -1917515281 1321568523 -2070065370 2126292710 -1935337076 -1009694415 95110800 1306015639 -562673436 -203002027 2060402792 530093821 -1132769973 552837973 407089473 -1367679785 -200202521
REM
CELL 1.54180   50.00000   50.00000   50.00000   90.00000   90.00000   90.00000
LATT -1
SFAC C  
C      1  0.5308490000000  0.5524010000000  0.3934510000000 1.0
C      1  0.4902620000000  0.5024570000000  0.4387970000000 1.0
C      1  0.3802510000000  0.4986570000000  0.4829290000000 1.0
C      1  0.5676420000000  0.4061490000000  0.4772160000000 1.0
C      1  0.4985590000000  0.4628920000000  0.6022140000000 1.0
C      1  0.4043930000000  0.5812770000000  0.5196370000000 1.0
C      1  0.6027530000000  0.5456320000000  0.4970440000000 1.0
C      1  0.4019870000000  0.5562980000000  0.4606540000000 1.0
C      1  0.5347700000000  0.5389020000000  0.4842390000000 1.0
C      1  0.4785960000000  0.5273790000000  0.4322740000000 1.0
C      1  0.5340370000000  0.4476310000000  0.5010440000000 1.0
C      1  0.5562770000000  0.4178650000000  0.5561950000000 1.0
C      1  0.4627730000000  0.6008440000000  0.4347090000000 1.0
C      1  0.4276220000000  0.4491810000000  0.5402960000000 1.0
C      1  0.5557520000000  0.5724060000000  0.4327800000000 1.0
C      1  0.3770310000000  0.5180060000000  0.5709000000000 1.0
C      1  0.5647770000000  0.5175250000000  0.4415290000000 1.0
C      1  0.5898330000000  0.4914180000000  0.3983790000000 1.0
C      1  0.5691300000000  0.5599640000000  0.5249790000000 1.0
C      1  0.5191820000000  0.5381520000000  0.5716790000000 1.0
C      1  0.4859200000000  0.6131540000000  0.4743310000000 1.0
C      1  0.3944450000000  0.3152110000000  0.4537340000000 1.0
C      1  0.5689600000000  0.4447930000000  0.5482660000000 1.0
C      1  0.4568370000000  0.5733910000000  0.4456170000000 1.0
C      1  0.5155150000000  0.4935430000000  0.5055060000000 1.0
C      1  0.3709740000000  0.5492230000000  0.5298930000000 1.0
C      1  0.5199020000000  0.5704720000000  0.5334700000000 1.0
C      1  0.4880280000000  0.4374700000000  0.5972020000000 1.0
C      1  0.4981750000000  0.5330540000000  0.5526580000000 1.0
C      1  0.4418170000000  0.4273110000000  0.5531350000000 1.0
C      1  0.5709790000000  0.4963310000000  0.4579350000000 1.0
C      1  0.5127110000000  0.4039850000000  0.5733640000000 1.0
C      1  0.4863010000000  0.5455640000000  0.4741430000000 1.0
C      1  0.5521750000000  0.5187830000000  0.4961090000000 1.0
C      1  0.5052140000000  0.5693860000000  0.4309230000000 1.0
C      1  0.5290770000000  0.5791640000000  0.4432230000000 1.0
C      1  0.4323120000000  0.4237530000000  0.4981640000000 1.0
C      1  0.4391500000000  0.5209110000000  0.5295360000000 1.0
C      1  0.5208960000000  0.4133560000000  0.4274740000000 1.0
C      1  0.5133890000000  0.6090630000000  0.4808170000000 1.0
C      1  0.5189300000000  0.5557610000000  0.5932310000000 1.0
C      1  0.5578680000000  0.4468330000000  0.5943870000000 1.0
C      1  0.5867720000000  0.5647970000000  0.4800020000000 1.0
C      1  0.4878790000000  0.4178050000000  0.5768080000000 1.0
C      1  0.5708260000000  0.4685530000000  0.4447150000000 1.0
C      1  0.5894870000000  0.5134730000000  0.5422690000000 1.0
C      1  0.4723860000000  0.3956680000000  0.5042670000000 1.0
C      1  0.4246970000000  0.4756770000000  0.4982180000000 1.0
C      1  0.5217890000000  0.5246370000000  0.3859430000000 1.0
C      1  0.3736050000000  0.5246060000000  0.4827530000000 1.0
C      1  0.4063430000000  0.3352060000000  0.4654940000000 1.0
C      1  0.4246280000000  0.4769770000000  0.5474070000000 1.0
C      1  0.4538940000000  0.5383230000000  0.5758740000000 1.0
C      1  0.5566090000000  0.5585870000000  0.4058120000000 1.0
C      1  0.4826400000000  0.5549670000000  0.4451160000000 1.0
C      1  0.4169690000000  0.5445100000000  0.4391290000000 1.0
C      1  0.5581080000000  0.4620380000000  0.5695800000000 1.0
C      1  0.5905020000000  0.5391730000000  0.5244020000000 1.0
C      1  0.4942510000000  0.4085270000000  0.4348920000000 1.0
C      1  0.5141320000000  0.3985090000000  0.5275900000000 1.0
C      1  0.5816610000000  0.5154290000000  0.5763210000000 1.0
C      1  0.5843110000000  0.4245940000000  0.4669730000000 1.0
C      1  0.5654130000000  0.5715970000000  0.4988220000000 1.0
C      1  0.4390210000000  0.5194210000000  0.5601430000000 1.0
C      1  0.4316170000000  0.5990700000000  0.5866560000000 1.0
C      1  0.4184420000000  0.5891480000000  0.5410000000000 1.0
C      1  0.5198190000000  0.3938990000000  0.4994460000000 1.0
C      1  0.4951930000000  0.4838880000000  0.5576460000000 1.0
C      1  0.5311120000000  0.4600180000000  0.4756230000000 1.0
C      1  0.4227360000000  0.4967660000000  0.5683510000000 1.0
C      1  0.4667580000000  0.5611360000000  0.5360550000000 1.0
C      1  0.4042530000000  0.4855600000000  0.4770480000000 1.0
C      1  0.4936230000000  0.5275260000000  0.3789300000000 1.0
C      1  0.5265760000000  0.6274310000000  0.4962810000000 1.0
C      1  0.3679980000000  0.5345040000000  0.5519390000000 1.0
C      1  0.5922040000000  0.4584930000000  0.5378520000000 1.0
C      1  0.5166520000000  0.4839160000000  0.4784080000000 1.0
C      1  0.4909990000000  0.5075330000000  0.5425790000000 1.0
C      1  0.5881980000000  0.5171680000000  0.3883660000000 1.0
C      1  0.5444890000000  0.4792620000000  0.4010080000000 1.0
C      1  0.6163100000000  0.4451670000000  0.5380370000000 1.0
C      1  0.5073030000000  0.5039150000000  0.4613940000000 1.0
C      1  0.4452620000000  0.3987620000000  0.4967680000000 1.0
C      1  0.5256170000000  0.5034910000000  0.6069880000000 1.0
C      1  0.4180700000000  0.4929560000000  0.4520070000000 1.0
C      1  0.4529460000000  0.5754660000000  0.4766120000000 1.0
C      1  0.5453050000000  0.4577310000000  0.6166300000000 1.0
C      1  0.5400370000000  0.5164440000000  0.4284960000000 1.0
C      1  0.5438830000000  0.5083250000000  0.5439760000000 1.0
C      1  0.5383700000000  0.5052790000000  0.5166620000000 1.0
C      1  0.5245540000000  0.4534810000000  0.5257690000000 1.0
C      1  0.5098840000000  0.5299370000000  0.4740660000000 1.0
C      1  0.5799310000000  0.5406350000000  0.4029400000000 1.0
C      1  0.5907590000000  0.4519120000000  0.4619810000000 1.0
C      1  0.5853380000000  0.5328200000000  0.4302980000000 1.0
C      1  0.4273670000000  0.4943600000000  0.5227240000000 1.0
C      1  0.4743050000000  0.5289840000000  0.5945880000000 1.0
C      1  0.5473460000000  0.4858450000000  0.5603070000000 1.0
C      1  0.4540400000000  0.5536370000000  0.4013210000000 1.0
C      1  0.4902700000000  0.3932700000000  0.4579370000000 1.0
C      1  0.4946960000000  0.5576570000000  0.5376490000000 1.0
C      1  0.3867560000000  0.5617400000000  0.5098740000000 1.0
C      1  0.4621940000000  0.5508520000000  0.4897650000000 1.0
C      1  0.5782640000000  0.5711420000000  0.4526290000000 1.0
C      1  0.5918100000000  0.4872780000000  0.4994190000000 1.0
C      1  0.4753570000000  0.4540250000000  0.4212190000000 1.0
C      1  0.5730920000000  0.5029820000000  0.4851320000000 1.0
C      1  0.5709900000000  0.4750290000000  0.4130000000000 1.0
C      1  0.4537300000000  0.5436860000000  0.5164630000000 1.0
C      1  0.4507830000000  0.4803130000000  0.4834480000000 1.0
C      1  0.4139950000000  0.5163500000000  0.4370830000000 1.0
C      1  0.4248810000000  0.4475820000000  0.5109860000000 1.0
C      1  0.4805770000000  0.4451340000000  0.5374160000000 1.0
C      1  0.5227200000000  0.4742810000000  0.6146640000000 1.0
C      1  0.5324200000000  0.5049290000000  0.4035620000000 1.0
C      1  0.4961010000000  0.5099460000000  0.5982590000000 1.0
C      1  0.3975940000000  0.5029320000000  0.5792620000000 1.0
C      1  0.4185090000000  0.3556790000000  0.4771300000000 1.0
C      1  0.4697870000000  0.4933500000000  0.4985820000000 1.0
C      1  0.4904040000000  0.5010360000000  0.5151380000000 1.0
C      1  0.6032550000000  0.4667760000000  0.4831520000000 1.0
C      1  0.4784250000000  0.6190710000000  0.4475460000000 1.0
C      1  0.4309590000000  0.3764910000000  0.4877790000000 1.0
C      1  0.5455530000000  0.5580790000000  0.5397430000000 1.0
C      1  0.5918380000000  0.4864390000000  0.5282610000000 1.0
C      1  0.4942280000000  0.3921580000000  0.4854460000000 1.0
C      1  0.5272870000000  0.5861270000000  0.4708730000000 1.0
C      1  0.6033130000000  0.5212000000000  0.5914450000000 1.0
C      1  0.5400370000000  0.5668820000000  0.4872570000000 1.0
C      1  0.4536020000000  0.5636750000000  0.5615890000000 1.0
C      1  0.5452690000000  0.3957250000000  0.4877540000000 1.0
C      1  0.4837940000000  0.3999710000000  0.5307050000000 1.0
C      1  0.5420550000000  0.5346020000000  0.5552720000000 1.0
C      1  0.5377290000000  0.4326970000000  0.4345130000000 1.0
C      1  0.4839110000000  0.4789110000000  0.4252460000000 1.0
C      1  0.5526970000000  0.5116530000000  0.5957260000000 1.0
C      1  0.4646430000000  0.5994340000000  0.4876870000000 1.0
C      1  0.5303840000000  0.4051310000000  0.5504230000000 1.0
C      1  0.5025020000000  0.4611860000000  0.5418700000000 1.0
C      1  0.5199880000000  0.5744920000000  0.6113260000000 1.0
C      1  0.4759330000000  0.4276900000000  0.4256650000000 1.0
C      1  0.4391890000000  0.5578310000000  0.4263430000000 1.0
C      1  0.5447310000000  0.4539320000000  0.4513320000000 1.0
C      1  0.4447210000000  0.4836140000000  0.4560370000000 1.0
C      1  0.5606920000000  0.4195020000000  0.5856200000000 1.0
C      1  0.4715200000000  0.4201860000000  0.5508100000000 1.0
C      1  0.4899400000000  0.4842870000000  0.5851480000000 1.0
C      1  0.4811060000000  0.5510890000000  0.3910740000000 1.0
C      1  0.3867300000000  0.5497520000000  0.4838320000000 1.0
C      1  0.5053460000000  0.5647100000000  0.4027470000000 1.0
C      1  0.4344220000000  0.5844260000000  0.5638130000000 1.0
END
