TITL C-612605-9286-916 28.2349040506715 125000 -124.75745998533 0 0 23 (C1) n - 1
REM
REM in /home/nfs/bkarasulu/CARBON/AIRSS/Generating-Clusters/TERSOFF/Only-C1/FIRE-HFTN
REM
REM
REM
REM
REM
REM ./C.cell (11c1c37f851c82e70ff6c80c92926a4b)
REM AIRSS Version 0.9.1 bugfix July 2018 build 013d7b7c2542+ Fri, 06 Jul 2018 19:26:36 +0100
REM compiler GCC version 9.2.1 20190827 (Red Hat 9.2.1-1)
REM options -cpp -mtune=generic -march=x86-64 -g -O0 -fpre-include=/usr/include/finclude/math-vector-fortran.h
REM seed -1005889407 -138428370 -95694837 27324670 1188745453 459755723 2007389391 1635886317 -1982900775 -1405077414 -1582889720 -819030913 1600635192 -690095693 279741637 22336069 -1301228268 -1380955029 -1538632603 -2125832212 1717034611 -1655442568 133367866 -1893993812 2145708730 998282469 395997964 -150496740 -331643568 2008546942 789689699 848971472 34373010
REM
CELL 1.54180   50.00000   50.00000   50.00000   90.00000   90.00000   90.00000
LATT -1
SFAC C  
C      1  0.4658140000000  0.4933060000000  0.4798370000000 1.0
C      1  0.5089570000000  0.5218910000000  0.5253890000000 1.0
C      1  0.4379280000000  0.5284370000000  0.5135490000000 1.0
C      1  0.6170200000000  0.4363170000000  0.4484500000000 1.0
C      1  0.4507750000000  0.5093480000000  0.4945960000000 1.0
C      1  0.4268130000000  0.5520330000000  0.4976790000000 1.0
C      1  0.4397040000000  0.5711900000000  0.5732270000000 1.0
C      1  0.5032320000000  0.4643880000000  0.4559770000000 1.0
C      1  0.4849840000000  0.5315410000000  0.5312250000000 1.0
C      1  0.5502640000000  0.4962980000000  0.5045060000000 1.0
C      1  0.4838880000000  0.4785020000000  0.4673280000000 1.0
C      1  0.4299670000000  0.5864380000000  0.5919970000000 1.0
C      1  0.5685320000000  0.4820150000000  0.4916840000000 1.0
C      1  0.6316140000000  0.4208160000000  0.4334050000000 1.0
C      1  0.6019360000000  0.4519890000000  0.4635960000000 1.0
C      1  0.5405630000000  0.4357220000000  0.4325590000000 1.0
C      1  0.3962860000000  0.5033330000000  0.5410340000000 1.0
C      1  0.5223070000000  0.4500870000000  0.4443920000000 1.0
C      1  0.4493600000000  0.5556210000000  0.5540910000000 1.0
C      1  0.4580520000000  0.5387650000000  0.5334960000000 1.0
C      1  0.4155440000000  0.5148760000000  0.5278330000000 1.0
C      1  0.5858240000000  0.4672600000000  0.4780670000000 1.0
C      1  0.5306390000000  0.5098270000000  0.5160820000000 1.0
END
