TITL C-612602-9376-270 24.3987251410838 125000 -971.74794424026 0 0 157 (C1) n - 1
REM
REM in /home/nfs/bkarasulu/CARBON/AIRSS/Generating-Clusters/TERSOFF/Only-C1/FIRE-HFTN
REM
REM
REM
REM
REM
REM ./C.cell (11c1c37f851c82e70ff6c80c92926a4b)
REM AIRSS Version 0.9.1 bugfix July 2018 build 013d7b7c2542+ Fri, 06 Jul 2018 19:26:36 +0100
REM compiler GCC version 9.2.1 20190827 (Red Hat 9.2.1-1)
REM options -cpp -mtune=generic -march=x86-64 -g -O0 -fpre-include=/usr/include/finclude/math-vector-fortran.h
REM seed -1974441238 -1791899591 -772211077 -1832216620 -499039310 1501706457 455980627 1402885770 -1565205169 -779185100 -1344657038 -741567107 1635391124 -910873 -1970253024 -1167916711 -2007698671 98117566 1039905718 -721697130 1388701331 -804532496 -1228065291 -1598227728 -570036506 1583436753 312201491 -1124056680 -1056216507 267966813 -438290878 -1735798005 407745644
REM
CELL 1.54180   50.00000   50.00000   50.00000   90.00000   90.00000   90.00000
LATT -1
SFAC C  
C      1  0.4698790000000  0.5928320000000  0.5385670000000 1.0
C      1  0.5456670000000  0.5370680000000  0.4687280000000 1.0
C      1  0.5282990000000  0.3933760000000  0.5317820000000 1.0
C      1  0.5788450000000  0.5386680000000  0.5201670000000 1.0
C      1  0.5013900000000  0.5699220000000  0.5942260000000 1.0
C      1  0.5218340000000  0.4751420000000  0.4215120000000 1.0
C      1  0.5283670000000  0.4513300000000  0.5183530000000 1.0
C      1  0.5340290000000  0.4785190000000  0.5773140000000 1.0
C      1  0.3856180000000  0.5252230000000  0.5106680000000 1.0
C      1  0.5140790000000  0.4084020000000  0.5512040000000 1.0
C      1  0.5509570000000  0.5827080000000  0.5332970000000 1.0
C      1  0.5118210000000  0.5533090000000  0.5080930000000 1.0
C      1  0.4405110000000  0.5494870000000  0.6123440000000 1.0
C      1  0.4598640000000  0.5305600000000  0.4882780000000 1.0
C      1  0.4470440000000  0.5760080000000  0.4118320000000 1.0
C      1  0.5611440000000  0.5037000000000  0.6090970000000 1.0
C      1  0.5676310000000  0.4913150000000  0.4359880000000 1.0
C      1  0.5347380000000  0.4700050000000  0.4778080000000 1.0
C      1  0.4426230000000  0.5413270000000  0.5635230000000 1.0
C      1  0.4749720000000  0.5704650000000  0.4058280000000 1.0
C      1  0.5363140000000  0.4780910000000  0.5080040000000 1.0
C      1  0.4903810000000  0.5885710000000  0.4232650000000 1.0
C      1  0.5575720000000  0.5112940000000  0.4159610000000 1.0
C      1  0.5296390000000  0.5441140000000  0.5503610000000 1.0
C      1  0.4448840000000  0.6156260000000  0.5053440000000 1.0
C      1  0.5423830000000  0.5193540000000  0.5512040000000 1.0
C      1  0.4399520000000  0.4687940000000  0.6003510000000 1.0
C      1  0.4468150000000  0.4901730000000  0.4621850000000 1.0
C      1  0.5215850000000  0.5282670000000  0.6216780000000 1.0
C      1  0.4705350000000  0.4244460000000  0.4780040000000 1.0
C      1  0.4864110000000  0.5257740000000  0.5428280000000 1.0
C      1  0.4494490000000  0.4794810000000  0.5478350000000 1.0
C      1  0.4274550000000  0.5121070000000  0.4616470000000 1.0
C      1  0.4623690000000  0.4803700000000  0.6097920000000 1.0
C      1  0.6024620000000  0.5259360000000  0.5059110000000 1.0
C      1  0.3898060000000  0.4506200000000  0.5129470000000 1.0
C      1  0.5627790000000  0.5177880000000  0.5324580000000 1.0
C      1  0.5590410000000  0.5667530000000  0.4165250000000 1.0
C      1  0.5393230000000  0.4287730000000  0.3948120000000 1.0
C      1  0.5367370000000  0.4880660000000  0.6035540000000 1.0
C      1  0.4682180000000  0.4808120000000  0.5021570000000 1.0
C      1  0.4957780000000  0.4994500000000  0.5523360000000 1.0
C      1  0.4340820000000  0.4278010000000  0.5129990000000 1.0
C      1  0.5240670000000  0.3819380000000  0.5074230000000 1.0
C      1  0.4452240000000  0.4081530000000  0.5308800000000 1.0
C      1  0.4472430000000  0.3907040000000  0.4503330000000 1.0
C      1  0.5016480000000  0.4723770000000  0.4408530000000 1.0
C      1  0.5179530000000  0.5842980000000  0.4265950000000 1.0
C      1  0.4479380000000  0.4390810000000  0.4892210000000 1.0
C      1  0.5213830000000  0.4890140000000  0.3965880000000 1.0
C      1  0.5692730000000  0.4993090000000  0.4880880000000 1.0
C      1  0.5414590000000  0.4331430000000  0.4231510000000 1.0
C      1  0.4847400000000  0.5692260000000  0.4737730000000 1.0
C      1  0.5019530000000  0.5031290000000  0.4852350000000 1.0
C      1  0.4866920000000  0.4906010000000  0.6150390000000 1.0
C      1  0.3856240000000  0.4891170000000  0.4724280000000 1.0
C      1  0.5630360000000  0.5786070000000  0.4432480000000 1.0
C      1  0.5360540000000  0.5895590000000  0.4495720000000 1.0
C      1  0.5233150000000  0.4715100000000  0.3744610000000 1.0
C      1  0.5506140000000  0.5272860000000  0.6221120000000 1.0
C      1  0.5075550000000  0.5512520000000  0.6143610000000 1.0
C      1  0.5685370000000  0.4229020000000  0.5083870000000 1.0
C      1  0.4692260000000  0.3996260000000  0.4637530000000 1.0
C      1  0.5818370000000  0.5712640000000  0.4637460000000 1.0
C      1  0.4226160000000  0.4791400000000  0.5019770000000 1.0
C      1  0.4640330000000  0.5663150000000  0.5299450000000 1.0
C      1  0.5369000000000  0.6046610000000  0.5204530000000 1.0
C      1  0.5476030000000  0.4628220000000  0.4289540000000 1.0
C      1  0.4164390000000  0.5355240000000  0.5537230000000 1.0
C      1  0.4275030000000  0.4740700000000  0.5302270000000 1.0
C      1  0.4460260000000  0.4702220000000  0.4852960000000 1.0
C      1  0.4520710000000  0.5548570000000  0.5875230000000 1.0
C      1  0.4742430000000  0.5740080000000  0.5853100000000 1.0
C      1  0.5128540000000  0.5009510000000  0.6153110000000 1.0
C      1  0.5307220000000  0.5364830000000  0.4471930000000 1.0
C      1  0.6001810000000  0.5495520000000  0.4608040000000 1.0
C      1  0.4227130000000  0.5594980000000  0.4719880000000 1.0
C      1  0.4711660000000  0.4240530000000  0.5660110000000 1.0
C      1  0.4859180000000  0.4020080000000  0.5522570000000 1.0
C      1  0.5307760000000  0.5647750000000  0.4081560000000 1.0
C      1  0.3987900000000  0.5310060000000  0.5336360000000 1.0
C      1  0.5702210000000  0.5667790000000  0.5167070000000 1.0
C      1  0.4625060000000  0.5410920000000  0.5433060000000 1.0
C      1  0.5313630000000  0.4455670000000  0.3750230000000 1.0
C      1  0.4689290000000  0.3917870000000  0.5307710000000 1.0
C      1  0.4534130000000  0.4509800000000  0.4262950000000 1.0
C      1  0.4718890000000  0.6006910000000  0.4420080000000 1.0
C      1  0.5431290000000  0.4440730000000  0.4732130000000 1.0
C      1  0.5626110000000  0.4511520000000  0.5482730000000 1.0
C      1  0.4323390000000  0.5335780000000  0.4790850000000 1.0
C      1  0.4438740000000  0.4203440000000  0.5580410000000 1.0
C      1  0.4797490000000  0.4730580000000  0.5485780000000 1.0
C      1  0.5127830000000  0.3901260000000  0.4441580000000 1.0
C      1  0.6001530000000  0.4955310000000  0.5729610000000 1.0
C      1  0.5233330000000  0.5805000000000  0.5785690000000 1.0
C      1  0.6012070000000  0.4885080000000  0.5454410000000 1.0
C      1  0.4830220000000  0.4643740000000  0.5195950000000 1.0
C      1  0.4681480000000  0.5012350000000  0.4468930000000 1.0
C      1  0.4710640000000  0.5951560000000  0.5664910000000 1.0
C      1  0.6022150000000  0.5245970000000  0.4746970000000 1.0
C      1  0.4837340000000  0.5430550000000  0.3993690000000 1.0
C      1  0.4265460000000  0.4516850000000  0.4259150000000 1.0
C      1  0.4777590000000  0.3749370000000  0.5102950000000 1.0
C      1  0.5243470000000  0.4981150000000  0.5592000000000 1.0
C      1  0.4333820000000  0.5177880000000  0.4139180000000 1.0
C      1  0.5169960000000  0.4357490000000  0.5631250000000 1.0
C      1  0.4751350000000  0.5981490000000  0.4723540000000 1.0
C      1  0.4888490000000  0.4476480000000  0.5648770000000 1.0
C      1  0.4305850000000  0.5849090000000  0.4621250000000 1.0
C      1  0.3950040000000  0.4883620000000  0.4433630000000 1.0
C      1  0.4029660000000  0.4634280000000  0.4318790000000 1.0
C      1  0.5002450000000  0.3765920000000  0.4926980000000 1.0
C      1  0.5771780000000  0.5779900000000  0.4911530000000 1.0
C      1  0.5156320000000  0.5405280000000  0.3984870000000 1.0
C      1  0.4139390000000  0.4461270000000  0.5323910000000 1.0
C      1  0.6057320000000  0.4037580000000  0.4848910000000 1.0
C      1  0.5847830000000  0.5023540000000  0.4648670000000 1.0
C      1  0.5101710000000  0.4819160000000  0.4664170000000 1.0
C      1  0.4233080000000  0.4550360000000  0.5840880000000 1.0
C      1  0.5205150000000  0.4285520000000  0.4669680000000 1.0
C      1  0.4909950000000  0.6123430000000  0.4971120000000 1.0
C      1  0.5471230000000  0.5183220000000  0.4884600000000 1.0
C      1  0.4757240000000  0.5072680000000  0.4956040000000 1.0
C      1  0.4586450000000  0.5251670000000  0.4028420000000 1.0
C      1  0.6130420000000  0.5054370000000  0.5244720000000 1.0
C      1  0.4450180000000  0.6016450000000  0.4809850000000 1.0
C      1  0.4811600000000  0.5263560000000  0.4473540000000 1.0
C      1  0.5018870000000  0.4455190000000  0.5100620000000 1.0
C      1  0.3962980000000  0.4708290000000  0.4924980000000 1.0
C      1  0.5378360000000  0.5704030000000  0.5561990000000 1.0
C      1  0.4437410000000  0.5901190000000  0.4366780000000 1.0
C      1  0.5643220000000  0.4869860000000  0.5148990000000 1.0
C      1  0.4309020000000  0.5429090000000  0.6356560000000 1.0
C      1  0.4736540000000  0.5447610000000  0.4675070000000 1.0
C      1  0.5071220000000  0.5283510000000  0.4392030000000 1.0
C      1  0.5201270000000  0.6086670000000  0.4975170000000 1.0
C      1  0.5915780000000  0.4059030000000  0.5101830000000 1.0
C      1  0.5790210000000  0.4721470000000  0.5365250000000 1.0
C      1  0.5105940000000  0.5674200000000  0.4844510000000 1.0
C      1  0.4783730000000  0.4579750000000  0.4333640000000 1.0
C      1  0.4219150000000  0.4383980000000  0.5611100000000 1.0
C      1  0.4940010000000  0.3843620000000  0.4653840000000 1.0
C      1  0.4143800000000  0.5100270000000  0.4362100000000 1.0
C      1  0.5267090000000  0.5897870000000  0.4763480000000 1.0
C      1  0.5323490000000  0.5155340000000  0.3997670000000 1.0
C      1  0.4975700000000  0.4320750000000  0.4848610000000 1.0
C      1  0.4703490000000  0.6128970000000  0.5186530000000 1.0
C      1  0.5896330000000  0.4202270000000  0.4671670000000 1.0
C      1  0.5401330000000  0.4529720000000  0.5671110000000 1.0
C      1  0.5076500000000  0.5423580000000  0.5331070000000 1.0
C      1  0.6282570000000  0.3898890000000  0.4792540000000 1.0
C      1  0.5668070000000  0.4314170000000  0.4804170000000 1.0
C      1  0.5244990000000  0.5062510000000  0.5022420000000 1.0
C      1  0.5851060000000  0.5002400000000  0.5948210000000 1.0
C      1  0.5250250000000  0.4159730000000  0.4414950000000 1.0
C      1  0.3788600000000  0.5133090000000  0.4870690000000 1.0
C      1  0.5516360000000  0.4360810000000  0.5261430000000 1.0
END
