TITL C-612605-9286-621 1534.95560192917 125000 -826.966182981582 0 0 134 (C1) n - 1
REM
REM in /home/nfs/bkarasulu/CARBON/AIRSS/Generating-Clusters/TERSOFF/Only-C1/FIRE-HFTN
REM
REM
REM
REM
REM
REM ./C.cell (11c1c37f851c82e70ff6c80c92926a4b)
REM AIRSS Version 0.9.1 bugfix July 2018 build 013d7b7c2542+ Fri, 06 Jul 2018 19:26:36 +0100
REM compiler GCC version 9.2.1 20190827 (Red Hat 9.2.1-1)
REM options -cpp -mtune=generic -march=x86-64 -g -O0 -fpre-include=/usr/include/finclude/math-vector-fortran.h
REM seed -1296746110 -1597347418 125929754 -2028297732 607689867 -1316408390 -1296286 37183223 1159900782 -242955899 1576156092 -1518120686 1580998791 -2112893460 314138459 1665613477 -1918709043 -267947136 122155936 1382896187 1947461798 731788804 74402084 402525340 1495488449 983767674 1502418128 1486236862 -2121613162 -246645913 1327876605 -190421624 1295551210
REM
CELL 1.54180   50.00000   50.00000   50.00000   90.00000   90.00000   90.00000
LATT -1
SFAC C  
C      1  0.4035960000000  0.5147370000000  0.5093770000000 1.0
C      1  0.5264150000000  0.5204060000000  0.5638180000000 1.0
C      1  0.4624460000000  0.4401060000000  0.4335730000000 1.0
C      1  0.5269350000000  0.4044300000000  0.4662290000000 1.0
C      1  0.4469000000000  0.5133040000000  0.4266060000000 1.0
C      1  0.5036020000000  0.5412380000000  0.4733650000000 1.0
C      1  0.5731130000000  0.5102520000000  0.5583620000000 1.0
C      1  0.4094410000000  0.4701490000000  0.4840490000000 1.0
C      1  0.5105270000000  0.5388180000000  0.4166640000000 1.0
C      1  0.5021420000000  0.4414600000000  0.4617390000000 1.0
C      1  0.4671650000000  0.4580160000000  0.4885000000000 1.0
C      1  0.4801750000000  0.6138470000000  0.5436000000000 1.0
C      1  0.5805540000000  0.4564120000000  0.5105930000000 1.0
C      1  0.4792930000000  0.4279910000000  0.5416420000000 1.0
C      1  0.5113130000000  0.4227030000000  0.4823700000000 1.0
C      1  0.4901950000000  0.5946090000000  0.4795070000000 1.0
C      1  0.5746600000000  0.5807230000000  0.3665800000000 1.0
C      1  0.5687220000000  0.5292810000000  0.5013270000000 1.0
C      1  0.4702780000000  0.4263300000000  0.5876870000000 1.0
C      1  0.6153890000000  0.4971900000000  0.5439900000000 1.0
C      1  0.4140830000000  0.5145750000000  0.4618370000000 1.0
C      1  0.4682910000000  0.5847820000000  0.4376950000000 1.0
C      1  0.5892130000000  0.5349360000000  0.5226100000000 1.0
C      1  0.5397680000000  0.3890130000000  0.5261320000000 1.0
C      1  0.4936640000000  0.4645800000000  0.4985490000000 1.0
C      1  0.5084840000000  0.4394560000000  0.5065090000000 1.0
C      1  0.4948030000000  0.4933250000000  0.4195670000000 1.0
C      1  0.5629340000000  0.6084580000000  0.4807370000000 1.0
C      1  0.4058510000000  0.4993650000000  0.4850490000000 1.0
C      1  0.5262280000000  0.5442820000000  0.5237900000000 1.0
C      1  0.5148740000000  0.3789700000000  0.5169730000000 1.0
C      1  0.4344330000000  0.5429200000000  0.5335610000000 1.0
C      1  0.4467850000000  0.5203610000000  0.5438270000000 1.0
C      1  0.4589150000000  0.4441890000000  0.5308770000000 1.0
C      1  0.5660510000000  0.6168720000000  0.5064090000000 1.0
C      1  0.4708570000000  0.5073440000000  0.4724310000000 1.0
C      1  0.4188860000000  0.4286150000000  0.4563440000000 1.0
C      1  0.4534460000000  0.4725020000000  0.5376620000000 1.0
C      1  0.4741150000000  0.5740770000000  0.4907110000000 1.0
C      1  0.5565410000000  0.4217610000000  0.5645020000000 1.0
C      1  0.3971530000000  0.5038940000000  0.5350540000000 1.0
C      1  0.4913150000000  0.5087130000000  0.5251530000000 1.0
C      1  0.4465100000000  0.4414780000000  0.5037930000000 1.0
C      1  0.5048720000000  0.5074320000000  0.5509100000000 1.0
C      1  0.4772930000000  0.3861090000000  0.4805050000000 1.0
C      1  0.5701880000000  0.5720590000000  0.3907580000000 1.0
C      1  0.4508680000000  0.4650880000000  0.4261240000000 1.0
C      1  0.5786690000000  0.4825400000000  0.4962310000000 1.0
C      1  0.5071190000000  0.5772010000000  0.5652630000000 1.0
C      1  0.5662900000000  0.4994210000000  0.4456230000000 1.0
C      1  0.4982320000000  0.5376500000000  0.5181210000000 1.0
C      1  0.4948660000000  0.5258260000000  0.5940760000000 1.0
C      1  0.5391430000000  0.4887180000000  0.5992640000000 1.0
C      1  0.4881260000000  0.6284390000000  0.4445570000000 1.0
C      1  0.5341240000000  0.4891230000000  0.5141490000000 1.0
C      1  0.5735040000000  0.4105430000000  0.4929220000000 1.0
C      1  0.4104280000000  0.4542440000000  0.5349430000000 1.0
C      1  0.4472640000000  0.4208920000000  0.4487390000000 1.0
C      1  0.5700000000000  0.5279940000000  0.4506940000000 1.0
C      1  0.4918150000000  0.5209610000000  0.4584620000000 1.0
C      1  0.4186600000000  0.5394880000000  0.5102310000000 1.0
C      1  0.4138860000000  0.4131970000000  0.4806200000000 1.0
C      1  0.6106530000000  0.5404120000000  0.4749430000000 1.0
C      1  0.4439280000000  0.5873850000000  0.5246560000000 1.0
C      1  0.5184280000000  0.4753750000000  0.4169190000000 1.0
C      1  0.5653150000000  0.5630600000000  0.4151930000000 1.0
C      1  0.5712630000000  0.4528860000000  0.4634060000000 1.0
C      1  0.4401670000000  0.4140840000000  0.4934850000000 1.0
C      1  0.4751130000000  0.4127370000000  0.5648180000000 1.0
C      1  0.4581580000000  0.4048890000000  0.4720280000000 1.0
C      1  0.5429430000000  0.5674310000000  0.4597340000000 1.0
C      1  0.4274970000000  0.4690110000000  0.5556280000000 1.0
C      1  0.4685020000000  0.4542720000000  0.5862890000000 1.0
C      1  0.4251570000000  0.4722500000000  0.4374990000000 1.0
C      1  0.5803160000000  0.4809510000000  0.4669170000000 1.0
C      1  0.5226820000000  0.4605890000000  0.4632630000000 1.0
C      1  0.5032140000000  0.5974240000000  0.5436220000000 1.0
C      1  0.5604050000000  0.3921210000000  0.5071100000000 1.0
C      1  0.4434600000000  0.4688360000000  0.5835440000000 1.0
C      1  0.4878740000000  0.5501970000000  0.4952580000000 1.0
C      1  0.5592190000000  0.5532020000000  0.4404260000000 1.0
C      1  0.5761470000000  0.4378250000000  0.4881290000000 1.0
C      1  0.5231260000000  0.5146480000000  0.5918780000000 1.0
C      1  0.5007000000000  0.5183070000000  0.4317250000000 1.0
C      1  0.6101120000000  0.4705880000000  0.5462180000000 1.0
C      1  0.5587360000000  0.5006040000000  0.5046200000000 1.0
C      1  0.5126080000000  0.4619350000000  0.5522020000000 1.0
C      1  0.4282120000000  0.5408480000000  0.4627250000000 1.0
C      1  0.5458300000000  0.4814210000000  0.4311610000000 1.0
C      1  0.5291640000000  0.4231960000000  0.4180700000000 1.0
C      1  0.4873020000000  0.5575560000000  0.5772830000000 1.0
C      1  0.4910230000000  0.4713830000000  0.5777770000000 1.0
C      1  0.5564560000000  0.4714070000000  0.5801840000000 1.0
C      1  0.5112920000000  0.4460630000000  0.4167320000000 1.0
C      1  0.5355840000000  0.5431590000000  0.5505490000000 1.0
C      1  0.5401810000000  0.5932940000000  0.4728390000000 1.0
C      1  0.4467760000000  0.5761730000000  0.4977310000000 1.0
C      1  0.4289170000000  0.5548110000000  0.4879820000000 1.0
C      1  0.4619390000000  0.5010040000000  0.5257820000000 1.0
C      1  0.5062310000000  0.4893430000000  0.5065790000000 1.0
C      1  0.4479510000000  0.5672370000000  0.3981680000000 1.0
C      1  0.5470410000000  0.4580120000000  0.4496250000000 1.0
C      1  0.4557910000000  0.6115590000000  0.5324850000000 1.0
C      1  0.5957670000000  0.5176130000000  0.5437810000000 1.0
C      1  0.5049020000000  0.4387510000000  0.5353300000000 1.0
C      1  0.4453740000000  0.5408490000000  0.4382570000000 1.0
C      1  0.4567240000000  0.5031570000000  0.4953610000000 1.0
C      1  0.5446700000000  0.4017790000000  0.5509530000000 1.0
C      1  0.4437010000000  0.5669060000000  0.5446580000000 1.0
C      1  0.5430980000000  0.5441310000000  0.5013450000000 1.0
C      1  0.4227680000000  0.5003380000000  0.4385180000000 1.0
C      1  0.5687420000000  0.4474240000000  0.5653790000000 1.0
C      1  0.4608080000000  0.5635250000000  0.5676300000000 1.0
C      1  0.5864760000000  0.4550670000000  0.5401100000000 1.0
C      1  0.4134750000000  0.4567620000000  0.4580430000000 1.0
C      1  0.4902660000000  0.4401620000000  0.4362010000000 1.0
C      1  0.5469160000000  0.6131070000000  0.5253360000000 1.0
C      1  0.5347170000000  0.4785820000000  0.5408830000000 1.0
C      1  0.5164020000000  0.5976830000000  0.4909140000000 1.0
C      1  0.5303400000000  0.5483560000000  0.4763390000000 1.0
C      1  0.4782630000000  0.5023820000000  0.5893250000000 1.0
C      1  0.5332700000000  0.4063750000000  0.4395080000000 1.0
C      1  0.4540090000000  0.5643080000000  0.4247690000000 1.0
C      1  0.5843650000000  0.5327700000000  0.4752630000000 1.0
C      1  0.5553270000000  0.4890290000000  0.5572420000000 1.0
C      1  0.5210810000000  0.6017270000000  0.5203530000000 1.0
C      1  0.4500520000000  0.4980690000000  0.5872610000000 1.0
C      1  0.4656770000000  0.4898530000000  0.4194110000000 1.0
C      1  0.4943910000000  0.3774040000000  0.4995130000000 1.0
C      1  0.5336040000000  0.5669100000000  0.5651670000000 1.0
C      1  0.4342540000000  0.5118790000000  0.5680590000000 1.0
C      1  0.4124020000000  0.4955710000000  0.5576770000000 1.0
C      1  0.4824470000000  0.6033070000000  0.4535650000000 1.0
C      1  0.4188910000000  0.4553450000000  0.5071240000000 1.0
END
