TITL C-612606-7351-734 0.000663330767333559 125000 -361.708058262139 0 0 60 (C1) n - 1
REM
REM in /home/nfs/bkarasulu/CARBON/AIRSS/Generating-Clusters/TERSOFF/Only-C1/FIRE-HFTN
REM
REM
REM
REM
REM
REM ./C.cell (11c1c37f851c82e70ff6c80c92926a4b)
REM AIRSS Version 0.9.1 bugfix July 2018 build 013d7b7c2542+ Fri, 06 Jul 2018 19:26:36 +0100
REM compiler GCC version 9.2.1 20190827 (Red Hat 9.2.1-1)
REM options -cpp -mtune=generic -march=x86-64 -g -O0 -fpre-include=/usr/include/finclude/math-vector-fortran.h
REM seed -257821234 -830531453 -1900890648 -2109550691 364973485 -1513787473 520557026 1804840307 1503624782 -144127294 -1920726178 859299293 -26987391 760840493 1998815911 -1160059752 1358248094 264246215 -325537271 950811646 546536239 1678222960 71265850 104246231 2084803946 -835593687 1371566667 1667101300 -1021347156 2112566671 1294769438 935263000 1194165445
REM
CELL 1.54180   50.00000   50.00000   50.00000   90.00000   90.00000   90.00000
LATT -1
SFAC C  
C      1  0.5334180000000  0.4695950000000  0.5042150000000 1.0
C      1  0.4646230000000  0.5538030000000  0.5080280000000 1.0
C      1  0.5494590000000  0.4142720000000  0.4434300000000 1.0
C      1  0.6098950000000  0.5386600000000  0.5259890000000 1.0
C      1  0.4899280000000  0.5495960000000  0.5212850000000 1.0
C      1  0.5210570000000  0.4662630000000  0.4296030000000 1.0
C      1  0.5664300000000  0.4916930000000  0.5508840000000 1.0
C      1  0.4989720000000  0.5573080000000  0.5710780000000 1.0
C      1  0.5026570000000  0.4470370000000  0.4179800000000 1.0
C      1  0.4157030000000  0.5483720000000  0.5199030000000 1.0
C      1  0.4985510000000  0.4853700000000  0.5440920000000 1.0
C      1  0.4706200000000  0.4817390000000  0.4279200000000 1.0
C      1  0.4311120000000  0.4962940000000  0.5654400000000 1.0
C      1  0.5014660000000  0.4907610000000  0.4783200000000 1.0
C      1  0.5250820000000  0.4743820000000  0.4778770000000 1.0
C      1  0.3949820000000  0.5421370000000  0.5373450000000 1.0
C      1  0.5819630000000  0.5649340000000  0.4902110000000 1.0
C      1  0.4293680000000  0.4489780000000  0.5484770000000 1.0
C      1  0.4733920000000  0.4553150000000  0.4972680000000 1.0
C      1  0.5599580000000  0.4647000000000  0.5434400000000 1.0
C      1  0.4487920000000  0.4371970000000  0.5344920000000 1.0
C      1  0.5483260000000  0.5124510000000  0.5433410000000 1.0
C      1  0.4564570000000  0.5634350000000  0.4829350000000 1.0
C      1  0.5164260000000  0.5665970000000  0.4469860000000 1.0
C      1  0.5331760000000  0.5273250000000  0.5269200000000 1.0
C      1  0.3754750000000  0.5365450000000  0.5536980000000 1.0
C      1  0.5609290000000  0.5707740000000  0.4750470000000 1.0
C      1  0.5994500000000  0.5544150000000  0.5072550000000 1.0
C      1  0.5113000000000  0.4205810000000  0.4142880000000 1.0
C      1  0.5424950000000  0.4464630000000  0.5567520000000 1.0
C      1  0.4970290000000  0.4314490000000  0.5350310000000 1.0
C      1  0.4218180000000  0.4717110000000  0.5603190000000 1.0
C      1  0.4566670000000  0.5368610000000  0.5509280000000 1.0
C      1  0.5044540000000  0.5168480000000  0.4885560000000 1.0
C      1  0.5193610000000  0.4337950000000  0.5501160000000 1.0
C      1  0.5144950000000  0.5642480000000  0.5908250000000 1.0
C      1  0.5315210000000  0.4062650000000  0.4249070000000 1.0
C      1  0.5340350000000  0.4609560000000  0.4546020000000 1.0
C      1  0.5160530000000  0.4928590000000  0.4212930000000 1.0
C      1  0.4973140000000  0.5528530000000  0.4345780000000 1.0
C      1  0.6087180000000  0.5188060000000  0.5437510000000 1.0
C      1  0.5105520000000  0.5331990000000  0.5108810000000 1.0
C      1  0.5930070000000  0.5000430000000  0.5546040000000 1.0
C      1  0.4760770000000  0.4570920000000  0.4138670000000 1.0
C      1  0.4107830000000  0.5581740000000  0.4936580000000 1.0
C      1  0.5142600000000  0.4774740000000  0.5240670000000 1.0
C      1  0.4576190000000  0.4448490000000  0.3979640000000 1.0
C      1  0.4768290000000  0.4759480000000  0.4780680000000 1.0
C      1  0.4302460000000  0.5653690000000  0.4761500000000 1.0
C      1  0.5580310000000  0.4617640000000  0.5150270000000 1.0
C      1  0.4894190000000  0.5029900000000  0.4224910000000 1.0
C      1  0.4548210000000  0.5103880000000  0.5606300000000 1.0
C      1  0.5507060000000  0.4382050000000  0.4557970000000 1.0
C      1  0.4735040000000  0.4399020000000  0.5212410000000 1.0
C      1  0.4836400000000  0.5484600000000  0.5498770000000 1.0
C      1  0.4614700000000  0.4791570000000  0.4546150000000 1.0
C      1  0.5385340000000  0.5718970000000  0.4607740000000 1.0
C      1  0.4784430000000  0.4951230000000  0.5584250000000 1.0
C      1  0.4431040000000  0.5458590000000  0.5269430000000 1.0
C      1  0.4860300000000  0.5304640000000  0.4255160000000 1.0
END
