TITL C-612606-7351-1129 1.1338596077619e-05 125000 -132.149784146265 0 0 23 (C1) n - 1
REM
REM in /home/nfs/bkarasulu/CARBON/AIRSS/Generating-Clusters/TERSOFF/Only-C1/FIRE-HFTN
REM
REM
REM
REM
REM
REM ./C.cell (11c1c37f851c82e70ff6c80c92926a4b)
REM AIRSS Version 0.9.1 bugfix July 2018 build 013d7b7c2542+ Fri, 06 Jul 2018 19:26:36 +0100
REM compiler GCC version 9.2.1 20190827 (Red Hat 9.2.1-1)
REM options -cpp -mtune=generic -march=x86-64 -g -O0 -fpre-include=/usr/include/finclude/math-vector-fortran.h
REM seed -1761863853 617986329 476676668 1076296750 -1969043486 -1432026717 -1181593034 -341631568 -306393607 -1771356683 1928553342 -1383759212 1301895917 433102212 98810210 -523219026 -485163348 -1613740214 -756071619 1547057773 176071061 502064361 -526517661 -1212539012 -1748164107 -793705043 1176343805 -850009312 1411625485 1794573399 -174194180 1354334989 -381581380
REM
CELL 1.54180   50.00000   50.00000   50.00000   90.00000   90.00000   90.00000
LATT -1
SFAC C  
C      1  0.4687890000000  0.4942300000000  0.5199120000000 1.0
C      1  0.5300370000000  0.5240210000000  0.4335750000000 1.0
C      1  0.4893480000000  0.5329000000000  0.4158020000000 1.0
C      1  0.4488250000000  0.4838770000000  0.5354380000000 1.0
C      1  0.4926550000000  0.4793520000000  0.5138610000000 1.0
C      1  0.5150280000000  0.5325910000000  0.5036630000000 1.0
C      1  0.4940330000000  0.4078310000000  0.5239710000000 1.0
C      1  0.5369510000000  0.4907300000000  0.5510190000000 1.0
C      1  0.4530280000000  0.5244620000000  0.4844780000000 1.0
C      1  0.5165210000000  0.5310690000000  0.4103580000000 1.0
C      1  0.5364140000000  0.5319640000000  0.5217950000000 1.0
C      1  0.5112490000000  0.5209170000000  0.4554890000000 1.0
C      1  0.5077190000000  0.4874340000000  0.4912180000000 1.0
C      1  0.4610840000000  0.5268840000000  0.4590100000000 1.0
C      1  0.4668550000000  0.5205620000000  0.5087180000000 1.0
C      1  0.5195640000000  0.4689060000000  0.5540740000000 1.0
C      1  0.5035220000000  0.4603850000000  0.5320100000000 1.0
C      1  0.4888380000000  0.5381220000000  0.5132500000000 1.0
C      1  0.5439260000000  0.5141180000000  0.5403020000000 1.0
C      1  0.5148590000000  0.5133600000000  0.4821820000000 1.0
C      1  0.4843560000000  0.5269310000000  0.4437540000000 1.0
C      1  0.4987790000000  0.4331560000000  0.5278710000000 1.0
C      1  0.5176210000000  0.4561980000000  0.5782490000000 1.0
END
