TITL C-612600-6631-601 3.73849270583136 125000 -357.281864155194 0 0 61 (C1) n - 1
REM
REM in /home/nfs/bkarasulu/CARBON/AIRSS/Generating-Clusters/TERSOFF/Only-C1/FIRE-HFTN
REM
REM
REM
REM
REM
REM ./C.cell (11c1c37f851c82e70ff6c80c92926a4b)
REM AIRSS Version 0.9.1 bugfix July 2018 build 013d7b7c2542+ Fri, 06 Jul 2018 19:26:36 +0100
REM compiler GCC version 9.2.1 20190827 (Red Hat 9.2.1-1)
REM options -cpp -mtune=generic -march=x86-64 -g -O0 -fpre-include=/usr/include/finclude/math-vector-fortran.h
REM seed -1039746204 454442088 -57922419 1786044100 1996432782 -451306088 -93826905 1955871340 777244904 -2139613579 907745989 463205159 688311132 -920809703 1317812401 347834958 1964780954 1805667866 455780198 267537780 2107050124 2049536454 -1483310356 -593731493 640412807 214122186 -777068276 1007929613 1193936110 525074647 2142179121 -1554198296 1963040604
REM
CELL 1.54180   50.00000   50.00000   50.00000   90.00000   90.00000   90.00000
LATT -1
SFAC C  
C      1  0.4873690000000  0.5742090000000  0.4718470000000 1.0
C      1  0.4313540000000  0.4959470000000  0.4554600000000 1.0
C      1  0.4728220000000  0.4306390000000  0.4759280000000 1.0
C      1  0.5122300000000  0.5535290000000  0.5201990000000 1.0
C      1  0.4757560000000  0.5549290000000  0.4888840000000 1.0
C      1  0.4391800000000  0.4689210000000  0.4994020000000 1.0
C      1  0.5567750000000  0.4571570000000  0.4637590000000 1.0
C      1  0.4875800000000  0.4363950000000  0.5224970000000 1.0
C      1  0.5953700000000  0.5539070000000  0.5120050000000 1.0
C      1  0.4945440000000  0.5393240000000  0.5035020000000 1.0
C      1  0.5470830000000  0.4806450000000  0.5157860000000 1.0
C      1  0.4703080000000  0.4556600000000  0.5343580000000 1.0
C      1  0.5269730000000  0.5687650000000  0.5353460000000 1.0
C      1  0.4693270000000  0.5333510000000  0.4133770000000 1.0
C      1  0.5442760000000  0.5106750000000  0.5748830000000 1.0
C      1  0.5278300000000  0.4081140000000  0.4757750000000 1.0
C      1  0.5217880000000  0.4941450000000  0.5739440000000 1.0
C      1  0.5265740000000  0.4160300000000  0.5016250000000 1.0
C      1  0.4864530000000  0.4527200000000  0.4657280000000 1.0
C      1  0.4495380000000  0.5397900000000  0.5388080000000 1.0
C      1  0.5098090000000  0.5175150000000  0.4398750000000 1.0
C      1  0.4361140000000  0.4936280000000  0.5401100000000 1.0
C      1  0.5243150000000  0.4125150000000  0.4493480000000 1.0
C      1  0.5886880000000  0.5398350000000  0.5637000000000 1.0
C      1  0.4357710000000  0.5423590000000  0.4656230000000 1.0
C      1  0.4951680000000  0.5305760000000  0.4197530000000 1.0
C      1  0.5038900000000  0.4514840000000  0.4223450000000 1.0
C      1  0.4110790000000  0.5272120000000  0.5151360000000 1.0
C      1  0.5314370000000  0.5294520000000  0.4551520000000 1.0
C      1  0.4988820000000  0.4938070000000  0.4806780000000 1.0
C      1  0.4963870000000  0.4955930000000  0.4514130000000 1.0
C      1  0.5511040000000  0.5006930000000  0.4977550000000 1.0
C      1  0.4901890000000  0.4681860000000  0.4407960000000 1.0
C      1  0.4970000000000  0.5108780000000  0.5032180000000 1.0
C      1  0.4327960000000  0.4780210000000  0.4751550000000 1.0
C      1  0.5207070000000  0.4709730000000  0.5895050000000 1.0
C      1  0.4744510000000  0.4218660000000  0.5015030000000 1.0
C      1  0.4351630000000  0.5221700000000  0.4461010000000 1.0
C      1  0.5068130000000  0.4658050000000  0.4824420000000 1.0
C      1  0.4348270000000  0.5432020000000  0.5145150000000 1.0
C      1  0.5461470000000  0.5154680000000  0.4754660000000 1.0
C      1  0.4481590000000  0.4716450000000  0.5261870000000 1.0
C      1  0.5334910000000  0.4595550000000  0.4754460000000 1.0
C      1  0.4422680000000  0.5282240000000  0.4191930000000 1.0
C      1  0.4114710000000  0.5037470000000  0.5292430000000 1.0
C      1  0.6073350000000  0.5475840000000  0.5830010000000 1.0
C      1  0.4523010000000  0.5144580000000  0.5518450000000 1.0
C      1  0.5925530000000  0.5468220000000  0.5369270000000 1.0
C      1  0.4479440000000  0.5492710000000  0.4899760000000 1.0
C      1  0.5115290000000  0.5756560000000  0.4600530000000 1.0
C      1  0.5167090000000  0.4282700000000  0.4287090000000 1.0
C      1  0.5310640000000  0.5577720000000  0.4551960000000 1.0
C      1  0.4232440000000  0.5290910000000  0.3995850000000 1.0
C      1  0.4751140000000  0.5084270000000  0.5667500000000 1.0
C      1  0.6247430000000  0.5548340000000  0.6009910000000 1.0
C      1  0.5019700000000  0.5001140000000  0.5288950000000 1.0
C      1  0.5002390000000  0.5006520000000  0.5569200000000 1.0
C      1  0.5167720000000  0.4359710000000  0.5200720000000 1.0
C      1  0.5189230000000  0.4483150000000  0.6022550000000 1.0
C      1  0.5661600000000  0.5251040000000  0.5711580000000 1.0
C      1  0.5341430000000  0.4583990000000  0.5248920000000 1.0
END
