TITL C-612605-9286-1256 0.00200107808075273 125000 -320.263708575093 0 0 54 (C1) n - 1
REM
REM in /home/nfs/bkarasulu/CARBON/AIRSS/Generating-Clusters/TERSOFF/Only-C1/FIRE-HFTN
REM
REM
REM
REM
REM
REM ./C.cell (11c1c37f851c82e70ff6c80c92926a4b)
REM AIRSS Version 0.9.1 bugfix July 2018 build 013d7b7c2542+ Fri, 06 Jul 2018 19:26:36 +0100
REM compiler GCC version 9.2.1 20190827 (Red Hat 9.2.1-1)
REM options -cpp -mtune=generic -march=x86-64 -g -O0 -fpre-include=/usr/include/finclude/math-vector-fortran.h
REM seed -1953698037 1630899694 207111947 2090748463 824221511 -1008270472 43481060 1735480318 -1668378918 -630286708 1245242465 -1587735008 1225324860 1870671335 -1146363437 196782638 645610165 -1850737795 1260332397 1328442431 1270057164 849860724 356111377 2076602149 -636530915 -1193553134 146361214 -1191583286 -1979342615 1228137356 1065180848 -606175428 1100579336
REM
CELL 1.54180   50.00000   50.00000   50.00000   90.00000   90.00000   90.00000
LATT -1
SFAC C  
C      1  0.5301880000000  0.4436720000000  0.5245760000000 1.0
C      1  0.4923200000000  0.5653110000000  0.4120380000000 1.0
C      1  0.5032080000000  0.4807100000000  0.5053040000000 1.0
C      1  0.4721740000000  0.4123840000000  0.5044010000000 1.0
C      1  0.4379380000000  0.4815040000000  0.5088420000000 1.0
C      1  0.5096220000000  0.4120110000000  0.6323980000000 1.0
C      1  0.5491140000000  0.5412480000000  0.4464540000000 1.0
C      1  0.4806350000000  0.5776210000000  0.4328300000000 1.0
C      1  0.5330080000000  0.5389600000000  0.5229120000000 1.0
C      1  0.5565360000000  0.4453750000000  0.5281930000000 1.0
C      1  0.4592300000000  0.3905830000000  0.4966770000000 1.0
C      1  0.5572040000000  0.5650050000000  0.4611850000000 1.0
C      1  0.4464560000000  0.4773500000000  0.5359110000000 1.0
C      1  0.5109580000000  0.4658460000000  0.5727200000000 1.0
C      1  0.4886160000000  0.5541420000000  0.4781890000000 1.0
C      1  0.5124320000000  0.5386800000000  0.4769390000000 1.0
C      1  0.4365000000000  0.5101640000000  0.4458310000000 1.0
C      1  0.5496120000000  0.5009170000000  0.5575900000000 1.0
C      1  0.5214820000000  0.4821100000000  0.4835650000000 1.0
C      1  0.4420670000000  0.4539490000000  0.4654740000000 1.0
C      1  0.5026020000000  0.4552790000000  0.5230590000000 1.0
C      1  0.5078630000000  0.5417620000000  0.4117030000000 1.0
C      1  0.5439230000000  0.5247650000000  0.5440500000000 1.0
C      1  0.4707560000000  0.4829090000000  0.5500580000000 1.0
C      1  0.4509390000000  0.4651920000000  0.4427070000000 1.0
C      1  0.4941570000000  0.5172760000000  0.4096010000000 1.0
C      1  0.4746770000000  0.5473890000000  0.5019280000000 1.0
C      1  0.4870240000000  0.5029460000000  0.5135430000000 1.0
C      1  0.4299140000000  0.5141370000000  0.4716120000000 1.0
C      1  0.5820110000000  0.5754710000000  0.4553140000000 1.0
C      1  0.5163630000000  0.5629640000000  0.5234560000000 1.0
C      1  0.5518940000000  0.5145500000000  0.4561410000000 1.0
C      1  0.4746810000000  0.5005400000000  0.4169330000000 1.0
C      1  0.4830990000000  0.5359590000000  0.5481490000000 1.0
C      1  0.5747870000000  0.4622930000000  0.5380870000000 1.0
C      1  0.5336120000000  0.5435420000000  0.4229290000000 1.0
C      1  0.4534810000000  0.4915720000000  0.4328840000000 1.0
C      1  0.5724810000000  0.4860280000000  0.5504470000000 1.0
C      1  0.4351070000000  0.4599610000000  0.4907360000000 1.0
C      1  0.5398570000000  0.4931000000000  0.4672530000000 1.0
C      1  0.4925250000000  0.4638350000000  0.5509650000000 1.0
C      1  0.5104490000000  0.4476020000000  0.5937270000000 1.0
C      1  0.5299890000000  0.5299990000000  0.4960370000000 1.0
C      1  0.4821570000000  0.5081700000000  0.5423530000000 1.0
C      1  0.4843030000000  0.4348030000000  0.5115920000000 1.0
C      1  0.4460990000000  0.3695020000000  0.4887550000000 1.0
C      1  0.4422560000000  0.5072120000000  0.4959480000000 1.0
C      1  0.4798890000000  0.5721680000000  0.4589780000000 1.0
C      1  0.5100370000000  0.4296860000000  0.6132390000000 1.0
C      1  0.5270070000000  0.5816010000000  0.5042360000000 1.0
C      1  0.4883370000000  0.5551350000000  0.5269960000000 1.0
C      1  0.4669920000000  0.5196920000000  0.5013660000000 1.0
C      1  0.5417170000000  0.5785070000000  0.4813640000000 1.0
C      1  0.5297130000000  0.4869100000000  0.5718260000000 1.0
END
