TITL C-612600-6631-453 112068.974447942 125000 -850.461494642385 0 0 140 (C1) n - 1
REM
REM in /home/nfs/bkarasulu/CARBON/AIRSS/Generating-Clusters/TERSOFF/Only-C1/FIRE-HFTN
REM
REM
REM
REM
REM
REM ./C.cell (11c1c37f851c82e70ff6c80c92926a4b)
REM AIRSS Version 0.9.1 bugfix July 2018 build 013d7b7c2542+ Fri, 06 Jul 2018 19:26:36 +0100
REM compiler GCC version 9.2.1 20190827 (Red Hat 9.2.1-1)
REM options -cpp -mtune=generic -march=x86-64 -g -O0 -fpre-include=/usr/include/finclude/math-vector-fortran.h
REM seed -308925705 -2062380319 1293707161 -1938206196 229023724 370174378 -1603108376 1753308547 831849409 557252308 -385119918 2070441706 1939052278 -224269440 1156937429 1804712961 -1527660624 1780977158 -1677796345 831093769 1674645421 1161671289 -660939878 2016749421 1022514683 1727260269 765862903 1077805185 -282733263 -501055325 -1632437069 -636436316 1156306352
REM
CELL 1.54180   50.00000   50.00000   50.00000   90.00000   90.00000   90.00000
LATT -1
SFAC C  
C      1  0.5635210000000  0.4349440000000  0.4812120000000 1.0
C      1  0.5310250000000  0.5145130000000  0.4970290000000 1.0
C      1  0.4454560000000  0.5173040000000  0.4692950000000 1.0
C      1  0.5327570000000  0.4600970000000  0.5145640000000 1.0
C      1  0.5954930000000  0.4613010000000  0.4505170000000 1.0
C      1  0.4258920000000  0.4457590000000  0.4867310000000 1.0
C      1  0.5610760000000  0.5712780000000  0.5463100000000 1.0
C      1  0.5725060000000  0.4427770000000  0.4540210000000 1.0
C      1  0.5449830000000  0.5796880000000  0.4706080000000 1.0
C      1  0.5278770000000  0.6030520000000  0.4746530000000 1.0
C      1  0.5279920000000  0.4542980000000  0.4181900000000 1.0
C      1  0.4914320000000  0.5816720000000  0.5745280000000 1.0
C      1  0.5034090000000  0.5553170000000  0.4861810000000 1.0
C      1  0.5744410000000  0.5451560000000  0.4019680000000 1.0
C      1  0.5523600000000  0.4754940000000  0.5275450000000 1.0
C      1  0.4779450000000  0.4822070000000  0.4925030000000 1.0
C      1  0.5217830000000  0.5154330000000  0.5287240000000 1.0
C      1  0.4016390000000  0.5086890000000  0.4965050000000 1.0
C      1  0.3340520000000  0.5308260000000  0.4794180000000 1.0
C      1  0.4527450000000  0.5420750000000  0.5823920000000 1.0
C      1  0.4614950000000  0.4844910000000  0.5363230000000 1.0
C      1  0.3557770000000  0.5270470000000  0.4933120000000 1.0
C      1  0.4283930000000  0.4551050000000  0.4599960000000 1.0
C      1  0.5451610000000  0.5677000000000  0.5695040000000 1.0
C      1  0.4393270000000  0.4322990000000  0.5080460000000 1.0
C      1  0.5593700000000  0.4916230000000  0.5517150000000 1.0
C      1  0.5136440000000  0.4816650000000  0.4191700000000 1.0
C      1  0.4442810000000  0.5698300000000  0.4582760000000 1.0
C      1  0.4680640000000  0.5851200000000  0.5581140000000 1.0
C      1  0.5602380000000  0.4842720000000  0.4324700000000 1.0
C      1  0.5705320000000  0.4850880000000  0.5079340000000 1.0
C      1  0.6087460000000  0.5710030000000  0.5576830000000 1.0
C      1  0.3825040000000  0.4671250000000  0.4483280000000 1.0
C      1  0.6170450000000  0.5157920000000  0.4891700000000 1.0
C      1  0.5409700000000  0.4744860000000  0.4717270000000 1.0
C      1  0.5349160000000  0.5212730000000  0.5788150000000 1.0
C      1  0.4373040000000  0.5319740000000  0.5288380000000 1.0
C      1  0.4968420000000  0.4479590000000  0.6058200000000 1.0
C      1  0.5996410000000  0.5391990000000  0.4922200000000 1.0
C      1  0.4723950000000  0.4551230000000  0.4027570000000 1.0
C      1  0.5099350000000  0.6140990000000  0.4929440000000 1.0
C      1  0.4352650000000  0.5190490000000  0.5864050000000 1.0
C      1  0.4620090000000  0.5041700000000  0.4871540000000 1.0
C      1  0.5090910000000  0.4516130000000  0.5263010000000 1.0
C      1  0.4387830000000  0.5027540000000  0.5275830000000 1.0
C      1  0.5191800000000  0.5808170000000  0.5224280000000 1.0
C      1  0.4200980000000  0.4897750000000  0.4274830000000 1.0
C      1  0.4749040000000  0.4109700000000  0.5532310000000 1.0
C      1  0.5158540000000  0.4334070000000  0.5908560000000 1.0
C      1  0.5812390000000  0.4442080000000  0.5518500000000 1.0
C      1  0.5060500000000  0.3772170000000  0.5364640000000 1.0
C      1  0.5546260000000  0.4767290000000  0.5775820000000 1.0
C      1  0.5866440000000  0.5320960000000  0.5380430000000 1.0
C      1  0.4399050000000  0.5075960000000  0.4239390000000 1.0
C      1  0.4533410000000  0.4190860000000  0.4399810000000 1.0
C      1  0.4558050000000  0.3666720000000  0.4388960000000 1.0
C      1  0.5884280000000  0.4866350000000  0.4379980000000 1.0
C      1  0.5712510000000  0.4257330000000  0.5079710000000 1.0
C      1  0.4179300000000  0.5170630000000  0.4751070000000 1.0
C      1  0.4288190000000  0.4654500000000  0.5742180000000 1.0
C      1  0.5403970000000  0.4966290000000  0.5941090000000 1.0
C      1  0.5069870000000  0.4694520000000  0.6208480000000 1.0
C      1  0.4676900000000  0.5621750000000  0.4130460000000 1.0
C      1  0.4579040000000  0.5491590000000  0.5201780000000 1.0
C      1  0.5205930000000  0.4920530000000  0.4789210000000 1.0
C      1  0.5894630000000  0.5657330000000  0.4871570000000 1.0
C      1  0.5799320000000  0.5297390000000  0.5107080000000 1.0
C      1  0.4725220000000  0.4901900000000  0.5618870000000 1.0
C      1  0.6008400000000  0.5094530000000  0.4279150000000 1.0
C      1  0.4962250000000  0.5218480000000  0.5381570000000 1.0
C      1  0.4554720000000  0.5766400000000  0.5105030000000 1.0
C      1  0.5214090000000  0.4246250000000  0.5415980000000 1.0
C      1  0.4685190000000  0.4640430000000  0.4296040000000 1.0
C      1  0.5011970000000  0.5274270000000  0.3929490000000 1.0
C      1  0.5223620000000  0.5285360000000  0.4349810000000 1.0
C      1  0.6160490000000  0.4893030000000  0.4981270000000 1.0
C      1  0.5241200000000  0.5377670000000  0.4799750000000 1.0
C      1  0.4695020000000  0.4461240000000  0.5998090000000 1.0
C      1  0.5481780000000  0.5488810000000  0.3981040000000 1.0
C      1  0.4530760000000  0.4278230000000  0.5570440000000 1.0
C      1  0.4460280000000  0.5675370000000  0.5684280000000 1.0
C      1  0.4171430000000  0.4558020000000  0.5485780000000 1.0
C      1  0.4963160000000  0.4760940000000  0.4701570000000 1.0
C      1  0.5940370000000  0.5311410000000  0.4136450000000 1.0
C      1  0.5582580000000  0.4489210000000  0.5697720000000 1.0
C      1  0.3886900000000  0.5422360000000  0.5268010000000 1.0
C      1  0.5620090000000  0.5110170000000  0.5006610000000 1.0
C      1  0.4930100000000  0.5876320000000  0.4441320000000 1.0
C      1  0.5004150000000  0.4034800000000  0.5440990000000 1.0
C      1  0.4900650000000  0.4834730000000  0.4406480000000 1.0
C      1  0.5887970000000  0.4447020000000  0.5231920000000 1.0
C      1  0.5627990000000  0.5760050000000  0.4936990000000 1.0
C      1  0.4999060000000  0.6030870000000  0.5182610000000 1.0
C      1  0.4833300000000  0.5849430000000  0.4191070000000 1.0
C      1  0.5032750000000  0.4983880000000  0.3946740000000 1.0
C      1  0.5388640000000  0.5133140000000  0.5510670000000 1.0
C      1  0.4914680000000  0.4397360000000  0.3916200000000 1.0
C      1  0.4203740000000  0.5669690000000  0.5564260000000 1.0
C      1  0.4719040000000  0.5940920000000  0.5288810000000 1.0
C      1  0.5179030000000  0.4348360000000  0.4001570000000 1.0
C      1  0.5251890000000  0.4885290000000  0.6161100000000 1.0
C      1  0.4806400000000  0.4710690000000  0.5185570000000 1.0
C      1  0.5486260000000  0.5780190000000  0.5208790000000 1.0
C      1  0.4849700000000  0.4252780000000  0.4844410000000 1.0
C      1  0.4021700000000  0.4720290000000  0.5314670000000 1.0
C      1  0.4498570000000  0.4455650000000  0.5799740000000 1.0
C      1  0.5528020000000  0.4547540000000  0.4333580000000 1.0
C      1  0.5419170000000  0.4523900000000  0.4882430000000 1.0
C      1  0.4459360000000  0.5791950000000  0.4837680000000 1.0
C      1  0.4575200000000  0.5243210000000  0.4424680000000 1.0
C      1  0.4533580000000  0.5533430000000  0.4365030000000 1.0
C      1  0.4509780000000  0.4467760000000  0.4446130000000 1.0
C      1  0.5865810000000  0.5585950000000  0.5478600000000 1.0
C      1  0.4845340000000  0.5432220000000  0.5259450000000 1.0
C      1  0.5232000000000  0.5397250000000  0.4069460000000 1.0
C      1  0.5104030000000  0.3538030000000  0.5258780000000 1.0
C      1  0.5355150000000  0.5476990000000  0.4569280000000 1.0
C      1  0.4139820000000  0.4924760000000  0.5166040000000 1.0
C      1  0.4094070000000  0.4707570000000  0.4455020000000 1.0
C      1  0.4342300000000  0.4353420000000  0.5361910000000 1.0
C      1  0.5004660000000  0.5561670000000  0.5837130000000 1.0
C      1  0.5279400000000  0.5488180000000  0.5818150000000 1.0
C      1  0.5323470000000  0.4132710000000  0.3919150000000 1.0
C      1  0.4973570000000  0.4454650000000  0.4717340000000 1.0
C      1  0.4543410000000  0.3926810000000  0.4379760000000 1.0
C      1  0.4634010000000  0.4198350000000  0.4995120000000 1.0
C      1  0.4882970000000  0.5159720000000  0.4412250000000 1.0
C      1  0.5366790000000  0.5006910000000  0.4304530000000 1.0
C      1  0.4807220000000  0.5354440000000  0.5814390000000 1.0
C      1  0.4138650000000  0.5463800000000  0.5382500000000 1.0
C      1  0.4775130000000  0.5433130000000  0.3938400000000 1.0
C      1  0.5847530000000  0.5077510000000  0.5523490000000 1.0
C      1  0.5959110000000  0.4711780000000  0.5088710000000 1.0
C      1  0.4281680000000  0.4926660000000  0.5837400000000 1.0
C      1  0.5335850000000  0.4334810000000  0.5688020000000 1.0
C      1  0.5029770000000  0.5593650000000  0.5133510000000 1.0
C      1  0.4865530000000  0.5140950000000  0.5636440000000 1.0
C      1  0.4936070000000  0.5727690000000  0.4665490000000 1.0
C      1  0.3807030000000  0.5257900000000  0.5054020000000 1.0
C      1  0.5477860000000  0.4157810000000  0.5240110000000 1.0
END
