TITL C-612603-7354-535 -0.000108401440855247 125000 -396.586748628726 0 0 65 (C1) n - 1
REM
REM in /home/nfs/bkarasulu/CARBON/AIRSS/Generating-Clusters/TERSOFF/Only-C1/FIRE-HFTN
REM
REM
REM
REM
REM
REM ./C.cell (11c1c37f851c82e70ff6c80c92926a4b)
REM AIRSS Version 0.9.1 bugfix July 2018 build 013d7b7c2542+ Fri, 06 Jul 2018 19:26:36 +0100
REM compiler GCC version 9.2.1 20190827 (Red Hat 9.2.1-1)
REM options -cpp -mtune=generic -march=x86-64 -g -O0 -fpre-include=/usr/include/finclude/math-vector-fortran.h
REM seed 775831786 705707718 790537561 1069367886 -394641151 -1248401161 -2028446275 1758151390 201929476 380328241 280175492 1198832329 -196073040 1842071513 276044632 -1493329723 -2003831646 -1620101483 -1872687793 725564005 722592329 -868127796 -2047277180 -2135164757 920052305 -139162091 -91353474 1223034370 1462644087 -1198183973 -1355365368 1389371397 869072789
REM
CELL 1.54180   50.00000   50.00000   50.00000   90.00000   90.00000   90.00000
LATT -1
SFAC C  
C      1  0.4630280000000  0.5367010000000  0.5675790000000 1.0
C      1  0.4299090000000  0.4549190000000  0.4591440000000 1.0
C      1  0.4765550000000  0.5231170000000  0.5884040000000 1.0
C      1  0.4730770000000  0.5467790000000  0.4795590000000 1.0
C      1  0.5042730000000  0.4258170000000  0.4662940000000 1.0
C      1  0.4996370000000  0.5723700000000  0.5144310000000 1.0
C      1  0.5695920000000  0.5589200000000  0.4895270000000 1.0
C      1  0.4474120000000  0.4694560000000  0.4417880000000 1.0
C      1  0.5760940000000  0.5143650000000  0.4598410000000 1.0
C      1  0.4927000000000  0.4085230000000  0.5098090000000 1.0
C      1  0.4271330000000  0.5248930000000  0.5309630000000 1.0
C      1  0.4377940000000  0.4287080000000  0.4657790000000 1.0
C      1  0.4140160000000  0.4699990000000  0.4770580000000 1.0
C      1  0.5417300000000  0.5439270000000  0.4522620000000 1.0
C      1  0.5669370000000  0.5416540000000  0.4673640000000 1.0
C      1  0.4849410000000  0.5501010000000  0.5056320000000 1.0
C      1  0.5927240000000  0.5623390000000  0.5050870000000 1.0
C      1  0.5313090000000  0.4546360000000  0.5569570000000 1.0
C      1  0.4424510000000  0.4765990000000  0.5721370000000 1.0
C      1  0.4969040000000  0.4714670000000  0.4473270000000 1.0
C      1  0.4540910000000  0.4795280000000  0.5482810000000 1.0
C      1  0.5987870000000  0.5732940000000  0.5288370000000 1.0
C      1  0.5415880000000  0.4567570000000  0.4493210000000 1.0
C      1  0.4671700000000  0.5292120000000  0.4155270000000 1.0
C      1  0.4441490000000  0.5358040000000  0.5485370000000 1.0
C      1  0.5142620000000  0.4493440000000  0.4556510000000 1.0
C      1  0.5146640000000  0.4884300000000  0.4319360000000 1.0
C      1  0.4582490000000  0.4139670000000  0.4747180000000 1.0
C      1  0.4709780000000  0.4786050000000  0.4553110000000 1.0
C      1  0.4942200000000  0.3826940000000  0.5200330000000 1.0
C      1  0.4561180000000  0.5242280000000  0.4778140000000 1.0
C      1  0.4511200000000  0.5083910000000  0.4101490000000 1.0
C      1  0.5227370000000  0.4935590000000  0.5305990000000 1.0
C      1  0.5628580000000  0.4932610000000  0.5011550000000 1.0
C      1  0.5606030000000  0.5048430000000  0.4362380000000 1.0
C      1  0.5037650000000  0.5160560000000  0.5869290000000 1.0
C      1  0.4757040000000  0.4800170000000  0.5305240000000 1.0
C      1  0.5186900000000  0.5372360000000  0.4673730000000 1.0
C      1  0.5470000000000  0.5294520000000  0.4278620000000 1.0
C      1  0.5806810000000  0.4970200000000  0.4814530000000 1.0
C      1  0.5205940000000  0.5213270000000  0.4921410000000 1.0
C      1  0.5462380000000  0.5723650000000  0.4988260000000 1.0
C      1  0.4416810000000  0.4846170000000  0.4187270000000 1.0
C      1  0.5291400000000  0.4827050000000  0.5559180000000 1.0
C      1  0.5857390000000  0.5860120000000  0.5485560000000 1.0
C      1  0.5433170000000  0.4824880000000  0.4360950000000 1.0
C      1  0.4956940000000  0.3585470000000  0.5297210000000 1.0
C      1  0.4927680000000  0.5462530000000  0.4583890000000 1.0
C      1  0.4444750000000  0.4868160000000  0.5968900000000 1.0
C      1  0.4832350000000  0.4546900000000  0.5207910000000 1.0
C      1  0.5373660000000  0.5024640000000  0.5074790000000 1.0
C      1  0.5365630000000  0.5915640000000  0.5414650000000 1.0
C      1  0.4983690000000  0.4314340000000  0.5255270000000 1.0
C      1  0.4646760000000  0.4991040000000  0.4733700000000 1.0
C      1  0.4851730000000  0.4135450000000  0.4827830000000 1.0
C      1  0.4944440000000  0.5011410000000  0.5268140000000 1.0
C      1  0.5265880000000  0.5801440000000  0.5177290000000 1.0
C      1  0.4970540000000  0.5245850000000  0.5104180000000 1.0
C      1  0.5604490000000  0.5934940000000  0.5535820000000 1.0
C      1  0.4105650000000  0.4883730000000  0.4962400000000 1.0
C      1  0.4598950000000  0.5073730000000  0.6051010000000 1.0
C      1  0.4831860000000  0.5429680000000  0.4320770000000 1.0
C      1  0.4153830000000  0.5076870000000  0.5141410000000 1.0
C      1  0.5192900000000  0.4341940000000  0.5441960000000 1.0
C      1  0.5224730000000  0.4991250000000  0.5778370000000 1.0
END
