TITL C-612605-9286-768 2014.2686861336 125000 -688.740961336938 0 0 115 (C1) n - 1
REM
REM in /home/nfs/bkarasulu/CARBON/AIRSS/Generating-Clusters/TERSOFF/Only-C1/FIRE-HFTN
REM
REM
REM
REM
REM
REM ./C.cell (11c1c37f851c82e70ff6c80c92926a4b)
REM AIRSS Version 0.9.1 bugfix July 2018 build 013d7b7c2542+ Fri, 06 Jul 2018 19:26:36 +0100
REM compiler GCC version 9.2.1 20190827 (Red Hat 9.2.1-1)
REM options -cpp -mtune=generic -march=x86-64 -g -O0 -fpre-include=/usr/include/finclude/math-vector-fortran.h
REM seed 34610994 -324315811 -186950195 2085114623 1593339852 -1183788394 182473901 565415837 997159567 -1347181948 814232841 2045552421 1830166168 104127600 2015697743 1620485066 274679082 1058367002 1482435575 -230709760 -232518671 369368306 -2092885055 904163731 -711840183 1338732421 235366754 -1427624733 132483482 935245721 1589618877 1821502487 -20137271
REM
CELL 1.54180   50.00000   50.00000   50.00000   90.00000   90.00000   90.00000
LATT -1
SFAC C  
C      1  0.4563490000000  0.4712790000000  0.4376440000000 1.0
C      1  0.5350780000000  0.5019180000000  0.5642130000000 1.0
C      1  0.5346610000000  0.4750060000000  0.5747280000000 1.0
C      1  0.4637380000000  0.5652450000000  0.5445170000000 1.0
C      1  0.4445240000000  0.4695990000000  0.4645170000000 1.0
C      1  0.5742470000000  0.4362830000000  0.5216190000000 1.0
C      1  0.5164090000000  0.4776530000000  0.5978310000000 1.0
C      1  0.4130840000000  0.4874920000000  0.5124370000000 1.0
C      1  0.5410740000000  0.5163960000000  0.5116340000000 1.0
C      1  0.4108270000000  0.5134720000000  0.5569600000000 1.0
C      1  0.4379820000000  0.4266190000000  0.5123820000000 1.0
C      1  0.5842960000000  0.4728350000000  0.5530910000000 1.0
C      1  0.4534860000000  0.5153580000000  0.5856900000000 1.0
C      1  0.4921780000000  0.5019780000000  0.4562140000000 1.0
C      1  0.4652640000000  0.5705930000000  0.4467630000000 1.0
C      1  0.5091210000000  0.4731070000000  0.4194090000000 1.0
C      1  0.5224260000000  0.5885210000000  0.5138220000000 1.0
C      1  0.5512220000000  0.5853830000000  0.4732330000000 1.0
C      1  0.5667980000000  0.4500090000000  0.5467400000000 1.0
C      1  0.5296020000000  0.5687980000000  0.4364910000000 1.0
C      1  0.4911760000000  0.4940500000000  0.5433940000000 1.0
C      1  0.4633260000000  0.4959110000000  0.5443650000000 1.0
C      1  0.5030590000000  0.5955930000000  0.4679860000000 1.0
C      1  0.4396810000000  0.4950020000000  0.5051580000000 1.0
C      1  0.4751810000000  0.3719400000000  0.4895970000000 1.0
C      1  0.4204370000000  0.4560810000000  0.4752260000000 1.0
C      1  0.5074090000000  0.5424990000000  0.4703100000000 1.0
C      1  0.5366570000000  0.4384080000000  0.4325740000000 1.0
C      1  0.4799690000000  0.5526770000000  0.3818590000000 1.0
C      1  0.4450620000000  0.4760880000000  0.5542620000000 1.0
C      1  0.5090830000000  0.5112890000000  0.5570030000000 1.0
C      1  0.4281360000000  0.5392360000000  0.4444640000000 1.0
C      1  0.5013950000000  0.4013310000000  0.5179370000000 1.0
C      1  0.4995350000000  0.5358310000000  0.5663900000000 1.0
C      1  0.5683190000000  0.4300270000000  0.4936630000000 1.0
C      1  0.5777870000000  0.4860990000000  0.5105620000000 1.0
C      1  0.5964730000000  0.4825010000000  0.4901080000000 1.0
C      1  0.5877590000000  0.4954420000000  0.5353840000000 1.0
C      1  0.4027890000000  0.5085730000000  0.5300450000000 1.0
C      1  0.4443160000000  0.5165560000000  0.4465820000000 1.0
C      1  0.5056170000000  0.5428260000000  0.4971170000000 1.0
C      1  0.4229320000000  0.5525500000000  0.5191170000000 1.0
C      1  0.4315800000000  0.5724420000000  0.4994330000000 1.0
C      1  0.5396510000000  0.4233580000000  0.4932570000000 1.0
C      1  0.5350880000000  0.5705160000000  0.5580860000000 1.0
C      1  0.5013740000000  0.4075560000000  0.4679230000000 1.0
C      1  0.5532180000000  0.5195210000000  0.5785630000000 1.0
C      1  0.5433320000000  0.4817850000000  0.4781160000000 1.0
C      1  0.5205130000000  0.4634180000000  0.4740990000000 1.0
C      1  0.5391700000000  0.4644870000000  0.4192420000000 1.0
C      1  0.4636280000000  0.5137510000000  0.4055830000000 1.0
C      1  0.4019420000000  0.4756770000000  0.4877510000000 1.0
C      1  0.4755740000000  0.5400710000000  0.4058870000000 1.0
C      1  0.4342590000000  0.5288640000000  0.5652690000000 1.0
C      1  0.4597070000000  0.5798770000000  0.4967530000000 1.0
C      1  0.5038420000000  0.4982180000000  0.4306730000000 1.0
C      1  0.5638660000000  0.4786320000000  0.4306990000000 1.0
C      1  0.5313460000000  0.4089600000000  0.4688270000000 1.0
C      1  0.5240990000000  0.4463860000000  0.4990730000000 1.0
C      1  0.5174550000000  0.4460760000000  0.4520940000000 1.0
C      1  0.5730510000000  0.4343920000000  0.4633060000000 1.0
C      1  0.5470420000000  0.4861660000000  0.5096530000000 1.0
C      1  0.5152690000000  0.5942490000000  0.4411460000000 1.0
C      1  0.3907660000000  0.5245980000000  0.4870300000000 1.0
C      1  0.4918560000000  0.3935920000000  0.4921120000000 1.0
C      1  0.4123800000000  0.5873490000000  0.4865450000000 1.0
C      1  0.5553200000000  0.5668350000000  0.4505340000000 1.0
C      1  0.4831650000000  0.5564900000000  0.5627500000000 1.0
C      1  0.5377180000000  0.5664830000000  0.5281470000000 1.0
C      1  0.5861530000000  0.5243140000000  0.5377640000000 1.0
C      1  0.5517850000000  0.4196370000000  0.4485550000000 1.0
C      1  0.4671430000000  0.4345460000000  0.5567820000000 1.0
C      1  0.4829750000000  0.4789120000000  0.4975020000000 1.0
C      1  0.4643870000000  0.4870360000000  0.5929990000000 1.0
C      1  0.4753430000000  0.5841180000000  0.4711600000000 1.0
C      1  0.5263980000000  0.5930120000000  0.4861520000000 1.0
C      1  0.4902920000000  0.4455920000000  0.5702520000000 1.0
C      1  0.4798790000000  0.4539660000000  0.4324260000000 1.0
C      1  0.5120670000000  0.4135860000000  0.5395050000000 1.0
C      1  0.5402510000000  0.4506890000000  0.5606840000000 1.0
C      1  0.5251110000000  0.5396670000000  0.5176480000000 1.0
C      1  0.4831890000000  0.5539270000000  0.4302810000000 1.0
C      1  0.4562370000000  0.4797560000000  0.4890800000000 1.0
C      1  0.5490850000000  0.5058570000000  0.4659730000000 1.0
C      1  0.5741200000000  0.5311830000000  0.5633270000000 1.0
C      1  0.5836500000000  0.5440910000000  0.5140710000000 1.0
C      1  0.4024100000000  0.5324840000000  0.5124430000000 1.0
C      1  0.5269320000000  0.4983340000000  0.6148990000000 1.0
C      1  0.4432640000000  0.4706380000000  0.5810310000000 1.0
C      1  0.5248660000000  0.4675240000000  0.5187370000000 1.0
C      1  0.4796210000000  0.4250010000000  0.4537370000000 1.0
C      1  0.4687030000000  0.5172910000000  0.4614960000000 1.0
C      1  0.4987970000000  0.4825480000000  0.4751470000000 1.0
C      1  0.5634510000000  0.5109210000000  0.4433440000000 1.0
C      1  0.5157710000000  0.4348080000000  0.5583450000000 1.0
C      1  0.5087970000000  0.5496870000000  0.4428380000000 1.0
C      1  0.6004280000000  0.4739650000000  0.4651060000000 1.0
C      1  0.4389040000000  0.5506560000000  0.5446260000000 1.0
C      1  0.4533120000000  0.4212780000000  0.4659840000000 1.0
C      1  0.4971100000000  0.5950540000000  0.5244310000000 1.0
C      1  0.5456550000000  0.5169560000000  0.6063510000000 1.0
C      1  0.5775370000000  0.5392580000000  0.4844630000000 1.0
C      1  0.4510970000000  0.4280270000000  0.5359570000000 1.0
C      1  0.4507310000000  0.4972600000000  0.4252960000000 1.0
C      1  0.5745550000000  0.5448030000000  0.4545970000000 1.0
C      1  0.5673830000000  0.5667640000000  0.5221790000000 1.0
C      1  0.3885730000000  0.4990000000000  0.4762710000000 1.0
C      1  0.5534200000000  0.5240640000000  0.4869680000000 1.0
C      1  0.4330520000000  0.4308710000000  0.4845500000000 1.0
C      1  0.4377940000000  0.5644760000000  0.4437960000000 1.0
C      1  0.4989620000000  0.4786480000000  0.5216350000000 1.0
C      1  0.4530380000000  0.5108800000000  0.5233150000000 1.0
C      1  0.4895450000000  0.4694060000000  0.5902170000000 1.0
C      1  0.4724670000000  0.5817390000000  0.5225820000000 1.0
C      1  0.5810860000000  0.4599640000000  0.4499150000000 1.0
END
