TITL C-612606-7351-1217 8480.77712994856 125000 -1036.18722264813 0 0 171 (C1) n - 1
REM
REM in /home/nfs/bkarasulu/CARBON/AIRSS/Generating-Clusters/TERSOFF/Only-C1/FIRE-HFTN
REM
REM
REM
REM
REM
REM ./C.cell (11c1c37f851c82e70ff6c80c92926a4b)
REM AIRSS Version 0.9.1 bugfix July 2018 build 013d7b7c2542+ Fri, 06 Jul 2018 19:26:36 +0100
REM compiler GCC version 9.2.1 20190827 (Red Hat 9.2.1-1)
REM options -cpp -mtune=generic -march=x86-64 -g -O0 -fpre-include=/usr/include/finclude/math-vector-fortran.h
REM seed 247482981 -787440691 -362922252 434336762 1716379883 -675436370 2062529647 1632200099 -411473852 -1235999402 1836178656 -726470652 -830269315 88486419 -717337154 -1877331764 148496438 -1157959898 -18453462 939134909 -734751559 1912250191 -792526071 -866771110 1501228912 -1941052452 1659324871 -1291953590 -1282160792 1198005280 1139566168 2142044074 -2132282155
REM
CELL 1.54180   50.00000   50.00000   50.00000   90.00000   90.00000   90.00000
LATT -1
SFAC C  
C      1  0.4556680000000  0.5164540000000  0.5433770000000 1.0
C      1  0.5899370000000  0.4707850000000  0.5669590000000 1.0
C      1  0.6189820000000  0.4602630000000  0.4890860000000 1.0
C      1  0.4216350000000  0.4110140000000  0.5419490000000 1.0
C      1  0.5457510000000  0.5095920000000  0.3852110000000 1.0
C      1  0.4931080000000  0.4925620000000  0.6329310000000 1.0
C      1  0.4717440000000  0.6077340000000  0.5367850000000 1.0
C      1  0.5349390000000  0.5874950000000  0.5674850000000 1.0
C      1  0.3905830000000  0.4579370000000  0.5319170000000 1.0
C      1  0.6061670000000  0.4826700000000  0.4473740000000 1.0
C      1  0.5482330000000  0.4592100000000  0.3875680000000 1.0
C      1  0.4514290000000  0.5544670000000  0.3842430000000 1.0
C      1  0.4049800000000  0.5762650000000  0.5287640000000 1.0
C      1  0.4876220000000  0.4602010000000  0.4245830000000 1.0
C      1  0.4475490000000  0.4899000000000  0.5937810000000 1.0
C      1  0.4606270000000  0.4373220000000  0.5281360000000 1.0
C      1  0.4708910000000  0.5047090000000  0.4629080000000 1.0
C      1  0.5812120000000  0.4835680000000  0.5255910000000 1.0
C      1  0.4638600000000  0.4359300000000  0.4620650000000 1.0
C      1  0.4983340000000  0.4775620000000  0.6091150000000 1.0
C      1  0.4919330000000  0.4877370000000  0.5600550000000 1.0
C      1  0.5224800000000  0.3952350000000  0.4851410000000 1.0
C      1  0.4947000000000  0.4488780000000  0.6070220000000 1.0
C      1  0.5259250000000  0.4287320000000  0.4191010000000 1.0
C      1  0.5206920000000  0.6256790000000  0.3896530000000 1.0
C      1  0.4804100000000  0.4129740000000  0.4673040000000 1.0
C      1  0.5169990000000  0.5199420000000  0.4674980000000 1.0
C      1  0.5260900000000  0.4543110000000  0.4856520000000 1.0
C      1  0.5231430000000  0.6045400000000  0.5473050000000 1.0
C      1  0.5323300000000  0.4810710000000  0.4452620000000 1.0
C      1  0.4197250000000  0.4187950000000  0.4680310000000 1.0
C      1  0.4386000000000  0.4292800000000  0.4485100000000 1.0
C      1  0.4078570000000  0.5408250000000  0.5687450000000 1.0
C      1  0.3921710000000  0.5091150000000  0.4761930000000 1.0
C      1  0.5184290000000  0.4026920000000  0.5564350000000 1.0
C      1  0.5203920000000  0.5249280000000  0.4956260000000 1.0
C      1  0.4885800000000  0.4233030000000  0.5943250000000 1.0
C      1  0.5672210000000  0.5853370000000  0.4894980000000 1.0
C      1  0.6114280000000  0.5451380000000  0.4785560000000 1.0
C      1  0.5163690000000  0.4711530000000  0.4655660000000 1.0
C      1  0.4056230000000  0.4264330000000  0.5214860000000 1.0
C      1  0.3724070000000  0.4677920000000  0.4728850000000 1.0
C      1  0.5091500000000  0.4476460000000  0.5304570000000 1.0
C      1  0.4869190000000  0.5346750000000  0.4159820000000 1.0
C      1  0.4678210000000  0.3660990000000  0.5345060000000 1.0
C      1  0.5769530000000  0.4114820000000  0.5278830000000 1.0
C      1  0.5451850000000  0.4831420000000  0.3756890000000 1.0
C      1  0.4332530000000  0.5017790000000  0.5345810000000 1.0
C      1  0.4369790000000  0.5316760000000  0.3833140000000 1.0
C      1  0.4542320000000  0.5415050000000  0.6077080000000 1.0
C      1  0.4304740000000  0.4552260000000  0.4952450000000 1.0
C      1  0.5333220000000  0.6022440000000  0.5205590000000 1.0
C      1  0.5351120000000  0.3873160000000  0.5090530000000 1.0
C      1  0.4961410000000  0.5270130000000  0.5119550000000 1.0
C      1  0.4077440000000  0.4628120000000  0.5536250000000 1.0
C      1  0.4487740000000  0.5992110000000  0.5522190000000 1.0
C      1  0.5254740000000  0.5605450000000  0.5667340000000 1.0
C      1  0.5528620000000  0.4501360000000  0.5251360000000 1.0
C      1  0.5331510000000  0.4067190000000  0.4354080000000 1.0
C      1  0.5532340000000  0.5213390000000  0.4310490000000 1.0
C      1  0.4919870000000  0.4078270000000  0.5453830000000 1.0
C      1  0.6198980000000  0.5147450000000  0.4900110000000 1.0
C      1  0.5082810000000  0.5445240000000  0.4003640000000 1.0
C      1  0.5463230000000  0.4485970000000  0.4136420000000 1.0
C      1  0.4538720000000  0.5533580000000  0.5163420000000 1.0
C      1  0.5102800000000  0.5477760000000  0.5858310000000 1.0
C      1  0.4702030000000  0.4811940000000  0.5175720000000 1.0
C      1  0.5987670000000  0.4984160000000  0.5700140000000 1.0
C      1  0.4771730000000  0.5074250000000  0.4108260000000 1.0
C      1  0.5861510000000  0.5693410000000  0.4733580000000 1.0
C      1  0.5124780000000  0.5723670000000  0.4019810000000 1.0
C      1  0.5645810000000  0.5144490000000  0.4059090000000 1.0
C      1  0.5602930000000  0.4998080000000  0.5323750000000 1.0
C      1  0.5536900000000  0.4959170000000  0.5868110000000 1.0
C      1  0.4936280000000  0.5941240000000  0.4895550000000 1.0
C      1  0.5598520000000  0.5881120000000  0.5811690000000 1.0
C      1  0.6101410000000  0.4962600000000  0.4228520000000 1.0
C      1  0.5704940000000  0.4899730000000  0.4724790000000 1.0
C      1  0.5735790000000  0.5610820000000  0.4486430000000 1.0
C      1  0.4897810000000  0.5879730000000  0.3920150000000 1.0
C      1  0.4464610000000  0.4614430000000  0.5200830000000 1.0
C      1  0.3800480000000  0.4889570000000  0.5177400000000 1.0
C      1  0.5571680000000  0.5750530000000  0.4298310000000 1.0
C      1  0.3964480000000  0.4615000000000  0.4612620000000 1.0
C      1  0.4980340000000  0.4352730000000  0.4147590000000 1.0
C      1  0.5704780000000  0.5331790000000  0.4492360000000 1.0
C      1  0.5398880000000  0.6120560000000  0.4031420000000 1.0
C      1  0.5242250000000  0.5276830000000  0.3844120000000 1.0
C      1  0.4870660000000  0.4791050000000  0.4676160000000 1.0
C      1  0.4214330000000  0.5001210000000  0.4787390000000 1.0
C      1  0.4621990000000  0.5794250000000  0.3929220000000 1.0
C      1  0.5890040000000  0.5342940000000  0.5170880000000 1.0
C      1  0.4504830000000  0.5438200000000  0.5432940000000 1.0
C      1  0.3739880000000  0.4906120000000  0.4899320000000 1.0
C      1  0.4534840000000  0.5887590000000  0.5791680000000 1.0
C      1  0.5335440000000  0.4575920000000  0.5442420000000 1.0
C      1  0.5749570000000  0.5670230000000  0.5893600000000 1.0
C      1  0.5783060000000  0.4734360000000  0.4503220000000 1.0
C      1  0.4466280000000  0.4634850000000  0.4060450000000 1.0
C      1  0.4053820000000  0.5512140000000  0.5140750000000 1.0
C      1  0.4813980000000  0.5038300000000  0.5357050000000 1.0
C      1  0.5445200000000  0.5993540000000  0.4757620000000 1.0
C      1  0.4855330000000  0.5483630000000  0.4492670000000 1.0
C      1  0.4205050000000  0.4711110000000  0.4740530000000 1.0
C      1  0.5532710000000  0.4722650000000  0.5708930000000 1.0
C      1  0.4549170000000  0.4188660000000  0.5824100000000 1.0
C      1  0.4963090000000  0.6129640000000  0.5501270000000 1.0
C      1  0.4789170000000  0.3994070000000  0.4411550000000 1.0
C      1  0.6151610000000  0.5088230000000  0.5476630000000 1.0
C      1  0.4303900000000  0.4748790000000  0.5415890000000 1.0
C      1  0.4270380000000  0.5067870000000  0.3867200000000 1.0
C      1  0.4442530000000  0.5971920000000  0.4040570000000 1.0
C      1  0.4904090000000  0.5247090000000  0.4608740000000 1.0
C      1  0.4559790000000  0.4654790000000  0.5825490000000 1.0
C      1  0.4481500000000  0.5619380000000  0.5881760000000 1.0
C      1  0.4767370000000  0.4581960000000  0.4510600000000 1.0
C      1  0.5063420000000  0.5221870000000  0.5912210000000 1.0
C      1  0.5549580000000  0.5825640000000  0.5164500000000 1.0
C      1  0.4442720000000  0.5154280000000  0.6007790000000 1.0
C      1  0.4340870000000  0.5505360000000  0.5656820000000 1.0
C      1  0.4743980000000  0.4174790000000  0.4179920000000 1.0
C      1  0.4847090000000  0.5174980000000  0.6395750000000 1.0
C      1  0.4967200000000  0.6143370000000  0.3839260000000 1.0
C      1  0.5921240000000  0.5075580000000  0.4059840000000 1.0
C      1  0.4721830000000  0.4787680000000  0.4096460000000 1.0
C      1  0.5448040000000  0.3975690000000  0.5334130000000 1.0
C      1  0.5444030000000  0.5573130000000  0.5234020000000 1.0
C      1  0.4396530000000  0.4426560000000  0.5858830000000 1.0
C      1  0.4261190000000  0.5060630000000  0.5079320000000 1.0
C      1  0.4305340000000  0.5507670000000  0.4991090000000 1.0
C      1  0.5320600000000  0.5091200000000  0.4451130000000 1.0
C      1  0.5209730000000  0.6030560000000  0.4930010000000 1.0
C      1  0.6127140000000  0.5180410000000  0.5200850000000 1.0
C      1  0.3891200000000  0.5273410000000  0.5550500000000 1.0
C      1  0.5509090000000  0.4552980000000  0.4977900000000 1.0
C      1  0.4472030000000  0.4342680000000  0.4192560000000 1.0
C      1  0.4718950000000  0.5394600000000  0.6298290000000 1.0
C      1  0.4438010000000  0.5148860000000  0.4657260000000 1.0
C      1  0.5334480000000  0.3940480000000  0.4591160000000 1.0
C      1  0.5370410000000  0.5850860000000  0.4121760000000 1.0
C      1  0.4747960000000  0.6053630000000  0.5084360000000 1.0
C      1  0.5452300000000  0.5173920000000  0.5462610000000 1.0
C      1  0.5124350000000  0.4084920000000  0.5845070000000 1.0
C      1  0.6108530000000  0.4346210000000  0.4954260000000 1.0
C      1  0.5917390000000  0.4610200000000  0.5410730000000 1.0
C      1  0.5729810000000  0.5178060000000  0.4730580000000 1.0
C      1  0.4368420000000  0.5422530000000  0.4725820000000 1.0
C      1  0.4461810000000  0.4037900000000  0.5583400000000 1.0
C      1  0.5792920000000  0.5404660000000  0.5909930000000 1.0
C      1  0.4845590000000  0.4765360000000  0.4958110000000 1.0
C      1  0.5006350000000  0.4139900000000  0.4876680000000 1.0
C      1  0.3882480000000  0.5220190000000  0.5278030000000 1.0
C      1  0.5546880000000  0.4656800000000  0.4352940000000 1.0
C      1  0.5971320000000  0.4130180000000  0.5065690000000 1.0
C      1  0.5017120000000  0.4952860000000  0.5858830000000 1.0
C      1  0.5382820000000  0.5446890000000  0.5474930000000 1.0
C      1  0.6186330000000  0.4865030000000  0.4748560000000 1.0
C      1  0.5759330000000  0.4382920000000  0.5357820000000 1.0
C      1  0.5780040000000  0.5128950000000  0.5850410000000 1.0
C      1  0.4779520000000  0.4623370000000  0.5636500000000 1.0
C      1  0.4272320000000  0.4806910000000  0.3943140000000 1.0
C      1  0.4686610000000  0.3910210000000  0.5454200000000 1.0
C      1  0.4861790000000  0.5675810000000  0.4797980000000 1.0
C      1  0.5436350000000  0.5386830000000  0.5028230000000 1.0
C      1  0.5086450000000  0.4383240000000  0.5017160000000 1.0
C      1  0.5693280000000  0.5302230000000  0.4972890000000 1.0
C      1  0.4851280000000  0.4381890000000  0.5449330000000 1.0
C      1  0.4231420000000  0.5935060000000  0.5399820000000 1.0
C      1  0.4129940000000  0.4476720000000  0.5770390000000 1.0
C      1  0.4794440000000  0.5496910000000  0.5035330000000 1.0
C      1  0.4173190000000  0.4290880000000  0.4952510000000 1.0
END
