TITL C-612603-7354-747 0.000134090730927015 125000 -685.178389609918 0 0 113 (C1) n - 1
REM
REM in /home/nfs/bkarasulu/CARBON/AIRSS/Generating-Clusters/TERSOFF/Only-C1/FIRE-HFTN
REM
REM
REM
REM
REM
REM ./C.cell (11c1c37f851c82e70ff6c80c92926a4b)
REM AIRSS Version 0.9.1 bugfix July 2018 build 013d7b7c2542+ Fri, 06 Jul 2018 19:26:36 +0100
REM compiler GCC version 9.2.1 20190827 (Red Hat 9.2.1-1)
REM options -cpp -mtune=generic -march=x86-64 -g -O0 -fpre-include=/usr/include/finclude/math-vector-fortran.h
REM seed -388910375 -1719136691 726309276 39376971 -269962031 -399133216 -700619550 1758039922 -1174236371 988676150 -117843119 -481000299 -1843023756 189823329 1512822880 -1965165269 205273693 547941290 -2026566426 -1364791678 -430312087 1079709874 -1540198783 686400005 -1348343025 -578773580 1650867070 1047680606 1624663075 356428866 767587277 1029939648 2083672709
REM
CELL 1.54180   50.00000   50.00000   50.00000   90.00000   90.00000   90.00000
LATT -1
SFAC C  
C      1  0.4755560000000  0.4436870000000  0.6058110000000 1.0
C      1  0.5731610000000  0.4607270000000  0.5676230000000 1.0
C      1  0.5133100000000  0.5255650000000  0.4684150000000 1.0
C      1  0.5531900000000  0.5387320000000  0.5785370000000 1.0
C      1  0.4776260000000  0.4914040000000  0.5907660000000 1.0
C      1  0.4525550000000  0.5846040000000  0.4785830000000 1.0
C      1  0.5382490000000  0.5177990000000  0.4230030000000 1.0
C      1  0.4706290000000  0.4312510000000  0.4258840000000 1.0
C      1  0.5997480000000  0.5111820000000  0.4731110000000 1.0
C      1  0.4310680000000  0.4028640000000  0.4770890000000 1.0
C      1  0.4987610000000  0.4060900000000  0.4829360000000 1.0
C      1  0.4277640000000  0.5262690000000  0.4226090000000 1.0
C      1  0.5044060000000  0.4985400000000  0.5843510000000 1.0
C      1  0.4566810000000  0.5775270000000  0.5969400000000 1.0
C      1  0.4508540000000  0.4238740000000  0.5422270000000 1.0
C      1  0.5121190000000  0.5672810000000  0.4259470000000 1.0
C      1  0.5755920000000  0.6255240000000  0.4898920000000 1.0
C      1  0.5418120000000  0.5352610000000  0.5134970000000 1.0
C      1  0.5199430000000  0.5792510000000  0.4508730000000 1.0
C      1  0.5612120000000  0.4569700000000  0.4578100000000 1.0
C      1  0.4696330000000  0.4131730000000  0.5264270000000 1.0
C      1  0.4611520000000  0.5355260000000  0.5183780000000 1.0
C      1  0.5762480000000  0.5036840000000  0.4589900000000 1.0
C      1  0.5412350000000  0.5662570000000  0.4645710000000 1.0
C      1  0.4253750000000  0.5448060000000  0.4669040000000 1.0
C      1  0.5651910000000  0.5206650000000  0.5627600000000 1.0
C      1  0.4976280000000  0.5842720000000  0.4673310000000 1.0
C      1  0.4481110000000  0.4760800000000  0.5082020000000 1.0
C      1  0.6090990000000  0.4945150000000  0.5493310000000 1.0
C      1  0.4969750000000  0.4927830000000  0.4168500000000 1.0
C      1  0.6125600000000  0.4992980000000  0.4959590000000 1.0
C      1  0.5878280000000  0.5534480000000  0.5173800000000 1.0
C      1  0.6081070000000  0.4499920000000  0.5348570000000 1.0
C      1  0.4223540000000  0.5604810000000  0.5109750000000 1.0
C      1  0.4702830000000  0.5331750000000  0.4916170000000 1.0
C      1  0.5492370000000  0.4852370000000  0.4970450000000 1.0
C      1  0.4098250000000  0.4510930000000  0.4857000000000 1.0
C      1  0.4683960000000  0.5963270000000  0.5004690000000 1.0
C      1  0.4694160000000  0.3853780000000  0.4526080000000 1.0
C      1  0.4540210000000  0.5791390000000  0.5710670000000 1.0
C      1  0.4923000000000  0.4020140000000  0.4557150000000 1.0
C      1  0.4657920000000  0.4879160000000  0.5290320000000 1.0
C      1  0.6183030000000  0.5148140000000  0.5678880000000 1.0
C      1  0.4600340000000  0.6007560000000  0.5268820000000 1.0
C      1  0.4939920000000  0.5442180000000  0.4257930000000 1.0
C      1  0.6179430000000  0.5398080000000  0.5559460000000 1.0
C      1  0.5180940000000  0.4565040000000  0.4753110000000 1.0
C      1  0.4426250000000  0.3827110000000  0.4610680000000 1.0
C      1  0.4123690000000  0.4984790000000  0.4839050000000 1.0
C      1  0.4420340000000  0.4644850000000  0.5744450000000 1.0
C      1  0.4299680000000  0.5684010000000  0.4837230000000 1.0
C      1  0.3864770000000  0.4688790000000  0.4419570000000 1.0
C      1  0.4829150000000  0.4692470000000  0.5407360000000 1.0
C      1  0.3929590000000  0.4881850000000  0.4247200000000 1.0
C      1  0.4528120000000  0.5789910000000  0.5433990000000 1.0
C      1  0.5974100000000  0.4688320000000  0.5533710000000 1.0
C      1  0.4974560000000  0.4694910000000  0.4596010000000 1.0
C      1  0.5161780000000  0.5436550000000  0.5245650000000 1.0
C      1  0.5265350000000  0.5415030000000  0.5814080000000 1.0
C      1  0.5608590000000  0.5045800000000  0.5416240000000 1.0
C      1  0.5502570000000  0.5074470000000  0.5155930000000 1.0
C      1  0.5625380000000  0.4359550000000  0.5585570000000 1.0
C      1  0.4516480000000  0.4744390000000  0.4190370000000 1.0
C      1  0.5571200000000  0.5750730000000  0.4861630000000 1.0
C      1  0.6094590000000  0.5090480000000  0.5226050000000 1.0
C      1  0.4703060000000  0.4621750000000  0.4625000000000 1.0
C      1  0.6190530000000  0.4534360000000  0.5105780000000 1.0
C      1  0.4207170000000  0.4252370000000  0.4873590000000 1.0
C      1  0.4702560000000  0.4905850000000  0.4077460000000 1.0
C      1  0.4411750000000  0.5404390000000  0.4428000000000 1.0
C      1  0.4279890000000  0.3607880000000  0.4537860000000 1.0
C      1  0.5283610000000  0.4832230000000  0.5879680000000 1.0
C      1  0.4083810000000  0.5086600000000  0.4173110000000 1.0
C      1  0.4057460000000  0.5368410000000  0.5106820000000 1.0
C      1  0.5538740000000  0.4751810000000  0.5831850000000 1.0
C      1  0.5619470000000  0.5552980000000  0.5064910000000 1.0
C      1  0.5078620000000  0.5234550000000  0.5703100000000 1.0
C      1  0.5071880000000  0.5691510000000  0.5149540000000 1.0
C      1  0.5441270000000  0.4312580000000  0.5397230000000 1.0
C      1  0.4387480000000  0.4420420000000  0.5578210000000 1.0
C      1  0.4712420000000  0.5758990000000  0.4574410000000 1.0
C      1  0.5361320000000  0.4440730000000  0.4547450000000 1.0
C      1  0.4968500000000  0.4947900000000  0.4979780000000 1.0
C      1  0.4210060000000  0.4753300000000  0.4972130000000 1.0
C      1  0.6438210000000  0.4700360000000  0.4724230000000 1.0
C      1  0.4959670000000  0.5872130000000  0.4961700000000 1.0
C      1  0.4962990000000  0.4214930000000  0.4345250000000 1.0
C      1  0.4543510000000  0.5077770000000  0.5835680000000 1.0
C      1  0.4329270000000  0.4924850000000  0.5705070000000 1.0
C      1  0.3914270000000  0.4554900000000  0.4645350000000 1.0
C      1  0.4999620000000  0.5265510000000  0.5430440000000 1.0
C      1  0.5305830000000  0.4633060000000  0.4998570000000 1.0
C      1  0.4140820000000  0.5047160000000  0.5534170000000 1.0
C      1  0.6079020000000  0.5379800000000  0.5288680000000 1.0
C      1  0.4581230000000  0.4540710000000  0.4375440000000 1.0
C      1  0.4449210000000  0.5567100000000  0.5279000000000 1.0
C      1  0.4919980000000  0.5172590000000  0.4835960000000 1.0
C      1  0.4740380000000  0.5159750000000  0.5341140000000 1.0
C      1  0.4104330000000  0.5259840000000  0.4838900000000 1.0
C      1  0.5062810000000  0.4697450000000  0.4315570000000 1.0
C      1  0.5637980000000  0.4818060000000  0.4720470000000 1.0
C      1  0.6255920000000  0.4739470000000  0.4923920000000 1.0
C      1  0.4661100000000  0.4647070000000  0.5913620000000 1.0
C      1  0.5316390000000  0.4447910000000  0.5205490000000 1.0
C      1  0.4680420000000  0.5520410000000  0.4402460000000 1.0
C      1  0.4877940000000  0.4085400000000  0.5073250000000 1.0
C      1  0.5618810000000  0.5133160000000  0.4360310000000 1.0
C      1  0.4620900000000  0.4605820000000  0.4887860000000 1.0
C      1  0.5090990000000  0.5186580000000  0.4202470000000 1.0
C      1  0.5360190000000  0.5387760000000  0.4652190000000 1.0
C      1  0.4039510000000  0.5204120000000  0.5338570000000 1.0
C      1  0.5178930000000  0.4416270000000  0.4314910000000 1.0
C      1  0.5670320000000  0.6009860000000  0.4879740000000 1.0
END
