TITL C-612600-6631-387 0.11608138852138 125000 -328.564327395866 0 0 55 (C1) n - 1
REM
REM in /home/nfs/bkarasulu/CARBON/AIRSS/Generating-Clusters/TERSOFF/Only-C1/FIRE-HFTN
REM
REM
REM
REM
REM
REM ./C.cell (11c1c37f851c82e70ff6c80c92926a4b)
REM AIRSS Version 0.9.1 bugfix July 2018 build 013d7b7c2542+ Fri, 06 Jul 2018 19:26:36 +0100
REM compiler GCC version 9.2.1 20190827 (Red Hat 9.2.1-1)
REM options -cpp -mtune=generic -march=x86-64 -g -O0 -fpre-include=/usr/include/finclude/math-vector-fortran.h
REM seed 1746475118 1129925619 -1358345006 -2137886652 -553004000 -150742740 -165375510 2085025805 917952138 -1945874838 896558020 -1520030381 -1977394059 -1199595605 -1999583127 350552802 -1738353560 981632083 375187421 -1933849251 1150664173 1464463590 1554146886 -930233157 -688246910 1007818053 1569882843 59963735 -1216287643 -775569929 1392151567 -1230931276 -117309521
REM
CELL 1.54180   50.00000   50.00000   50.00000   90.00000   90.00000   90.00000
LATT -1
SFAC C  
C      1  0.4844510000000  0.4685200000000  0.4204190000000 1.0
C      1  0.4484240000000  0.4006720000000  0.4908790000000 1.0
C      1  0.4815870000000  0.5588000000000  0.4075840000000 1.0
C      1  0.4870150000000  0.4586870000000  0.4714460000000 1.0
C      1  0.4925860000000  0.4861800000000  0.4644400000000 1.0
C      1  0.4554440000000  0.4256900000000  0.4888780000000 1.0
C      1  0.5253690000000  0.4247230000000  0.4583770000000 1.0
C      1  0.4283750000000  0.5332880000000  0.5295580000000 1.0
C      1  0.6228130000000  0.5912460000000  0.5360710000000 1.0
C      1  0.5262760000000  0.4833380000000  0.5213260000000 1.0
C      1  0.4977840000000  0.5149390000000  0.4219390000000 1.0
C      1  0.5022410000000  0.4369160000000  0.5273020000000 1.0
C      1  0.5205450000000  0.5310270000000  0.5194350000000 1.0
C      1  0.5270540000000  0.4419860000000  0.4149780000000 1.0
C      1  0.5781570000000  0.5145800000000  0.5624850000000 1.0
C      1  0.4703770000000  0.4419290000000  0.5653420000000 1.0
C      1  0.4631770000000  0.4523400000000  0.4855680000000 1.0
C      1  0.4342570000000  0.4961180000000  0.4987170000000 1.0
C      1  0.5638490000000  0.6020400000000  0.4961000000000 1.0
C      1  0.4307860000000  0.5236140000000  0.5029090000000 1.0
C      1  0.4050280000000  0.5457170000000  0.5383240000000 1.0
C      1  0.4515220000000  0.5498710000000  0.4626470000000 1.0
C      1  0.4946000000000  0.5327830000000  0.4732910000000 1.0
C      1  0.5006950000000  0.4394050000000  0.4554880000000 1.0
C      1  0.4506250000000  0.5298220000000  0.5469660000000 1.0
C      1  0.5339530000000  0.4891150000000  0.3958490000000 1.0
C      1  0.5155840000000  0.5054680000000  0.5065980000000 1.0
C      1  0.5372760000000  0.4626210000000  0.3990190000000 1.0
C      1  0.4744840000000  0.5434390000000  0.5413920000000 1.0
C      1  0.4345480000000  0.5413470000000  0.4814720000000 1.0
C      1  0.4828340000000  0.4305540000000  0.5445340000000 1.0
C      1  0.4585900000000  0.4874120000000  0.5783860000000 1.0
C      1  0.5477620000000  0.5364120000000  0.5259640000000 1.0
C      1  0.4855040000000  0.5400940000000  0.4270330000000 1.0
C      1  0.5013640000000  0.4677230000000  0.5906740000000 1.0
C      1  0.5192250000000  0.5099910000000  0.4042480000000 1.0
C      1  0.4463320000000  0.4728620000000  0.4945150000000 1.0
C      1  0.5479940000000  0.4797930000000  0.5694470000000 1.0
C      1  0.4989170000000  0.5444680000000  0.5309390000000 1.0
C      1  0.5175360000000  0.4569870000000  0.5187450000000 1.0
C      1  0.5712520000000  0.4938680000000  0.5794880000000 1.0
C      1  0.5272780000000  0.4697240000000  0.5849040000000 1.0
C      1  0.5995630000000  0.5877510000000  0.5248260000000 1.0
C      1  0.5602440000000  0.5154060000000  0.5399690000000 1.0
C      1  0.5745560000000  0.5834540000000  0.5130690000000 1.0
C      1  0.4775820000000  0.5442190000000  0.4540450000000 1.0
C      1  0.4504360000000  0.5098170000000  0.5665890000000 1.0
C      1  0.3831960000000  0.5573460000000  0.5465240000000 1.0
C      1  0.5014260000000  0.5067260000000  0.4820080000000 1.0
C      1  0.4752800000000  0.4650780000000  0.5805940000000 1.0
C      1  0.5001560000000  0.4459460000000  0.4263980000000 1.0
C      1  0.4886110000000  0.4919070000000  0.4361190000000 1.0
C      1  0.5444070000000  0.4902530000000  0.5421900000000 1.0
C      1  0.5606250000000  0.5599360000000  0.5188690000000 1.0
C      1  0.5404480000000  0.4260510000000  0.4351240000000 1.0
END
