TITL C-612606-7351-340 0.510746031011109 125000 -600.932072169299 0 0 100 (C1) n - 1
REM
REM in /home/nfs/bkarasulu/CARBON/AIRSS/Generating-Clusters/TERSOFF/Only-C1/FIRE-HFTN
REM
REM
REM
REM
REM
REM ./C.cell (11c1c37f851c82e70ff6c80c92926a4b)
REM AIRSS Version 0.9.1 bugfix July 2018 build 013d7b7c2542+ Fri, 06 Jul 2018 19:26:36 +0100
REM compiler GCC version 9.2.1 20190827 (Red Hat 9.2.1-1)
REM options -cpp -mtune=generic -march=x86-64 -g -O0 -fpre-include=/usr/include/finclude/math-vector-fortran.h
REM seed -319986689 1899769310 1265797661 1398242118 -480899255 -2001826274 -567766017 1433233835 2077587816 1817558359 1371036590 1164949075 1316664451 -926344715 -1078504241 931395877 -1449068645 -432573637 429049495 145619255 81062883 1580126072 -79043890 -1104208676 -486064075 1591844249 -1843444588 -963650189 -349722107 1580100475 -1796813270 828387670 -2119579000
REM
CELL 1.54180   50.00000   50.00000   50.00000   90.00000   90.00000   90.00000
LATT -1
SFAC C  
C      1  0.4518170000000  0.5476520000000  0.4751880000000 1.0
C      1  0.4883900000000  0.5152070000000  0.4823100000000 1.0
C      1  0.4670110000000  0.4285170000000  0.4477670000000 1.0
C      1  0.4772300000000  0.5840530000000  0.5150530000000 1.0
C      1  0.4492680000000  0.4226160000000  0.5113110000000 1.0
C      1  0.4325910000000  0.4903130000000  0.4560450000000 1.0
C      1  0.4245410000000  0.5435900000000  0.5521540000000 1.0
C      1  0.4696330000000  0.5254210000000  0.5734380000000 1.0
C      1  0.4522680000000  0.5686570000000  0.5198220000000 1.0
C      1  0.5794730000000  0.4959510000000  0.4429490000000 1.0
C      1  0.5046160000000  0.4243980000000  0.5772880000000 1.0
C      1  0.4874680000000  0.4580110000000  0.5212590000000 1.0
C      1  0.5428460000000  0.5589960000000  0.4492250000000 1.0
C      1  0.4923150000000  0.5051600000000  0.6180140000000 1.0
C      1  0.4435380000000  0.3964070000000  0.5187790000000 1.0
C      1  0.6002020000000  0.5220210000000  0.5062140000000 1.0
C      1  0.5564020000000  0.5110970000000  0.4469860000000 1.0
C      1  0.5147090000000  0.5039300000000  0.4756480000000 1.0
C      1  0.5517740000000  0.5225060000000  0.5283370000000 1.0
C      1  0.5211800000000  0.4815870000000  0.4937340000000 1.0
C      1  0.4421540000000  0.4255960000000  0.4621370000000 1.0
C      1  0.5618660000000  0.4346130000000  0.5318890000000 1.0
C      1  0.5273600000000  0.4177120000000  0.5043530000000 1.0
C      1  0.4729730000000  0.5572340000000  0.4274550000000 1.0
C      1  0.4561970000000  0.5088110000000  0.5540370000000 1.0
C      1  0.5297580000000  0.5212100000000  0.5482470000000 1.0
C      1  0.5893130000000  0.4749450000000  0.4863400000000 1.0
C      1  0.5640380000000  0.5380720000000  0.4849900000000 1.0
C      1  0.5669480000000  0.5742840000000  0.5354220000000 1.0
C      1  0.5172380000000  0.5243550000000  0.4263900000000 1.0
C      1  0.4728850000000  0.5017720000000  0.5321110000000 1.0
C      1  0.5275030000000  0.5029200000000  0.4461370000000 1.0
C      1  0.4383690000000  0.3717050000000  0.5252760000000 1.0
C      1  0.4315700000000  0.5295490000000  0.4206120000000 1.0
C      1  0.4183650000000  0.4566780000000  0.4958740000000 1.0
C      1  0.4772060000000  0.4709680000000  0.4730560000000 1.0
C      1  0.5613960000000  0.4963960000000  0.5204980000000 1.0
C      1  0.5138770000000  0.4771680000000  0.4373150000000 1.0
C      1  0.5054410000000  0.5820640000000  0.4663470000000 1.0
C      1  0.4883800000000  0.5882680000000  0.4887020000000 1.0
C      1  0.4858320000000  0.4404060000000  0.4292380000000 1.0
C      1  0.4706420000000  0.5303440000000  0.4669330000000 1.0
C      1  0.4288500000000  0.5164710000000  0.5524550000000 1.0
C      1  0.4963090000000  0.5666160000000  0.4416400000000 1.0
C      1  0.4876980000000  0.4814420000000  0.4487400000000 1.0
C      1  0.5181970000000  0.4234090000000  0.5545640000000 1.0
C      1  0.5227120000000  0.5942290000000  0.5393630000000 1.0
C      1  0.4678590000000  0.4839610000000  0.4024700000000 1.0
C      1  0.5194800000000  0.5490600000000  0.5055910000000 1.0
C      1  0.4381600000000  0.5532530000000  0.4991790000000 1.0
C      1  0.5200660000000  0.5514320000000  0.4341110000000 1.0
C      1  0.5962450000000  0.4843730000000  0.4605030000000 1.0
C      1  0.4218360000000  0.4124400000000  0.4488570000000 1.0
C      1  0.4799080000000  0.5164000000000  0.5974910000000 1.0
C      1  0.4959040000000  0.5623040000000  0.5564880000000 1.0
C      1  0.5022310000000  0.5170780000000  0.4040070000000 1.0
C      1  0.4745280000000  0.5118130000000  0.4045470000000 1.0
C      1  0.5230510000000  0.5493110000000  0.5564940000000 1.0
C      1  0.5289960000000  0.4382490000000  0.4596180000000 1.0
C      1  0.5360690000000  0.4830480000000  0.5184680000000 1.0
C      1  0.4593330000000  0.5340140000000  0.4158500000000 1.0
C      1  0.5443520000000  0.5372650000000  0.5051200000000 1.0
C      1  0.5884490000000  0.4555840000000  0.5735460000000 1.0
C      1  0.5337260000000  0.4264420000000  0.5318380000000 1.0
C      1  0.5572120000000  0.5859980000000  0.4884100000000 1.0
C      1  0.4682280000000  0.4380270000000  0.5251460000000 1.0
C      1  0.5875970000000  0.5475470000000  0.4987790000000 1.0
C      1  0.5540410000000  0.4078670000000  0.4957600000000 1.0
C      1  0.4893270000000  0.4281150000000  0.5986180000000 1.0
C      1  0.4987170000000  0.4597700000000  0.4932520000000 1.0
C      1  0.4137340000000  0.5379810000000  0.5026190000000 1.0
C      1  0.5144500000000  0.4346590000000  0.4848650000000 1.0
C      1  0.5566020000000  0.4453890000000  0.4633900000000 1.0
C      1  0.3899300000000  0.5516670000000  0.5040530000000 1.0
C      1  0.4962390000000  0.5415650000000  0.5163220000000 1.0
C      1  0.4740190000000  0.4582630000000  0.4093160000000 1.0
C      1  0.5724800000000  0.4293740000000  0.5051290000000 1.0
C      1  0.4707330000000  0.5522390000000  0.5635790000000 1.0
C      1  0.4954590000000  0.5854310000000  0.5378430000000 1.0
C      1  0.5139910000000  0.4480490000000  0.4373140000000 1.0
C      1  0.5863900000000  0.4956270000000  0.5066710000000 1.0
C      1  0.5764340000000  0.5736560000000  0.5082340000000 1.0
C      1  0.4920230000000  0.4814800000000  0.5373090000000 1.0
C      1  0.4501330000000  0.4784990000000  0.4726130000000 1.0
C      1  0.5761240000000  0.4444790000000  0.5534520000000 1.0
C      1  0.4120150000000  0.4822570000000  0.5023980000000 1.0
C      1  0.5361330000000  0.5802220000000  0.4688640000000 1.0
C      1  0.4130400000000  0.5093170000000  0.5030600000000 1.0
C      1  0.4818370000000  0.5182700000000  0.5105300000000 1.0
C      1  0.5185460000000  0.4926980000000  0.5411320000000 1.0
C      1  0.5412240000000  0.5728100000000  0.5474120000000 1.0
C      1  0.5590100000000  0.5373970000000  0.4579430000000 1.0
C      1  0.5055880000000  0.4925160000000  0.6371570000000 1.0
C      1  0.4251120000000  0.5084000000000  0.4379820000000 1.0
C      1  0.4123740000000  0.5449550000000  0.4088320000000 1.0
C      1  0.4359660000000  0.4348990000000  0.4891040000000 1.0
C      1  0.5751690000000  0.4497790000000  0.4853940000000 1.0
C      1  0.4734510000000  0.4320390000000  0.6189190000000 1.0
C      1  0.5186150000000  0.4792930000000  0.6554630000000 1.0
C      1  0.4475160000000  0.5601110000000  0.5473140000000 1.0
END
