TITL C-612603-7354-677 0.0676244445201245 125000 -371.680354924811 0 0 63 (C1) n - 1
REM
REM in /home/nfs/bkarasulu/CARBON/AIRSS/Generating-Clusters/TERSOFF/Only-C1/FIRE-HFTN
REM
REM
REM
REM
REM
REM ./C.cell (11c1c37f851c82e70ff6c80c92926a4b)
REM AIRSS Version 0.9.1 bugfix July 2018 build 013d7b7c2542+ Fri, 06 Jul 2018 19:26:36 +0100
REM compiler GCC version 9.2.1 20190827 (Red Hat 9.2.1-1)
REM options -cpp -mtune=generic -march=x86-64 -g -O0 -fpre-include=/usr/include/finclude/math-vector-fortran.h
REM seed -619437793 -173601318 1809411033 29049077 -496120427 -1890061929 322298965 -913326805 1292680714 878720907 -1785287768 -1451750256 1087692400 -1011889495 1236992080 -1253834097 553885412 246610638 312437527 2016557775 -1866119112 114922192 1708536525 2034887625 -496393492 -2083419609 1557671009 -1908199395 1670325077 -673257028 -1582831703 -690525151 -654381085
REM
CELL 1.54180   50.00000   50.00000   50.00000   90.00000   90.00000   90.00000
LATT -1
SFAC C  
C      1  0.4703090000000  0.5334520000000  0.4436950000000 1.0
C      1  0.5457680000000  0.5264980000000  0.5433330000000 1.0
C      1  0.4161130000000  0.5217720000000  0.5039370000000 1.0
C      1  0.4686980000000  0.4813880000000  0.4437120000000 1.0
C      1  0.4990060000000  0.5174370000000  0.5134610000000 1.0
C      1  0.6035720000000  0.4958760000000  0.5014180000000 1.0
C      1  0.3839230000000  0.4165150000000  0.5038340000000 1.0
C      1  0.4922620000000  0.4233980000000  0.4601660000000 1.0
C      1  0.4380950000000  0.5605610000000  0.5220080000000 1.0
C      1  0.5455870000000  0.5487300000000  0.5257480000000 1.0
C      1  0.5345220000000  0.4450810000000  0.4832450000000 1.0
C      1  0.5852380000000  0.4611970000000  0.4747080000000 1.0
C      1  0.5671740000000  0.5078240000000  0.5458040000000 1.0
C      1  0.5133070000000  0.4946210000000  0.5022770000000 1.0
C      1  0.5180470000000  0.4900560000000  0.4707410000000 1.0
C      1  0.5371820000000  0.5600780000000  0.4426950000000 1.0
C      1  0.5387780000000  0.5785850000000  0.4626010000000 1.0
C      1  0.5213890000000  0.5745840000000  0.4848960000000 1.0
C      1  0.4946180000000  0.4546140000000  0.5294270000000 1.0
C      1  0.5421980000000  0.4530170000000  0.5859660000000 1.0
C      1  0.4030810000000  0.4344980000000  0.5004390000000 1.0
C      1  0.5149140000000  0.4270240000000  0.4741810000000 1.0
C      1  0.4454120000000  0.5690510000000  0.4949580000000 1.0
C      1  0.4698040000000  0.4331530000000  0.4489000000000 1.0
C      1  0.4591700000000  0.5718010000000  0.5396490000000 1.0
C      1  0.4897130000000  0.4800590000000  0.4635550000000 1.0
C      1  0.5919710000000  0.5168960000000  0.5533050000000 1.0
C      1  0.5305160000000  0.4408240000000  0.6058260000000 1.0
C      1  0.5207860000000  0.5208420000000  0.5554910000000 1.0
C      1  0.5743980000000  0.4980130000000  0.4467550000000 1.0
C      1  0.4288850000000  0.5338680000000  0.5263140000000 1.0
C      1  0.4729820000000  0.5781580000000  0.4936310000000 1.0
C      1  0.5332710000000  0.5656090000000  0.5089090000000 1.0
C      1  0.4915550000000  0.5490770000000  0.4546920000000 1.0
C      1  0.4233780000000  0.4535140000000  0.4967900000000 1.0
C      1  0.4936700000000  0.5684190000000  0.4769870000000 1.0
C      1  0.4675080000000  0.5538660000000  0.5597360000000 1.0
C      1  0.5890650000000  0.4715470000000  0.5011540000000 1.0
C      1  0.3650730000000  0.3988190000000  0.5071760000000 1.0
C      1  0.4396240000000  0.4873420000000  0.5373200000000 1.0
C      1  0.5677030000000  0.4648920000000  0.5190910000000 1.0
C      1  0.5534270000000  0.4655240000000  0.5654900000000 1.0
C      1  0.5627780000000  0.4795160000000  0.5430860000000 1.0
C      1  0.5654540000000  0.4736400000000  0.4581220000000 1.0
C      1  0.4631710000000  0.5082180000000  0.4360640000000 1.0
C      1  0.5911290000000  0.5159800000000  0.4583080000000 1.0
C      1  0.5244990000000  0.5141900000000  0.4551200000000 1.0
C      1  0.4586410000000  0.5019840000000  0.4905630000000 1.0
C      1  0.4962270000000  0.5197710000000  0.5419830000000 1.0
C      1  0.4743190000000  0.4777250000000  0.4890060000000 1.0
C      1  0.4454170000000  0.5149670000000  0.5419430000000 1.0
C      1  0.4334200000000  0.4567880000000  0.4701190000000 1.0
C      1  0.5484150000000  0.4465600000000  0.5081130000000 1.0
C      1  0.4313050000000  0.5074890000000  0.4866050000000 1.0
C      1  0.4942250000000  0.4723450000000  0.5090920000000 1.0
C      1  0.5387530000000  0.4685110000000  0.4668470000000 1.0
C      1  0.4702300000000  0.5263370000000  0.5523650000000 1.0
C      1  0.4755620000000  0.5233560000000  0.4987750000000 1.0
C      1  0.4534700000000  0.4566690000000  0.4495590000000 1.0
C      1  0.6037550000000  0.5150580000000  0.4822500000000 1.0
C      1  0.4320990000000  0.4678020000000  0.5200820000000 1.0
C      1  0.5177890000000  0.5397220000000  0.4461940000000 1.0
C      1  0.4776520000000  0.5852910000000  0.5217820000000 1.0
END
