TITL C-612603-7354-1119 0.0537106436766008 125000 -121.355554431421 0 0 22 (C1) n - 1
REM
REM in /home/nfs/bkarasulu/CARBON/AIRSS/Generating-Clusters/TERSOFF/Only-C1/FIRE-HFTN
REM
REM
REM
REM
REM
REM ./C.cell (11c1c37f851c82e70ff6c80c92926a4b)
REM AIRSS Version 0.9.1 bugfix July 2018 build 013d7b7c2542+ Fri, 06 Jul 2018 19:26:36 +0100
REM compiler GCC version 9.2.1 20190827 (Red Hat 9.2.1-1)
REM options -cpp -mtune=generic -march=x86-64 -g -O0 -fpre-include=/usr/include/finclude/math-vector-fortran.h
REM seed 1628933922 406507095 -2124173702 673859531 -1908579801 -713182350 1767121458 -1585594056 1871867099 -1143142611 -434026259 1732538981 -461943007 992771982 -507019439 907776572 -1713796395 -803268334 -1560784332 2029428235 -1500482055 -1503089900 177926585 884013117 -1840148377 728739438 -988106599 1398505812 919297584 510180176 688131208 2058490760 -1280369624
REM
CELL 1.54180   50.00000   50.00000   50.00000   90.00000   90.00000   90.00000
LATT -1
SFAC C  
C      1  0.4650130000000  0.4724710000000  0.4577100000000 1.0
C      1  0.4524290000000  0.4906720000000  0.5513710000000 1.0
C      1  0.5001190000000  0.5617050000000  0.5650090000000 1.0
C      1  0.5145370000000  0.4842810000000  0.4595510000000 1.0
C      1  0.5847240000000  0.4660230000000  0.4687480000000 1.0
C      1  0.5601960000000  0.4745730000000  0.4739320000000 1.0
C      1  0.6092690000000  0.4574670000000  0.4635600000000 1.0
C      1  0.4197930000000  0.4694930000000  0.4794370000000 1.0
C      1  0.5269950000000  0.4923750000000  0.5050030000000 1.0
C      1  0.4876250000000  0.4906680000000  0.4574280000000 1.0
C      1  0.4435030000000  0.4817890000000  0.4747760000000 1.0
C      1  0.5108070000000  0.5029840000000  0.5232180000000 1.0
C      1  0.4273960000000  0.5360100000000  0.5152630000000 1.0
C      1  0.4956250000000  0.5397850000000  0.5508240000000 1.0
C      1  0.5044470000000  0.5832980000000  0.5789600000000 1.0
C      1  0.4900020000000  0.5169450000000  0.5357510000000 1.0
C      1  0.4527290000000  0.5072600000000  0.4858240000000 1.0
C      1  0.6334110000000  0.4490510000000  0.4584580000000 1.0
C      1  0.4630070000000  0.5081970000000  0.5331740000000 1.0
C      1  0.4471440000000  0.5175220000000  0.5113650000000 1.0
C      1  0.5344340000000  0.4835640000000  0.4793990000000 1.0
C      1  0.4767960000000  0.5138700000000  0.4712390000000 1.0
END
