TITL C-612604-1799-775 -0.00141959376930618 125000 -808.299900994054 0 0 132 (C1) n - 1
REM
REM in /home/nfs/bkarasulu/CARBON/AIRSS/Generating-Clusters/TERSOFF/Only-C1/FIRE-HFTN
REM
REM
REM
REM
REM
REM ./C.cell (11c1c37f851c82e70ff6c80c92926a4b)
REM AIRSS Version 0.9.1 bugfix July 2018 build 013d7b7c2542+ Fri, 06 Jul 2018 19:26:36 +0100
REM compiler GCC version 9.2.1 20190827 (Red Hat 9.2.1-1)
REM options -cpp -mtune=generic -march=x86-64 -g -O0 -fpre-include=/usr/include/finclude/math-vector-fortran.h
REM seed 319828274 -151127915 917664120 -438676219 222726256 -1482741385 1646562732 1843751856 -613980661 253886574 8749027 1092019034 -1045815263 1268847733 489474953 -33579350 -627104446 -2071818498 -411833062 1406810109 -2030613517 73895317 684199412 -1147763478 -534868052 1113370386 2009359353 -1002443249 -1330338666 -398086006 672895335 -1359209263 -981490219
REM
CELL 1.54180   50.00000   50.00000   50.00000   90.00000   90.00000   90.00000
LATT -1
SFAC C  
C      1  0.4487680000000  0.4511430000000  0.4235010000000 1.0
C      1  0.5735140000000  0.4666500000000  0.4266410000000 1.0
C      1  0.5663690000000  0.4593140000000  0.5557550000000 1.0
C      1  0.4848700000000  0.4039610000000  0.5525480000000 1.0
C      1  0.5738190000000  0.5564050000000  0.4951220000000 1.0
C      1  0.5055380000000  0.5065810000000  0.6085300000000 1.0
C      1  0.4622790000000  0.4665760000000  0.4880710000000 1.0
C      1  0.4872720000000  0.4825440000000  0.4043490000000 1.0
C      1  0.5181290000000  0.5295390000000  0.4860380000000 1.0
C      1  0.5048910000000  0.5058540000000  0.4777890000000 1.0
C      1  0.4653160000000  0.5257010000000  0.5119630000000 1.0
C      1  0.4931320000000  0.5695980000000  0.5579060000000 1.0
C      1  0.5614430000000  0.4556380000000  0.4495610000000 1.0
C      1  0.4775510000000  0.5947640000000  0.4578720000000 1.0
C      1  0.4743620000000  0.5689470000000  0.5143440000000 1.0
C      1  0.5123070000000  0.4043260000000  0.4915390000000 1.0
C      1  0.5200420000000  0.4866440000000  0.4644590000000 1.0
C      1  0.5236210000000  0.6130470000000  0.5122770000000 1.0
C      1  0.5899820000000  0.4804650000000  0.5116520000000 1.0
C      1  0.4766960000000  0.5097410000000  0.5997130000000 1.0
C      1  0.4466940000000  0.5343650000000  0.4180180000000 1.0
C      1  0.6122410000000  0.5362410000000  0.4565830000000 1.0
C      1  0.4451390000000  0.4474460000000  0.5290160000000 1.0
C      1  0.5646340000000  0.5309200000000  0.4855910000000 1.0
C      1  0.5035950000000  0.4174690000000  0.5665080000000 1.0
C      1  0.4856510000000  0.5272780000000  0.5310440000000 1.0
C      1  0.5630560000000  0.4651130000000  0.4763210000000 1.0
C      1  0.5278250000000  0.4185370000000  0.4414130000000 1.0
C      1  0.4976780000000  0.5498100000000  0.4442740000000 1.0
C      1  0.4214040000000  0.4263890000000  0.4913110000000 1.0
C      1  0.5574510000000  0.5066410000000  0.5830700000000 1.0
C      1  0.5110790000000  0.4996680000000  0.6345530000000 1.0
C      1  0.5164580000000  0.4220060000000  0.5150080000000 1.0
C      1  0.4196610000000  0.5271640000000  0.5457640000000 1.0
C      1  0.5372740000000  0.3918720000000  0.4837720000000 1.0
C      1  0.5644600000000  0.4790650000000  0.5767760000000 1.0
C      1  0.6169570000000  0.5446210000000  0.5103100000000 1.0
C      1  0.4675200000000  0.4656300000000  0.5656710000000 1.0
C      1  0.5298340000000  0.5782190000000  0.4780450000000 1.0
C      1  0.4924800000000  0.5558960000000  0.5327370000000 1.0
C      1  0.4765370000000  0.5723080000000  0.4393150000000 1.0
C      1  0.5090630000000  0.4325620000000  0.3806610000000 1.0
C      1  0.3954010000000  0.4698350000000  0.4735020000000 1.0
C      1  0.5180070000000  0.5132410000000  0.5625110000000 1.0
C      1  0.5168240000000  0.4518220000000  0.5092680000000 1.0
C      1  0.5279660000000  0.5108560000000  0.5891240000000 1.0
C      1  0.4562150000000  0.4935920000000  0.4839980000000 1.0
C      1  0.5611090000000  0.4047060000000  0.4883700000000 1.0
C      1  0.5158500000000  0.4642090000000  0.4484460000000 1.0
C      1  0.4276860000000  0.4909570000000  0.5831080000000 1.0
C      1  0.4208840000000  0.4674150000000  0.5672760000000 1.0
C      1  0.4898280000000  0.5097860000000  0.5545170000000 1.0
C      1  0.4176320000000  0.5466730000000  0.4755410000000 1.0
C      1  0.4636140000000  0.4085390000000  0.4784960000000 1.0
C      1  0.5408440000000  0.5224950000000  0.4177700000000 1.0
C      1  0.5358830000000  0.4449400000000  0.4443260000000 1.0
C      1  0.4636210000000  0.5500750000000  0.4971280000000 1.0
C      1  0.4698840000000  0.3973300000000  0.5311550000000 1.0
C      1  0.5915090000000  0.5428040000000  0.5841300000000 1.0
C      1  0.4242170000000  0.5556170000000  0.5469740000000 1.0
C      1  0.4518090000000  0.5942440000000  0.5502390000000 1.0
C      1  0.4880270000000  0.6064990000000  0.4818890000000 1.0
C      1  0.6213190000000  0.5422170000000  0.4817760000000 1.0
C      1  0.4775310000000  0.6135950000000  0.5100410000000 1.0
C      1  0.4672830000000  0.4576520000000  0.5140120000000 1.0
C      1  0.5575290000000  0.5768530000000  0.4852220000000 1.0
C      1  0.4090320000000  0.5429940000000  0.5024840000000 1.0
C      1  0.4248790000000  0.5698040000000  0.4346250000000 1.0
C      1  0.5003030000000  0.5973530000000  0.5539090000000 1.0
C      1  0.4961150000000  0.4132240000000  0.3940770000000 1.0
C      1  0.5225080000000  0.4387840000000  0.5675950000000 1.0
C      1  0.5896220000000  0.5489740000000  0.5188870000000 1.0
C      1  0.5186320000000  0.4577430000000  0.3799070000000 1.0
C      1  0.3986020000000  0.4570820000000  0.5223870000000 1.0
C      1  0.4575080000000  0.5940370000000  0.5201010000000 1.0
C      1  0.4914370000000  0.4056790000000  0.4702290000000 1.0
C      1  0.4441100000000  0.5081610000000  0.5058350000000 1.0
C      1  0.4608040000000  0.3984800000000  0.5057600000000 1.0
C      1  0.4772500000000  0.5076140000000  0.4696000000000 1.0
C      1  0.5190710000000  0.5401180000000  0.4240790000000 1.0
C      1  0.4292540000000  0.5890260000000  0.5104080000000 1.0
C      1  0.4178280000000  0.5139230000000  0.5701070000000 1.0
C      1  0.4938330000000  0.4650560000000  0.5237850000000 1.0
C      1  0.5166960000000  0.6017730000000  0.4867300000000 1.0
C      1  0.3872450000000  0.4684880000000  0.4992010000000 1.0
C      1  0.5148300000000  0.5541970000000  0.4703870000000 1.0
C      1  0.4438980000000  0.4550900000000  0.5562650000000 1.0
C      1  0.4754600000000  0.5269120000000  0.5763190000000 1.0
C      1  0.4150010000000  0.4698400000000  0.4529670000000 1.0
C      1  0.5496690000000  0.5222780000000  0.5269270000000 1.0
C      1  0.5612320000000  0.4805160000000  0.4069590000000 1.0
C      1  0.4905710000000  0.4782390000000  0.5521640000000 1.0
C      1  0.5601200000000  0.4269730000000  0.5061370000000 1.0
C      1  0.5464860000000  0.4526460000000  0.4964500000000 1.0
C      1  0.5021410000000  0.4063370000000  0.4434790000000 1.0
C      1  0.5471760000000  0.4367610000000  0.5530870000000 1.0
C      1  0.4785230000000  0.5261140000000  0.4485120000000 1.0
C      1  0.5348450000000  0.5054960000000  0.5421080000000 1.0
C      1  0.4328630000000  0.4465200000000  0.4473570000000 1.0
C      1  0.5435080000000  0.4208010000000  0.5293150000000 1.0
C      1  0.4751090000000  0.4535480000000  0.4675940000000 1.0
C      1  0.4457260000000  0.5682220000000  0.5616760000000 1.0
C      1  0.5884410000000  0.5222790000000  0.4479220000000 1.0
C      1  0.4519170000000  0.5628960000000  0.4256200000000 1.0
C      1  0.5835850000000  0.4672000000000  0.5343180000000 1.0
C      1  0.4704750000000  0.5554040000000  0.5718840000000 1.0
C      1  0.5141780000000  0.4820050000000  0.3944260000000 1.0
C      1  0.3981080000000  0.4651770000000  0.5498330000000 1.0
C      1  0.4195030000000  0.5187370000000  0.5171750000000 1.0
C      1  0.4210180000000  0.4402810000000  0.5157800000000 1.0
C      1  0.4395640000000  0.4251210000000  0.4686070000000 1.0
C      1  0.5374890000000  0.4964980000000  0.4046120000000 1.0
C      1  0.5782360000000  0.5106210000000  0.4722380000000 1.0
C      1  0.4190800000000  0.4950240000000  0.4392390000000 1.0
C      1  0.5741340000000  0.5279600000000  0.5686230000000 1.0
C      1  0.4124180000000  0.5460220000000  0.4475700000000 1.0
C      1  0.6561400000000  0.5398520000000  0.5475240000000 1.0
C      1  0.6378630000000  0.5425880000000  0.5285420000000 1.0
C      1  0.4510970000000  0.4950290000000  0.6007680000000 1.0
C      1  0.4902550000000  0.4025860000000  0.4181960000000 1.0
C      1  0.4452490000000  0.5541830000000  0.4774950000000 1.0
C      1  0.5417740000000  0.5257000000000  0.5004600000000 1.0
C      1  0.5007580000000  0.6140020000000  0.5300100000000 1.0
C      1  0.6736220000000  0.5370720000000  0.5666610000000 1.0
C      1  0.5678160000000  0.5272080000000  0.4283850000000 1.0
C      1  0.5126510000000  0.4651110000000  0.5684870000000 1.0
C      1  0.4740790000000  0.4640450000000  0.4214670000000 1.0
C      1  0.4892390000000  0.4581780000000  0.4444490000000 1.0
C      1  0.4238830000000  0.5222940000000  0.4329260000000 1.0
C      1  0.5802590000000  0.4855320000000  0.4853610000000 1.0
C      1  0.4151530000000  0.5660100000000  0.5205160000000 1.0
C      1  0.5730670000000  0.5339750000000  0.5392910000000 1.0
END
