TITL C-612601-4209-1448 5.61399502427051 125000 -565.353883634383 0 0 93 (C1) n - 1
REM
REM in /home/nfs/bkarasulu/CARBON/AIRSS/Generating-Clusters/TERSOFF/Only-C1/FIRE-HFTN
REM
REM
REM
REM
REM
REM ./C.cell (11c1c37f851c82e70ff6c80c92926a4b)
REM AIRSS Version 0.9.1 bugfix July 2018 build 013d7b7c2542+ Fri, 06 Jul 2018 19:26:36 +0100
REM compiler GCC version 9.2.1 20190827 (Red Hat 9.2.1-1)
REM options -cpp -mtune=generic -march=x86-64 -g -O0 -fpre-include=/usr/include/finclude/math-vector-fortran.h
REM seed 765313277 -598981476 264011555 2089651375 -1742276699 905788358 807035734 -45463781 513909351 238141886 -1972613986 202052860 277173658 -434626698 1347987233 520996319 -860151290 85513128 2010436959 -1881992068 -370230314 1128077942 727282163 267102214 105383189 -259429564 -1485292149 464679598 937991202 1035610862 1902529066 1893651685 1869606950
REM
CELL 1.54180   50.00000   50.00000   50.00000   90.00000   90.00000   90.00000
LATT -1
SFAC C  
C      1  0.4659740000000  0.3635820000000  0.5777470000000 1.0
C      1  0.4591150000000  0.5506950000000  0.5640890000000 1.0
C      1  0.4244750000000  0.4966350000000  0.4967200000000 1.0
C      1  0.5435270000000  0.5728580000000  0.4409420000000 1.0
C      1  0.5711840000000  0.5195910000000  0.4787160000000 1.0
C      1  0.5180190000000  0.5194120000000  0.5559300000000 1.0
C      1  0.4705060000000  0.3704850000000  0.6403930000000 1.0
C      1  0.5353270000000  0.4557940000000  0.5628040000000 1.0
C      1  0.4591250000000  0.5935810000000  0.5260450000000 1.0
C      1  0.4583950000000  0.5261210000000  0.5793890000000 1.0
C      1  0.4881560000000  0.4919900000000  0.4399210000000 1.0
C      1  0.5336420000000  0.5763450000000  0.3659360000000 1.0
C      1  0.5345310000000  0.6257070000000  0.2152430000000 1.0
C      1  0.4401510000000  0.5423430000000  0.4782710000000 1.0
C      1  0.5430870000000  0.5905810000000  0.5050960000000 1.0
C      1  0.5307450000000  0.3765890000000  0.6335310000000 1.0
C      1  0.4731520000000  0.4579010000000  0.5652720000000 1.0
C      1  0.5248270000000  0.4910600000000  0.5954740000000 1.0
C      1  0.4707490000000  0.4701730000000  0.5406990000000 1.0
C      1  0.5302120000000  0.5452330000000  0.5538610000000 1.0
C      1  0.5009110000000  0.4608190000000  0.4753270000000 1.0
C      1  0.5104950000000  0.3933580000000  0.6240870000000 1.0
C      1  0.5340880000000  0.6010920000000  0.2903890000000 1.0
C      1  0.5670990000000  0.5591430000000  0.4491920000000 1.0
C      1  0.5804100000000  0.5345940000000  0.5012510000000 1.0
C      1  0.4811510000000  0.6049730000000  0.5151420000000 1.0
C      1  0.4602020000000  0.4517470000000  0.5211580000000 1.0
C      1  0.5389680000000  0.5009970000000  0.6167490000000 1.0
C      1  0.4822530000000  0.5151220000000  0.5885290000000 1.0
C      1  0.4511830000000  0.4011570000000  0.5253390000000 1.0
C      1  0.5225700000000  0.5917790000000  0.4860760000000 1.0
C      1  0.5219380000000  0.5033270000000  0.5326230000000 1.0
C      1  0.5232100000000  0.5778880000000  0.4604770000000 1.0
C      1  0.5339390000000  0.5928430000000  0.3155710000000 1.0
C      1  0.5651850000000  0.5310670000000  0.4532660000000 1.0
C      1  0.5342370000000  0.6093410000000  0.2652060000000 1.0
C      1  0.4815840000000  0.4739170000000  0.4203190000000 1.0
C      1  0.4118510000000  0.4571020000000  0.4718940000000 1.0
C      1  0.4310650000000  0.5281450000000  0.4139800000000 1.0
C      1  0.5343850000000  0.6175920000000  0.2400170000000 1.0
C      1  0.4530420000000  0.5239080000000  0.4273420000000 1.0
C      1  0.5274470000000  0.4206560000000  0.4698870000000 1.0
C      1  0.5404790000000  0.5183000000000  0.4430420000000 1.0
C      1  0.5362220000000  0.4485380000000  0.5372730000000 1.0
C      1  0.4975610000000  0.5622040000000  0.4584760000000 1.0
C      1  0.5432580000000  0.5064850000000  0.5145410000000 1.0
C      1  0.4803420000000  0.5713280000000  0.4797160000000 1.0
C      1  0.4578010000000  0.3586490000000  0.6598270000000 1.0
C      1  0.5619690000000  0.5271120000000  0.5230480000000 1.0
C      1  0.5837140000000  0.5631110000000  0.5038570000000 1.0
C      1  0.4301890000000  0.4703810000000  0.4873040000000 1.0
C      1  0.4724460000000  0.3855420000000  0.5940760000000 1.0
C      1  0.4512850000000  0.3751640000000  0.5316320000000 1.0
C      1  0.4971630000000  0.5394740000000  0.4413180000000 1.0
C      1  0.4950100000000  0.5924010000000  0.4942870000000 1.0
C      1  0.4694870000000  0.4278650000000  0.4582370000000 1.0
C      1  0.4367280000000  0.5113440000000  0.5675750000000 1.0
C      1  0.5602900000000  0.5729080000000  0.5185130000000 1.0
C      1  0.5492260000000  0.3605520000000  0.6424980000000 1.0
C      1  0.5331620000000  0.5594870000000  0.4172680000000 1.0
C      1  0.4191130000000  0.5018280000000  0.5238440000000 1.0
C      1  0.5212530000000  0.4435950000000  0.6072420000000 1.0
C      1  0.4566810000000  0.5606120000000  0.4912020000000 1.0
C      1  0.5159650000000  0.4202700000000  0.6187120000000 1.0
C      1  0.5320470000000  0.4463530000000  0.5111410000000 1.0
C      1  0.4506740000000  0.5675020000000  0.5185410000000 1.0
C      1  0.4654480000000  0.4302150000000  0.5635900000000 1.0
C      1  0.4573550000000  0.3597100000000  0.5526610000000 1.0
C      1  0.5068220000000  0.4844440000000  0.4604370000000 1.0
C      1  0.4574690000000  0.4263550000000  0.5354120000000 1.0
C      1  0.4094190000000  0.4827550000000  0.5433960000000 1.0
C      1  0.4199700000000  0.4880740000000  0.5684160000000 1.0
C      1  0.4674990000000  0.4109880000000  0.5833370000000 1.0
C      1  0.4844170000000  0.3828560000000  0.6195800000000 1.0
C      1  0.5082590000000  0.5085200000000  0.5802410000000 1.0
C      1  0.4281480000000  0.5186950000000  0.4799640000000 1.0
C      1  0.5508180000000  0.5511570000000  0.5356010000000 1.0
C      1  0.6051680000000  0.5782920000000  0.4953030000000 1.0
C      1  0.5119070000000  0.4050120000000  0.4543500000000 1.0
C      1  0.5216230000000  0.4435900000000  0.4854130000000 1.0
C      1  0.5480000000000  0.5019860000000  0.4865210000000 1.0
C      1  0.4456390000000  0.5483820000000  0.5383750000000 1.0
C      1  0.5224190000000  0.5350190000000  0.4282320000000 1.0
C      1  0.4323700000000  0.5226860000000  0.5395340000000 1.0
C      1  0.5309230000000  0.4991070000000  0.4633160000000 1.0
C      1  0.4740410000000  0.4501270000000  0.4751080000000 1.0
C      1  0.6249080000000  0.5927470000000  0.4863320000000 1.0
C      1  0.4856000000000  0.4082340000000  0.4491770000000 1.0
C      1  0.5272090000000  0.4635220000000  0.5884850000000 1.0
C      1  0.4547680000000  0.4578140000000  0.4943910000000 1.0
C      1  0.5334890000000  0.5680990000000  0.3911060000000 1.0
C      1  0.4783450000000  0.5187730000000  0.4379000000000 1.0
C      1  0.5337910000000  0.5845940000000  0.3407540000000 1.0
END
