TITL C-612600-6631-955 -36.3989179519782 125000 -1238.28985071633 0 0 199 (C1) n - 1
REM
REM in /home/nfs/bkarasulu/CARBON/AIRSS/Generating-Clusters/TERSOFF/Only-C1/FIRE-HFTN
REM
REM
REM
REM
REM
REM ./C.cell (11c1c37f851c82e70ff6c80c92926a4b)
REM AIRSS Version 0.9.1 bugfix July 2018 build 013d7b7c2542+ Fri, 06 Jul 2018 19:26:36 +0100
REM compiler GCC version 9.2.1 20190827 (Red Hat 9.2.1-1)
REM options -cpp -mtune=generic -march=x86-64 -g -O0 -fpre-include=/usr/include/finclude/math-vector-fortran.h
REM seed 1387524735 402640166 1479874016 -175708229 1587229963 242991985 510436702 1291953958 -2019593905 1779701110 1110954154 531580223 1152256729 -638066611 1418172741 -1325377854 -1214210477 201917823 381230760 517078870 1010720512 929154486 -709386615 1249624953 729944649 -93109443 1251224519 174113047 145155152 377204237 -1760782854 -1399447309 -836251413
REM
CELL 1.54180   50.00000   50.00000   50.00000   90.00000   90.00000   90.00000
LATT -1
SFAC C  
C      1  0.4019190000000  0.5251220000000  0.5574480000000 1.0
C      1  0.5107750000000  0.5065160000000  0.6031220000000 1.0
C      1  0.4658840000000  0.6024800000000  0.4622010000000 1.0
C      1  0.5359110000000  0.5437140000000  0.5933550000000 1.0
C      1  0.4767480000000  0.4669380000000  0.5466140000000 1.0
C      1  0.5019680000000  0.6001100000000  0.5284550000000 1.0
C      1  0.4048640000000  0.4329940000000  0.5064800000000 1.0
C      1  0.5395710000000  0.5140020000000  0.5408060000000 1.0
C      1  0.4552370000000  0.4786000000000  0.6114940000000 1.0
C      1  0.5096700000000  0.5326680000000  0.5867050000000 1.0
C      1  0.4493100000000  0.5281140000000  0.4484960000000 1.0
C      1  0.4735520000000  0.4089970000000  0.5624510000000 1.0
C      1  0.4512990000000  0.4196580000000  0.5189620000000 1.0
C      1  0.5399230000000  0.5800440000000  0.4394720000000 1.0
C      1  0.5725270000000  0.5123130000000  0.5889080000000 1.0
C      1  0.4598970000000  0.5054180000000  0.4949050000000 1.0
C      1  0.4916600000000  0.5074830000000  0.5328960000000 1.0
C      1  0.4697700000000  0.4022530000000  0.5346540000000 1.0
C      1  0.3837570000000  0.5275490000000  0.5347610000000 1.0
C      1  0.4693210000000  0.5403100000000  0.5573320000000 1.0
C      1  0.5360590000000  0.3729590000000  0.4969660000000 1.0
C      1  0.4353810000000  0.4994650000000  0.5064100000000 1.0
C      1  0.5756410000000  0.5541330000000  0.4909170000000 1.0
C      1  0.4757660000000  0.6014600000000  0.5156550000000 1.0
C      1  0.3811180000000  0.5348510000000  0.4688570000000 1.0
C      1  0.4388450000000  0.4200050000000  0.4714780000000 1.0
C      1  0.5563170000000  0.4158980000000  0.4992590000000 1.0
C      1  0.4589290000000  0.4287770000000  0.5798130000000 1.0
C      1  0.5733070000000  0.5276840000000  0.4799260000000 1.0
C      1  0.5841290000000  0.4714140000000  0.4224590000000 1.0
C      1  0.3829350000000  0.4639720000000  0.4760620000000 1.0
C      1  0.5975380000000  0.4495050000000  0.5447440000000 1.0
C      1  0.4102220000000  0.4974690000000  0.5606000000000 1.0
C      1  0.4537270000000  0.6130200000000  0.5605030000000 1.0
C      1  0.4553850000000  0.5260920000000  0.5992120000000 1.0
C      1  0.5923420000000  0.5309660000000  0.5820870000000 1.0
C      1  0.5476970000000  0.4838130000000  0.6314680000000 1.0
C      1  0.4521930000000  0.6008220000000  0.5844220000000 1.0
C      1  0.4176510000000  0.4467340000000  0.5525890000000 1.0
C      1  0.5559600000000  0.6365870000000  0.4840420000000 1.0
C      1  0.5040770000000  0.5128590000000  0.3401760000000 1.0
C      1  0.6240220000000  0.4079560000000  0.4743770000000 1.0
C      1  0.3937000000000  0.5289900000000  0.4431070000000 1.0
C      1  0.5669260000000  0.5721700000000  0.5732440000000 1.0
C      1  0.5159990000000  0.4854190000000  0.4775980000000 1.0
C      1  0.3821160000000  0.5054140000000  0.5152130000000 1.0
C      1  0.4773480000000  0.4948700000000  0.5542510000000 1.0
C      1  0.6197160000000  0.4346730000000  0.4742220000000 1.0
C      1  0.4842860000000  0.4386400000000  0.4015750000000 1.0
C      1  0.5634880000000  0.5761080000000  0.4786530000000 1.0
C      1  0.5675410000000  0.5227810000000  0.3970440000000 1.0
C      1  0.4420850000000  0.5755070000000  0.5341960000000 1.0
C      1  0.5746120000000  0.6209490000000  0.4693340000000 1.0
C      1  0.3901700000000  0.4248030000000  0.3941000000000 1.0
C      1  0.5221290000000  0.5597190000000  0.5281840000000 1.0
C      1  0.5507450000000  0.4674120000000  0.5865350000000 1.0
C      1  0.4343120000000  0.5033550000000  0.4485570000000 1.0
C      1  0.4237730000000  0.4298620000000  0.5285640000000 1.0
C      1  0.3751640000000  0.4269420000000  0.4153010000000 1.0
C      1  0.4589750000000  0.4286280000000  0.4903910000000 1.0
C      1  0.5370980000000  0.5748890000000  0.4678350000000 1.0
C      1  0.5427500000000  0.4482340000000  0.4655610000000 1.0
C      1  0.5409530000000  0.5710540000000  0.5872630000000 1.0
C      1  0.4690510000000  0.5280790000000  0.4260130000000 1.0
C      1  0.6123880000000  0.5649840000000  0.4418990000000 1.0
C      1  0.5878780000000  0.5787040000000  0.4396290000000 1.0
C      1  0.6170030000000  0.5260290000000  0.5304500000000 1.0
C      1  0.4677390000000  0.5546360000000  0.4145140000000 1.0
C      1  0.5096110000000  0.6283850000000  0.4691750000000 1.0
C      1  0.5799770000000  0.4714510000000  0.4998640000000 1.0
C      1  0.5282200000000  0.5099810000000  0.4840960000000 1.0
C      1  0.5644040000000  0.4707810000000  0.4015550000000 1.0
C      1  0.5012630000000  0.4096030000000  0.5728730000000 1.0
C      1  0.4062990000000  0.5029360000000  0.4482400000000 1.0
C      1  0.5420940000000  0.4110410000000  0.4355070000000 1.0
C      1  0.4534820000000  0.4828590000000  0.4522390000000 1.0
C      1  0.5250220000000  0.4821950000000  0.4314660000000 1.0
C      1  0.6109400000000  0.4730920000000  0.5442500000000 1.0
C      1  0.4422170000000  0.5520190000000  0.5930240000000 1.0
C      1  0.5033680000000  0.4796080000000  0.5981300000000 1.0
C      1  0.4606230000000  0.5762550000000  0.5960810000000 1.0
C      1  0.5293910000000  0.6269540000000  0.4895740000000 1.0
C      1  0.3690940000000  0.5505430000000  0.5273930000000 1.0
C      1  0.5841130000000  0.5151990000000  0.4565460000000 1.0
C      1  0.4202740000000  0.5635920000000  0.4126140000000 1.0
C      1  0.5766630000000  0.4579310000000  0.4756760000000 1.0
C      1  0.4083040000000  0.5904610000000  0.5019070000000 1.0
C      1  0.4128740000000  0.4198520000000  0.4826360000000 1.0
C      1  0.5189190000000  0.5569780000000  0.4797690000000 1.0
C      1  0.5633580000000  0.6613730000000  0.4931350000000 1.0
C      1  0.4543490000000  0.4622050000000  0.5309970000000 1.0
C      1  0.5178610000000  0.3609280000000  0.4781750000000 1.0
C      1  0.5640460000000  0.5694790000000  0.4253550000000 1.0
C      1  0.4359570000000  0.4462170000000  0.5758450000000 1.0
C      1  0.5211630000000  0.4713270000000  0.5301340000000 1.0
C      1  0.4800710000000  0.4662670000000  0.6084290000000 1.0
C      1  0.5073070000000  0.4335340000000  0.5876090000000 1.0
C      1  0.5068120000000  0.5564950000000  0.5049110000000 1.0
C      1  0.4700550000000  0.4766510000000  0.4299960000000 1.0
C      1  0.4818590000000  0.4500750000000  0.4274860000000 1.0
C      1  0.4457680000000  0.5892020000000  0.4452180000000 1.0
C      1  0.4933070000000  0.3977280000000  0.4919790000000 1.0
C      1  0.5176320000000  0.5319240000000  0.4402900000000 1.0
C      1  0.5048650000000  0.4304480000000  0.3842480000000 1.0
C      1  0.5874320000000  0.4957700000000  0.4378950000000 1.0
C      1  0.4171930000000  0.5452650000000  0.5751480000000 1.0
C      1  0.3358310000000  0.4175230000000  0.4411850000000 1.0
C      1  0.4350880000000  0.4758260000000  0.5186720000000 1.0
C      1  0.5253280000000  0.4298010000000  0.4484460000000 1.0
C      1  0.5986180000000  0.5473960000000  0.5383610000000 1.0
C      1  0.4273590000000  0.5721610000000  0.4618630000000 1.0
C      1  0.4963240000000  0.4370280000000  0.4498010000000 1.0
C      1  0.4913880000000  0.3877260000000  0.5196590000000 1.0
C      1  0.4555350000000  0.6005380000000  0.5355450000000 1.0
C      1  0.5648470000000  0.4894030000000  0.5715200000000 1.0
C      1  0.5582700000000  0.4156650000000  0.5283060000000 1.0
C      1  0.3813170000000  0.5112200000000  0.4867220000000 1.0
C      1  0.4544320000000  0.5061220000000  0.6191430000000 1.0
C      1  0.5257670000000  0.4496740000000  0.3782970000000 1.0
C      1  0.5256840000000  0.4996360000000  0.3876870000000 1.0
C      1  0.5874290000000  0.3976300000000  0.4440450000000 1.0
C      1  0.5177580000000  0.4989180000000  0.5330740000000 1.0
C      1  0.4439170000000  0.4091150000000  0.4464650000000 1.0
C      1  0.5068730000000  0.4260010000000  0.4963430000000 1.0
C      1  0.6338580000000  0.5514130000000  0.4544660000000 1.0
C      1  0.4638710000000  0.5612940000000  0.4871890000000 1.0
C      1  0.5601130000000  0.3962130000000  0.4535280000000 1.0
C      1  0.5293850000000  0.5400690000000  0.4178160000000 1.0
C      1  0.4015940000000  0.5466720000000  0.4226310000000 1.0
C      1  0.5351610000000  0.5066900000000  0.6204800000000 1.0
C      1  0.5881070000000  0.5530190000000  0.5645980000000 1.0
C      1  0.5566200000000  0.5453920000000  0.4108040000000 1.0
C      1  0.4909750000000  0.4720350000000  0.4818610000000 1.0
C      1  0.5379580000000  0.4590540000000  0.5119440000000 1.0
C      1  0.5542370000000  0.3922300000000  0.4831020000000 1.0
C      1  0.5100160000000  0.4954030000000  0.4111720000000 1.0
C      1  0.4679010000000  0.4864770000000  0.4762680000000 1.0
C      1  0.3690840000000  0.4475020000000  0.4584610000000 1.0
C      1  0.4162960000000  0.5787720000000  0.5247430000000 1.0
C      1  0.5313130000000  0.4736720000000  0.4571000000000 1.0
C      1  0.6327520000000  0.5416780000000  0.4810840000000 1.0
C      1  0.5149250000000  0.5063650000000  0.3629600000000 1.0
C      1  0.4884400000000  0.5778110000000  0.6074820000000 1.0
C      1  0.3868570000000  0.4771770000000  0.5232390000000 1.0
C      1  0.4464230000000  0.5736910000000  0.4198040000000 1.0
C      1  0.6090840000000  0.3899950000000  0.4606050000000 1.0
C      1  0.5592480000000  0.4658750000000  0.6142730000000 1.0
C      1  0.5403220000000  0.5412410000000  0.5371310000000 1.0
C      1  0.4867610000000  0.4421620000000  0.4798980000000 1.0
C      1  0.5988400000000  0.4491230000000  0.4618520000000 1.0
C      1  0.3886020000000  0.4564250000000  0.5031730000000 1.0
C      1  0.5625870000000  0.4970880000000  0.5429480000000 1.0
C      1  0.3805540000000  0.5606510000000  0.4796190000000 1.0
C      1  0.4799230000000  0.4398370000000  0.5979960000000 1.0
C      1  0.4966520000000  0.3773160000000  0.4727200000000 1.0
C      1  0.4600710000000  0.5534770000000  0.5340180000000 1.0
C      1  0.4381900000000  0.4719820000000  0.5894380000000 1.0
C      1  0.4457450000000  0.3945990000000  0.4248900000000 1.0
C      1  0.4946300000000  0.5496480000000  0.5670390000000 1.0
C      1  0.5073250000000  0.5759110000000  0.5461400000000 1.0
C      1  0.5863540000000  0.5590730000000  0.5161710000000 1.0
C      1  0.5800360000000  0.5941000000000  0.4633980000000 1.0
C      1  0.5686590000000  0.4930070000000  0.5139490000000 1.0
C      1  0.4897830000000  0.5720210000000  0.6352210000000 1.0
C      1  0.5309880000000  0.4079240000000  0.5356330000000 1.0
C      1  0.5930740000000  0.4197020000000  0.4259030000000 1.0
C      1  0.3597270000000  0.4305110000000  0.4383460000000 1.0
C      1  0.4683630000000  0.5902760000000  0.4885950000000 1.0
C      1  0.5522800000000  0.5240390000000  0.6053720000000 1.0
C      1  0.5084590000000  0.4278600000000  0.5287570000000 1.0
C      1  0.5495390000000  0.4461910000000  0.3957930000000 1.0
C      1  0.5360200000000  0.4369920000000  0.4916470000000 1.0
C      1  0.4040030000000  0.5771030000000  0.4774920000000 1.0
C      1  0.4350330000000  0.4947290000000  0.5724490000000 1.0
C      1  0.5151850000000  0.5843470000000  0.5951710000000 1.0
C      1  0.6568980000000  0.5474000000000  0.4400960000000 1.0
C      1  0.3654950000000  0.5631430000000  0.5037180000000 1.0
C      1  0.6169470000000  0.4992770000000  0.5405360000000 1.0
C      1  0.3910160000000  0.4898690000000  0.4689600000000 1.0
C      1  0.4011290000000  0.4726150000000  0.5480930000000 1.0
C      1  0.5194270000000  0.5316190000000  0.4678820000000 1.0
C      1  0.5224290000000  0.4592920000000  0.5864640000000 1.0
C      1  0.6304960000000  0.5313370000000  0.5057720000000 1.0
C      1  0.4592250000000  0.5136460000000  0.5702850000000 1.0
C      1  0.4456890000000  0.5496580000000  0.4679230000000 1.0
C      1  0.4915300000000  0.5637990000000  0.6598850000000 1.0
C      1  0.5211100000000  0.4078280000000  0.3922630000000 1.0
C      1  0.5219460000000  0.6152730000000  0.5146330000000 1.0
C      1  0.5215160000000  0.3821540000000  0.5236810000000 1.0
C      1  0.5552870000000  0.5109480000000  0.4947780000000 1.0
C      1  0.5009260000000  0.4536120000000  0.5393340000000 1.0
C      1  0.4776800000000  0.5478200000000  0.5093110000000 1.0
C      1  0.5947010000000  0.4471320000000  0.4336790000000 1.0
C      1  0.4785980000000  0.5185700000000  0.5106180000000 1.0
C      1  0.4824510000000  0.5012070000000  0.4186380000000 1.0
C      1  0.5791400000000  0.4299810000000  0.5409380000000 1.0
C      1  0.5545010000000  0.4971940000000  0.3922090000000 1.0
C      1  0.4868260000000  0.6206120000000  0.4570550000000 1.0
C      1  0.5444120000000  0.4176210000000  0.4075060000000 1.0
END
