TITL C-612606-7351-794 4.65150199501285e-06 125000 -391.07418826122 0 0 65 (C1) n - 1
REM
REM in /home/nfs/bkarasulu/CARBON/AIRSS/Generating-Clusters/TERSOFF/Only-C1/FIRE-HFTN
REM
REM
REM
REM
REM
REM ./C.cell (11c1c37f851c82e70ff6c80c92926a4b)
REM AIRSS Version 0.9.1 bugfix July 2018 build 013d7b7c2542+ Fri, 06 Jul 2018 19:26:36 +0100
REM compiler GCC version 9.2.1 20190827 (Red Hat 9.2.1-1)
REM options -cpp -mtune=generic -march=x86-64 -g -O0 -fpre-include=/usr/include/finclude/math-vector-fortran.h
REM seed -832004699 1786133947 1157087355 -159165311 -223254343 -477489390 578651246 -245526340 1645855922 -1871162556 125721359 1456495384 197533631 -1380503043 -466811628 -617634615 -144664155 1514216954 1850126821 -1082144512 1114824678 1684393790 1508785271 -1152663726 519034262 623838647 -660532610 -938096050 -1890019514 -1283011638 1440825990 710843699 -254541139
REM
CELL 1.54180   50.00000   50.00000   50.00000   90.00000   90.00000   90.00000
LATT -1
SFAC C  
C      1  0.5673270000000  0.4897000000000  0.4958540000000 1.0
C      1  0.4844440000000  0.6050860000000  0.5286760000000 1.0
C      1  0.5409280000000  0.5330380000000  0.5522240000000 1.0
C      1  0.5017960000000  0.5191380000000  0.4350290000000 1.0
C      1  0.5530000000000  0.4606180000000  0.4603360000000 1.0
C      1  0.5350950000000  0.5048770000000  0.5520050000000 1.0
C      1  0.5247080000000  0.5813860000000  0.5436130000000 1.0
C      1  0.5766870000000  0.5129810000000  0.5051790000000 1.0
C      1  0.4866560000000  0.4345160000000  0.4818920000000 1.0
C      1  0.4649160000000  0.4902910000000  0.4439530000000 1.0
C      1  0.4557020000000  0.5370840000000  0.4332800000000 1.0
C      1  0.5423030000000  0.5499650000000  0.4677600000000 1.0
C      1  0.4554790000000  0.4946190000000  0.5607870000000 1.0
C      1  0.4626910000000  0.4459010000000  0.5615070000000 1.0
C      1  0.5541670000000  0.4427980000000  0.4848040000000 1.0
C      1  0.4645630000000  0.5731950000000  0.4989300000000 1.0
C      1  0.4884730000000  0.5758250000000  0.4822050000000 1.0
C      1  0.5352140000000  0.5283790000000  0.4874220000000 1.0
C      1  0.4736960000000  0.5137880000000  0.4305130000000 1.0
C      1  0.4295920000000  0.4808500000000  0.4941710000000 1.0
C      1  0.4544180000000  0.4716260000000  0.4872100000000 1.0
C      1  0.4691100000000  0.5624900000000  0.4362730000000 1.0
C      1  0.5335250000000  0.4229870000000  0.4867360000000 1.0
C      1  0.5132390000000  0.4504630000000  0.5368660000000 1.0
C      1  0.5225410000000  0.4594260000000  0.5640530000000 1.0
C      1  0.4499140000000  0.5150330000000  0.5441460000000 1.0
C      1  0.5418650000000  0.5594390000000  0.5398860000000 1.0
C      1  0.5399960000000  0.5729010000000  0.4884420000000 1.0
C      1  0.5002990000000  0.5370970000000  0.4581100000000 1.0
C      1  0.5098840000000  0.5940250000000  0.5229480000000 1.0
C      1  0.5533050000000  0.5598340000000  0.5133610000000 1.0
C      1  0.5335900000000  0.4777040000000  0.4443810000000 1.0
C      1  0.5657920000000  0.4490610000000  0.5113440000000 1.0
C      1  0.4344080000000  0.5346250000000  0.4520520000000 1.0
C      1  0.4717810000000  0.4724360000000  0.5688000000000 1.0
C      1  0.4958620000000  0.4980990000000  0.4844930000000 1.0
C      1  0.4774730000000  0.4218890000000  0.5658900000000 1.0
C      1  0.5409200000000  0.4835680000000  0.4949870000000 1.0
C      1  0.4492600000000  0.5332140000000  0.5243880000000 1.0
C      1  0.4340430000000  0.5406160000000  0.4783630000000 1.0
C      1  0.5000950000000  0.4786040000000  0.5697790000000 1.0
C      1  0.5101580000000  0.4605510000000  0.4417710000000 1.0
C      1  0.4487950000000  0.5492070000000  0.5009340000000 1.0
C      1  0.5133070000000  0.4822510000000  0.4995460000000 1.0
C      1  0.5473950000000  0.4763660000000  0.5554170000000 1.0
C      1  0.5077920000000  0.5234230000000  0.4813440000000 1.0
C      1  0.5297640000000  0.5075260000000  0.4369790000000 1.0
C      1  0.5135290000000  0.5841250000000  0.4953680000000 1.0
C      1  0.4328220000000  0.4089260000000  0.5072840000000 1.0
C      1  0.5058230000000  0.4763600000000  0.5252720000000 1.0
C      1  0.5060140000000  0.4252250000000  0.5268520000000 1.0
C      1  0.5067640000000  0.4969830000000  0.5467290000000 1.0
C      1  0.5075010000000  0.4230580000000  0.4983530000000 1.0
C      1  0.4948510000000  0.4433870000000  0.4560020000000 1.0
C      1  0.5463030000000  0.5327310000000  0.4436880000000 1.0
C      1  0.5572990000000  0.5325450000000  0.5056890000000 1.0
C      1  0.4455430000000  0.4433130000000  0.5390110000000 1.0
C      1  0.4496360000000  0.4716790000000  0.4309630000000 1.0
C      1  0.4465970000000  0.4317700000000  0.5131770000000 1.0
C      1  0.4620860000000  0.5940260000000  0.5180200000000 1.0
C      1  0.4624710000000  0.4449360000000  0.4934700000000 1.0
C      1  0.4926970000000  0.4098950000000  0.5465940000000 1.0
C      1  0.5638030000000  0.4620880000000  0.5357110000000 1.0
C      1  0.4719910000000  0.4879620000000  0.4719500000000 1.0
C      1  0.4883000000000  0.5624990000000  0.4572240000000 1.0
END
