TITL C-612604-1799-307 367.650325790889 125000 -902.22663127551 0 0 147 (C1) n - 1
REM
REM in /home/nfs/bkarasulu/CARBON/AIRSS/Generating-Clusters/TERSOFF/Only-C1/FIRE-HFTN
REM
REM
REM
REM
REM
REM ./C.cell (11c1c37f851c82e70ff6c80c92926a4b)
REM AIRSS Version 0.9.1 bugfix July 2018 build 013d7b7c2542+ Fri, 06 Jul 2018 19:26:36 +0100
REM compiler GCC version 9.2.1 20190827 (Red Hat 9.2.1-1)
REM options -cpp -mtune=generic -march=x86-64 -g -O0 -fpre-include=/usr/include/finclude/math-vector-fortran.h
REM seed 2010999664 -1159633758 -759540207 -141266407 -1758088936 -132064210 305104600 -232163444 538526552 1256289377 102962405 1331317039 961311604 1772409245 775169617 -1448449081 695905002 1011512122 -472304136 -1348525829 -1817877450 -455930280 -1972394383 489005052 -1181445588 1146673661 -545726269 -1335745093 2046638685 -514012031 -1397511766 1346776446 1673471936
REM
CELL 1.54180   50.00000   50.00000   50.00000   90.00000   90.00000   90.00000
LATT -1
SFAC C  
C      1  0.5212160000000  0.5105350000000  0.5548630000000 1.0
C      1  0.3825570000000  0.4723390000000  0.4451170000000 1.0
C      1  0.4918820000000  0.4888560000000  0.4224140000000 1.0
C      1  0.5345190000000  0.5445860000000  0.5892050000000 1.0
C      1  0.5813570000000  0.5439110000000  0.4064120000000 1.0
C      1  0.5055970000000  0.4792850000000  0.5961910000000 1.0
C      1  0.4760080000000  0.5816460000000  0.4689210000000 1.0
C      1  0.4223490000000  0.5081610000000  0.4841750000000 1.0
C      1  0.5864660000000  0.4212460000000  0.5128310000000 1.0
C      1  0.4612050000000  0.4441640000000  0.4096390000000 1.0
C      1  0.4243660000000  0.5477990000000  0.4543900000000 1.0
C      1  0.5264790000000  0.4829270000000  0.3935620000000 1.0
C      1  0.4629470000000  0.5201530000000  0.5962160000000 1.0
C      1  0.4541540000000  0.4871710000000  0.5579850000000 1.0
C      1  0.3787790000000  0.4671910000000  0.4732230000000 1.0
C      1  0.4144720000000  0.4896260000000  0.5809780000000 1.0
C      1  0.4905040000000  0.5103130000000  0.3425690000000 1.0
C      1  0.5045350000000  0.5613580000000  0.4091220000000 1.0
C      1  0.5434390000000  0.4445620000000  0.5221550000000 1.0
C      1  0.4956550000000  0.4238270000000  0.4336790000000 1.0
C      1  0.3798590000000  0.4878190000000  0.4926160000000 1.0
C      1  0.6145530000000  0.4846170000000  0.4089300000000 1.0
C      1  0.6088070000000  0.5099750000000  0.4700340000000 1.0
C      1  0.5949770000000  0.4801320000000  0.4275390000000 1.0
C      1  0.5445040000000  0.4236420000000  0.4346480000000 1.0
C      1  0.4186360000000  0.4392880000000  0.4758460000000 1.0
C      1  0.5199810000000  0.3956560000000  0.4990480000000 1.0
C      1  0.5743410000000  0.5702470000000  0.4879660000000 1.0
C      1  0.5347450000000  0.4739450000000  0.4816270000000 1.0
C      1  0.4840760000000  0.4589540000000  0.6006100000000 1.0
C      1  0.5699620000000  0.4675170000000  0.4197580000000 1.0
C      1  0.4552260000000  0.5598830000000  0.4152890000000 1.0
C      1  0.4342820000000  0.4476390000000  0.4978690000000 1.0
C      1  0.4218150000000  0.5727360000000  0.5685270000000 1.0
C      1  0.5996750000000  0.4950520000000  0.5377810000000 1.0
C      1  0.4092090000000  0.4364380000000  0.5511980000000 1.0
C      1  0.5214520000000  0.5091330000000  0.3797780000000 1.0
C      1  0.5567100000000  0.5199850000000  0.4847350000000 1.0
C      1  0.4402510000000  0.4876520000000  0.4748070000000 1.0
C      1  0.4794340000000  0.5540620000000  0.4749760000000 1.0
C      1  0.5092760000000  0.5873830000000  0.4996900000000 1.0
C      1  0.4389130000000  0.5792850000000  0.5882150000000 1.0
C      1  0.5073570000000  0.5160350000000  0.4978940000000 1.0
C      1  0.5690910000000  0.5433770000000  0.4804010000000 1.0
C      1  0.4908750000000  0.4435290000000  0.4108390000000 1.0
C      1  0.4632950000000  0.4028020000000  0.4678860000000 1.0
C      1  0.5579470000000  0.5302420000000  0.4055430000000 1.0
C      1  0.5202110000000  0.4154970000000  0.4467550000000 1.0
C      1  0.4504730000000  0.5155070000000  0.3848010000000 1.0
C      1  0.5403910000000  0.5308470000000  0.5650180000000 1.0
C      1  0.5103550000000  0.4749800000000  0.4635230000000 1.0
C      1  0.5610030000000  0.4643110000000  0.4728490000000 1.0
C      1  0.5421980000000  0.6069680000000  0.5401770000000 1.0
C      1  0.4056380000000  0.4592520000000  0.4344090000000 1.0
C      1  0.5520050000000  0.5449450000000  0.5428250000000 1.0
C      1  0.4340250000000  0.5571590000000  0.4312560000000 1.0
C      1  0.4013790000000  0.5028750000000  0.5034650000000 1.0
C      1  0.4482540000000  0.4337580000000  0.4333250000000 1.0
C      1  0.5722110000000  0.4409250000000  0.5252040000000 1.0
C      1  0.4243590000000  0.5621740000000  0.5422620000000 1.0
C      1  0.5375990000000  0.5330940000000  0.3857300000000 1.0
C      1  0.5825440000000  0.4877860000000  0.5839280000000 1.0
C      1  0.5776220000000  0.5498410000000  0.5316750000000 1.0
C      1  0.5435820000000  0.5044840000000  0.6157400000000 1.0
C      1  0.4651400000000  0.4100760000000  0.4935030000000 1.0
C      1  0.4970300000000  0.4477610000000  0.4984230000000 1.0
C      1  0.3905140000000  0.4422950000000  0.4808010000000 1.0
C      1  0.5889550000000  0.4786930000000  0.5578600000000 1.0
C      1  0.4801590000000  0.5560200000000  0.5520230000000 1.0
C      1  0.4653900000000  0.5772680000000  0.5924560000000 1.0
C      1  0.5150520000000  0.6067270000000  0.5416030000000 1.0
C      1  0.5563130000000  0.4321810000000  0.5923550000000 1.0
C      1  0.5199260000000  0.5899090000000  0.4508410000000 1.0
C      1  0.4118340000000  0.5369430000000  0.5372220000000 1.0
C      1  0.5218020000000  0.4016240000000  0.4722070000000 1.0
C      1  0.4647360000000  0.5131090000000  0.5233330000000 1.0
C      1  0.5348420000000  0.5027600000000  0.4898220000000 1.0
C      1  0.5086890000000  0.5433270000000  0.4802490000000 1.0
C      1  0.4866370000000  0.4536700000000  0.5482400000000 1.0
C      1  0.4532880000000  0.5958300000000  0.4645340000000 1.0
C      1  0.4748250000000  0.5203220000000  0.6202470000000 1.0
C      1  0.4321390000000  0.4779960000000  0.5986850000000 1.0
C      1  0.5646600000000  0.5967890000000  0.5291400000000 1.0
C      1  0.4766490000000  0.5113710000000  0.4962290000000 1.0
C      1  0.5150320000000  0.5654000000000  0.4358040000000 1.0
C      1  0.5886980000000  0.4674510000000  0.4732070000000 1.0
C      1  0.5445100000000  0.5327140000000  0.6125700000000 1.0
C      1  0.5195970000000  0.5416910000000  0.4519620000000 1.0
C      1  0.6109210000000  0.4860750000000  0.5127750000000 1.0
C      1  0.6098180000000  0.5124040000000  0.4986650000000 1.0
C      1  0.3659180000000  0.4879840000000  0.4302910000000 1.0
C      1  0.5955610000000  0.5290810000000  0.5264550000000 1.0
C      1  0.4037380000000  0.4884530000000  0.5537860000000 1.0
C      1  0.4281420000000  0.4188390000000  0.5585050000000 1.0
C      1  0.4678510000000  0.4863550000000  0.4816700000000 1.0
C      1  0.4565380000000  0.4675970000000  0.6059970000000 1.0
C      1  0.5657340000000  0.4909510000000  0.6046530000000 1.0
C      1  0.4703630000000  0.5295600000000  0.5472170000000 1.0
C      1  0.5122700000000  0.4626990000000  0.5532800000000 1.0
C      1  0.5490170000000  0.4848210000000  0.4119300000000 1.0
C      1  0.4494030000000  0.4896950000000  0.5296420000000 1.0
C      1  0.5674790000000  0.5904670000000  0.4696860000000 1.0
C      1  0.5343670000000  0.4468040000000  0.5494360000000 1.0
C      1  0.5080110000000  0.4953430000000  0.4442670000000 1.0
C      1  0.4979540000000  0.4029180000000  0.5490670000000 1.0
C      1  0.5214490000000  0.5616250000000  0.5008850000000 1.0
C      1  0.4961740000000  0.5939410000000  0.5244180000000 1.0
C      1  0.5033310000000  0.4052090000000  0.5210090000000 1.0
C      1  0.4754530000000  0.5272880000000  0.3856450000000 1.0
C      1  0.5234560000000  0.5575540000000  0.3882540000000 1.0
C      1  0.4336010000000  0.5330600000000  0.4763560000000 1.0
C      1  0.5269030000000  0.5165060000000  0.4414010000000 1.0
C      1  0.4615270000000  0.5345040000000  0.4821500000000 1.0
C      1  0.4786730000000  0.5501820000000  0.4031910000000 1.0
C      1  0.4873010000000  0.4662470000000  0.4785290000000 1.0
C      1  0.4868330000000  0.5655150000000  0.5783610000000 1.0
C      1  0.5147800000000  0.5218470000000  0.5277440000000 1.0
C      1  0.5466630000000  0.5981140000000  0.4545200000000 1.0
C      1  0.3990390000000  0.4610260000000  0.5467270000000 1.0
C      1  0.5138400000000  0.4863000000000  0.5688580000000 1.0
C      1  0.6047680000000  0.4643920000000  0.4962520000000 1.0
C      1  0.5770310000000  0.5745330000000  0.5162980000000 1.0
C      1  0.4956520000000  0.5153390000000  0.3690230000000 1.0
C      1  0.4252940000000  0.4427980000000  0.4474150000000 1.0
C      1  0.4639240000000  0.4612420000000  0.5599990000000 1.0
C      1  0.4620000000000  0.5124270000000  0.5694010000000 1.0
C      1  0.5028620000000  0.4689020000000  0.4046670000000 1.0
C      1  0.5626730000000  0.4408220000000  0.4250830000000 1.0
C      1  0.4041820000000  0.5095590000000  0.5322050000000 1.0
C      1  0.5988870000000  0.4872050000000  0.4550200000000 1.0
C      1  0.4875490000000  0.4314760000000  0.5910870000000 1.0
C      1  0.5167160000000  0.4944990000000  0.6176510000000 1.0
C      1  0.4854490000000  0.4234890000000  0.5072930000000 1.0
C      1  0.4737940000000  0.5767940000000  0.5328120000000 1.0
C      1  0.5298900000000  0.5474400000000  0.5240730000000 1.0
C      1  0.5789560000000  0.4525660000000  0.5514870000000 1.0
C      1  0.5561330000000  0.4435680000000  0.5678150000000 1.0
C      1  0.4804100000000  0.4122990000000  0.5703130000000 1.0
C      1  0.4523100000000  0.4095270000000  0.5656520000000 1.0
C      1  0.5014010000000  0.5944140000000  0.4727080000000 1.0
C      1  0.4455540000000  0.5749530000000  0.5269610000000 1.0
C      1  0.5124460000000  0.5618000000000  0.5888650000000 1.0
C      1  0.5491960000000  0.5109450000000  0.4243070000000 1.0
C      1  0.4970440000000  0.5097280000000  0.6312910000000 1.0
C      1  0.4691840000000  0.4171090000000  0.4448440000000 1.0
C      1  0.5254490000000  0.4536030000000  0.5024830000000 1.0
C      1  0.4411350000000  0.4665910000000  0.5156720000000 1.0
END
