TITL C-612604-1799-1187 -0.0175301699146193 125000 -273.475117414091 0 0 46 (C1) n - 1
REM
REM in /home/nfs/bkarasulu/CARBON/AIRSS/Generating-Clusters/TERSOFF/Only-C1/FIRE-HFTN
REM
REM
REM
REM
REM
REM ./C.cell (11c1c37f851c82e70ff6c80c92926a4b)
REM AIRSS Version 0.9.1 bugfix July 2018 build 013d7b7c2542+ Fri, 06 Jul 2018 19:26:36 +0100
REM compiler GCC version 9.2.1 20190827 (Red Hat 9.2.1-1)
REM options -cpp -mtune=generic -march=x86-64 -g -O0 -fpre-include=/usr/include/finclude/math-vector-fortran.h
REM seed 1645618059 1763138357 1732539627 385727726 282187086 -1441723926 1367535668 -231062969 -218153743 -115867411 -1798099025 136834023 -971216113 -1801445236 -681417973 662661670 -384496341 1764176502 760265762 -1080100832 -609327451 -90650902 1558608880 -1787851377 -882153204 -1016270245 -2049063035 23984201 -1143259950 858952960 1334128276 1674256956 1582705554
REM
CELL 1.54180   50.00000   50.00000   50.00000   90.00000   90.00000   90.00000
LATT -1
SFAC C  
C      1  0.4811590000000  0.4688460000000  0.4656850000000 1.0
C      1  0.4554720000000  0.5494580000000  0.5523830000000 1.0
C      1  0.4410900000000  0.5470160000000  0.5301690000000 1.0
C      1  0.5220080000000  0.5365620000000  0.5752710000000 1.0
C      1  0.4536860000000  0.4653940000000  0.4585940000000 1.0
C      1  0.4914680000000  0.4517320000000  0.4855760000000 1.0
C      1  0.5123200000000  0.5046670000000  0.4769580000000 1.0
C      1  0.5594380000000  0.5341950000000  0.5395820000000 1.0
C      1  0.5044030000000  0.4969670000000  0.3858240000000 1.0
C      1  0.4956430000000  0.5030980000000  0.4100630000000 1.0
C      1  0.4522180000000  0.5420250000000  0.4579080000000 1.0
C      1  0.4949320000000  0.4927740000000  0.4580020000000 1.0
C      1  0.5268370000000  0.4616600000000  0.5502330000000 1.0
C      1  0.5614210000000  0.5185130000000  0.5165540000000 1.0
C      1  0.5527950000000  0.4805610000000  0.4900720000000 1.0
C      1  0.5463580000000  0.4446810000000  0.5587560000000 1.0
C      1  0.4863400000000  0.5082920000000  0.4357730000000 1.0
C      1  0.5409220000000  0.5041700000000  0.4767660000000 1.0
C      1  0.4815710000000  0.4487110000000  0.5372010000000 1.0
C      1  0.4681790000000  0.5290030000000  0.4410720000000 1.0
C      1  0.5315680000000  0.4840630000000  0.5337010000000 1.0
C      1  0.4537750000000  0.4523870000000  0.5393060000000 1.0
C      1  0.5545360000000  0.4897950000000  0.5178690000000 1.0
C      1  0.4463860000000  0.4561950000000  0.4339440000000 1.0
C      1  0.4912320000000  0.4437070000000  0.5110870000000 1.0
C      1  0.4400250000000  0.5446900000000  0.4814060000000 1.0
C      1  0.4339270000000  0.4645260000000  0.5261620000000 1.0
C      1  0.4909950000000  0.5005010000000  0.5861210000000 1.0
C      1  0.5091580000000  0.5002630000000  0.5265210000000 1.0
C      1  0.4992820000000  0.4583860000000  0.5573640000000 1.0
C      1  0.4232770000000  0.5081200000000  0.5076250000000 1.0
C      1  0.5599800000000  0.4562830000000  0.4791810000000 1.0
C      1  0.4346640000000  0.4714890000000  0.4783410000000 1.0
C      1  0.4282840000000  0.4808320000000  0.5040320000000 1.0
C      1  0.5553610000000  0.5266870000000  0.4891900000000 1.0
C      1  0.4742180000000  0.5428260000000  0.5700180000000 1.0
C      1  0.5618230000000  0.5506630000000  0.4770460000000 1.0
C      1  0.5129980000000  0.4908040000000  0.3619960000000 1.0
C      1  0.5674510000000  0.5738690000000  0.4655720000000 1.0
C      1  0.5650000000000  0.4327180000000  0.4692540000000 1.0
C      1  0.5012330000000  0.5099120000000  0.5026440000000 1.0
C      1  0.5729580000000  0.5967210000000  0.4542980000000 1.0
C      1  0.4332450000000  0.5343180000000  0.5065320000000 1.0
C      1  0.5442550000000  0.5396830000000  0.5608770000000 1.0
C      1  0.4957350000000  0.5273340000000  0.5791050000000 1.0
C      1  0.4903760000000  0.4749060000000  0.5783650000000 1.0
END
