TITL C-612602-9376-35 -0.861520736235153 125000 -1186.3802109146 0 0 193 (C1) n - 1
REM
REM in /home/nfs/bkarasulu/CARBON/AIRSS/Generating-Clusters/TERSOFF/Only-C1/FIRE-HFTN
REM
REM
REM
REM
REM
REM ./C.cell (11c1c37f851c82e70ff6c80c92926a4b)
REM AIRSS Version 0.9.1 bugfix July 2018 build 013d7b7c2542+ Fri, 06 Jul 2018 19:26:36 +0100
REM compiler GCC version 9.2.1 20190827 (Red Hat 9.2.1-1)
REM options -cpp -mtune=generic -march=x86-64 -g -O0 -fpre-include=/usr/include/finclude/math-vector-fortran.h
REM seed -563826072 -1922151876 2087549891 -413434650 -1127851343 -916422833 75116043 -1273934793 -1111305431 -1893425433 -427502440 932942344 -1786982079 -239965868 -2014184787 -1367454414 -913589122 -1360752478 -457483596 -1116603784 1863839361 914467458 2024929948 360975922 680780172 76546102 99456602 1287029392 -1403980319 1585018346 -411162214 -1540596946 -2081041662
REM
CELL 1.54180   50.00000   50.00000   50.00000   90.00000   90.00000   90.00000
LATT -1
SFAC C  
C      1  0.5260930000000  0.4321630000000  0.5582600000000 1.0
C      1  0.5599230000000  0.5263240000000  0.6192590000000 1.0
C      1  0.5506150000000  0.4382390000000  0.4282460000000 1.0
C      1  0.4143550000000  0.5109210000000  0.5235700000000 1.0
C      1  0.4368400000000  0.5536090000000  0.5815820000000 1.0
C      1  0.4778640000000  0.4893570000000  0.6160020000000 1.0
C      1  0.4848050000000  0.3951420000000  0.4919710000000 1.0
C      1  0.4808640000000  0.4951940000000  0.4881380000000 1.0
C      1  0.5401800000000  0.4912140000000  0.3711280000000 1.0
C      1  0.5539400000000  0.4989500000000  0.3941400000000 1.0
C      1  0.5062080000000  0.5770770000000  0.3916560000000 1.0
C      1  0.6180040000000  0.5506600000000  0.4292130000000 1.0
C      1  0.6058160000000  0.5292830000000  0.4179880000000 1.0
C      1  0.5127880000000  0.5344170000000  0.6115030000000 1.0
C      1  0.6517290000000  0.4674280000000  0.5304350000000 1.0
C      1  0.4794940000000  0.5703050000000  0.5946750000000 1.0
C      1  0.4355160000000  0.4430180000000  0.4317770000000 1.0
C      1  0.4685090000000  0.4392140000000  0.4821040000000 1.0
C      1  0.4849540000000  0.5308370000000  0.4059860000000 1.0
C      1  0.5788660000000  0.4245610000000  0.5496070000000 1.0
C      1  0.5062170000000  0.3700080000000  0.5565390000000 1.0
C      1  0.4233620000000  0.5027550000000  0.4406500000000 1.0
C      1  0.3796510000000  0.5047060000000  0.4552390000000 1.0
C      1  0.4733260000000  0.4270540000000  0.5277030000000 1.0
C      1  0.4842660000000  0.6057500000000  0.4725330000000 1.0
C      1  0.4858020000000  0.5110320000000  0.5714100000000 1.0
C      1  0.4967550000000  0.5979140000000  0.4473750000000 1.0
C      1  0.4549230000000  0.5824480000000  0.5484950000000 1.0
C      1  0.4643020000000  0.4337720000000  0.4336040000000 1.0
C      1  0.5601740000000  0.4017470000000  0.4717570000000 1.0
C      1  0.4560650000000  0.5685040000000  0.4376300000000 1.0
C      1  0.5701720000000  0.5956690000000  0.4609420000000 1.0
C      1  0.4809060000000  0.5370630000000  0.5600720000000 1.0
C      1  0.4568930000000  0.5393860000000  0.4967350000000 1.0
C      1  0.5547050000000  0.5690850000000  0.4998580000000 1.0
C      1  0.4635250000000  0.4029250000000  0.4346240000000 1.0
C      1  0.5308640000000  0.3773680000000  0.5670120000000 1.0
C      1  0.6157240000000  0.5674050000000  0.5027050000000 1.0
C      1  0.4307390000000  0.4914580000000  0.5344990000000 1.0
C      1  0.5600070000000  0.4805530000000  0.5722780000000 1.0
C      1  0.5851200000000  0.4644230000000  0.4541240000000 1.0
C      1  0.6122950000000  0.4992300000000  0.4915220000000 1.0
C      1  0.5311580000000  0.4295970000000  0.5013660000000 1.0
C      1  0.5765190000000  0.5864930000000  0.4871700000000 1.0
C      1  0.4020750000000  0.4269020000000  0.4724320000000 1.0
C      1  0.4941010000000  0.4797150000000  0.3855040000000 1.0
C      1  0.4254920000000  0.5786720000000  0.5422920000000 1.0
C      1  0.4421540000000  0.4467500000000  0.4850600000000 1.0
C      1  0.5255970000000  0.4522620000000  0.4827220000000 1.0
C      1  0.4913530000000  0.4900400000000  0.5151620000000 1.0
C      1  0.4336970000000  0.5337080000000  0.6282080000000 1.0
C      1  0.4248630000000  0.5649140000000  0.4736620000000 1.0
C      1  0.5349010000000  0.5429710000000  0.4084740000000 1.0
C      1  0.4971190000000  0.5096220000000  0.6182020000000 1.0
C      1  0.4740810000000  0.6032730000000  0.5426220000000 1.0
C      1  0.4068850000000  0.4115010000000  0.4987880000000 1.0
C      1  0.6156860000000  0.4995420000000  0.5212770000000 1.0
C      1  0.4387460000000  0.4542170000000  0.5932420000000 1.0
C      1  0.4841210000000  0.6239860000000  0.4940920000000 1.0
C      1  0.5725680000000  0.4180220000000  0.5772690000000 1.0
C      1  0.5819440000000  0.4194480000000  0.4783980000000 1.0
C      1  0.5415030000000  0.5791810000000  0.5674660000000 1.0
C      1  0.4418300000000  0.3807240000000  0.4718150000000 1.0
C      1  0.4795920000000  0.4763700000000  0.5377490000000 1.0
C      1  0.5122280000000  0.5019540000000  0.5756790000000 1.0
C      1  0.5380740000000  0.5431890000000  0.5239850000000 1.0
C      1  0.6150260000000  0.5528850000000  0.4776530000000 1.0
C      1  0.5279160000000  0.5652150000000  0.4842130000000 1.0
C      1  0.5342600000000  0.4043310000000  0.4851710000000 1.0
C      1  0.4666530000000  0.4004060000000  0.5382220000000 1.0
C      1  0.4742900000000  0.4850330000000  0.4336140000000 1.0
C      1  0.5437470000000  0.6059190000000  0.4605860000000 1.0
C      1  0.5525180000000  0.5546740000000  0.5806640000000 1.0
C      1  0.4835160000000  0.4412220000000  0.4118730000000 1.0
C      1  0.5777070000000  0.5726480000000  0.4460480000000 1.0
C      1  0.5291920000000  0.5555880000000  0.4580070000000 1.0
C      1  0.5045510000000  0.5993410000000  0.3759940000000 1.0
C      1  0.5455380000000  0.5929130000000  0.5180280000000 1.0
C      1  0.4956630000000  0.5352090000000  0.5363390000000 1.0
C      1  0.4918090000000  0.3969420000000  0.4293500000000 1.0
C      1  0.5160140000000  0.4912980000000  0.4562450000000 1.0
C      1  0.4816040000000  0.4415100000000  0.4581460000000 1.0
C      1  0.5981840000000  0.5181690000000  0.5344760000000 1.0
C      1  0.4200590000000  0.4874530000000  0.4640670000000 1.0
C      1  0.5623990000000  0.5196220000000  0.4769100000000 1.0
C      1  0.4184710000000  0.4938800000000  0.5783680000000 1.0
C      1  0.3922000000000  0.4789730000000  0.4650760000000 1.0
C      1  0.5304320000000  0.3967310000000  0.5887400000000 1.0
C      1  0.3839610000000  0.5808230000000  0.4743190000000 1.0
C      1  0.5575830000000  0.5869550000000  0.5442330000000 1.0
C      1  0.5388240000000  0.6134400000000  0.4965320000000 1.0
C      1  0.6054460000000  0.5629610000000  0.4515740000000 1.0
C      1  0.5355850000000  0.4249310000000  0.5301910000000 1.0
C      1  0.5044470000000  0.4212740000000  0.4171900000000 1.0
C      1  0.4766530000000  0.5613180000000  0.4943750000000 1.0
C      1  0.4236750000000  0.4255450000000  0.5540710000000 1.0
C      1  0.4878710000000  0.4902300000000  0.4597990000000 1.0
C      1  0.5126380000000  0.5224150000000  0.4156480000000 1.0
C      1  0.5795470000000  0.5501730000000  0.5663300000000 1.0
C      1  0.4829670000000  0.3815140000000  0.5505120000000 1.0
C      1  0.5885640000000  0.4597540000000  0.5026480000000 1.0
C      1  0.3969280000000  0.5380040000000  0.5672660000000 1.0
C      1  0.3998810000000  0.5194370000000  0.4378030000000 1.0
C      1  0.5432670000000  0.4218240000000  0.5809780000000 1.0
C      1  0.4393700000000  0.5334750000000  0.6536420000000 1.0
C      1  0.6188630000000  0.5241680000000  0.4790940000000 1.0
C      1  0.6338320000000  0.4861610000000  0.5388800000000 1.0
C      1  0.5247860000000  0.5972700000000  0.4393890000000 1.0
C      1  0.5560340000000  0.5531800000000  0.4475870000000 1.0
C      1  0.4462300000000  0.4315780000000  0.5755030000000 1.0
C      1  0.4141800000000  0.4656960000000  0.5811770000000 1.0
C      1  0.4394640000000  0.5477330000000  0.4254360000000 1.0
C      1  0.4095290000000  0.5467090000000  0.4351270000000 1.0
C      1  0.4462960000000  0.5780640000000  0.4625340000000 1.0
C      1  0.6046700000000  0.5740070000000  0.5268940000000 1.0
C      1  0.5035640000000  0.5523640000000  0.4461630000000 1.0
C      1  0.4844980000000  0.5722750000000  0.4379770000000 1.0
C      1  0.5587530000000  0.4070780000000  0.5355440000000 1.0
C      1  0.4744380000000  0.4280590000000  0.5749700000000 1.0
C      1  0.3812830000000  0.5319280000000  0.4964600000000 1.0
C      1  0.4352830000000  0.4974060000000  0.4845600000000 1.0
C      1  0.4856590000000  0.4695430000000  0.4102390000000 1.0
C      1  0.5181780000000  0.5940730000000  0.5711380000000 1.0
C      1  0.4668750000000  0.5840580000000  0.4802130000000 1.0
C      1  0.4990880000000  0.4351710000000  0.5667160000000 1.0
C      1  0.5929040000000  0.4358490000000  0.4572430000000 1.0
C      1  0.4585330000000  0.4707610000000  0.6082200000000 1.0
C      1  0.5634630000000  0.4130990000000  0.4248690000000 1.0
C      1  0.4639280000000  0.4536290000000  0.5325610000000 1.0
C      1  0.5626420000000  0.4647200000000  0.4332220000000 1.0
C      1  0.5245610000000  0.4993500000000  0.4307140000000 1.0
C      1  0.5410600000000  0.5385010000000  0.6028220000000 1.0
C      1  0.5761730000000  0.3881740000000  0.5753860000000 1.0
C      1  0.4290310000000  0.5475940000000  0.4952910000000 1.0
C      1  0.5591020000000  0.5264790000000  0.4023270000000 1.0
C      1  0.4014130000000  0.5649670000000  0.4573840000000 1.0
C      1  0.6148860000000  0.5124400000000  0.5777250000000 1.0
C      1  0.4080040000000  0.5186360000000  0.5866780000000 1.0
C      1  0.5788780000000  0.5234750000000  0.4233680000000 1.0
C      1  0.3911270000000  0.5889660000000  0.4999650000000 1.0
C      1  0.5356590000000  0.4896120000000  0.5741630000000 1.0
C      1  0.5831500000000  0.5326250000000  0.5169620000000 1.0
C      1  0.4584140000000  0.5118020000000  0.4902190000000 1.0
C      1  0.4155080000000  0.5596090000000  0.5617820000000 1.0
C      1  0.4970220000000  0.5580570000000  0.6108180000000 1.0
C      1  0.4879910000000  0.5550070000000  0.3899240000000 1.0
C      1  0.4561900000000  0.5246600000000  0.4145310000000 1.0
C      1  0.3963590000000  0.4561970000000  0.5075600000000 1.0
C      1  0.5951880000000  0.4775530000000  0.4805060000000 1.0
C      1  0.3680850000000  0.5205050000000  0.4758580000000 1.0
C      1  0.5042770000000  0.5636350000000  0.5007000000000 1.0
C      1  0.4250470000000  0.4550980000000  0.5051280000000 1.0
C      1  0.4408250000000  0.4964800000000  0.5601320000000 1.0
C      1  0.3883130000000  0.4547910000000  0.5350760000000 1.0
C      1  0.5123670000000  0.5551710000000  0.5262120000000 1.0
C      1  0.5142820000000  0.4845560000000  0.3686650000000 1.0
C      1  0.4207440000000  0.4223620000000  0.4494460000000 1.0
C      1  0.5562450000000  0.3818750000000  0.5531180000000 1.0
C      1  0.5618520000000  0.3939880000000  0.4443370000000 1.0
C      1  0.5232550000000  0.4348030000000  0.4344420000000 1.0
C      1  0.4389460000000  0.3980330000000  0.4496280000000 1.0
C      1  0.4466100000000  0.4953190000000  0.4236720000000 1.0
C      1  0.5057130000000  0.3833490000000  0.4500530000000 1.0
C      1  0.4756130000000  0.6195940000000  0.5195050000000 1.0
C      1  0.4688540000000  0.4919730000000  0.5602260000000 1.0
C      1  0.5857320000000  0.4329000000000  0.5027030000000 1.0
C      1  0.4042030000000  0.4483360000000  0.5585260000000 1.0
C      1  0.5667950000000  0.5262120000000  0.4494490000000 1.0
C      1  0.4219260000000  0.4072020000000  0.5241780000000 1.0
C      1  0.6315800000000  0.4941220000000  0.5662780000000 1.0
C      1  0.4346880000000  0.4670330000000  0.4153110000000 1.0
C      1  0.4807640000000  0.4225190000000  0.5007440000000 1.0
C      1  0.4076130000000  0.5322390000000  0.5068000000000 1.0
C      1  0.3888050000000  0.4537760000000  0.4790270000000 1.0
C      1  0.5313020000000  0.4809120000000  0.4787120000000 1.0
C      1  0.4276040000000  0.5350410000000  0.6013430000000 1.0
C      1  0.5479220000000  0.4857100000000  0.4195330000000 1.0
C      1  0.5073920000000  0.5108900000000  0.5243520000000 1.0
C      1  0.4642040000000  0.5609240000000  0.5705370000000 1.0
C      1  0.4456570000000  0.3910940000000  0.5207080000000 1.0
C      1  0.5093830000000  0.3905020000000  0.4774620000000 1.0
C      1  0.5699030000000  0.5409760000000  0.4946490000000 1.0
C      1  0.5448580000000  0.5020950000000  0.4920860000000 1.0
C      1  0.4576570000000  0.3830340000000  0.4951540000000 1.0
C      1  0.5963500000000  0.5268100000000  0.5619260000000 1.0
C      1  0.5344860000000  0.5151960000000  0.5158590000000 1.0
C      1  0.5105460000000  0.4430410000000  0.4587050000000 1.0
C      1  0.5273200000000  0.5734010000000  0.4119290000000 1.0
C      1  0.4386120000000  0.4657170000000  0.5261320000000 1.0
C      1  0.4962530000000  0.6046970000000  0.5601990000000 1.0
C      1  0.5834650000000  0.5726350000000  0.5462810000000 1.0
C      1  0.4080980000000  0.5883590000000  0.5215320000000 1.0
C      1  0.5347650000000  0.6395530000000  0.5017670000000 1.0
END
