TITL C-612605-9286-601 -368.407361407639 125000 -758.128000195779 0 0 127 (C1) n - 1
REM
REM in /home/nfs/bkarasulu/CARBON/AIRSS/Generating-Clusters/TERSOFF/Only-C1/FIRE-HFTN
REM
REM
REM
REM
REM
REM ./C.cell (11c1c37f851c82e70ff6c80c92926a4b)
REM AIRSS Version 0.9.1 bugfix July 2018 build 013d7b7c2542+ Fri, 06 Jul 2018 19:26:36 +0100
REM compiler GCC version 9.2.1 20190827 (Red Hat 9.2.1-1)
REM options -cpp -mtune=generic -march=x86-64 -g -O0 -fpre-include=/usr/include/finclude/math-vector-fortran.h
REM seed -1091416412 -967369307 -881095771 -69120419 721537131 -1939625704 -1832857479 1917446842 1980589629 -1733701624 332862951 -900741362 -558965235 -859823882 -1296777657 996727048 1606401591 -1796305654 -933846001 48644959 1130134085 -1797055209 -549443281 1957390863 -1836124062 1809270176 -1873066499 1992404378 -453729717 -416323396 598822270 -1601770380 399625312
REM
CELL 1.54180   50.00000   50.00000   50.00000   90.00000   90.00000   90.00000
LATT -1
SFAC C  
C      1  0.5785940000000  0.4321940000000  0.5427040000000 1.0
C      1  0.4348180000000  0.4407420000000  0.4495980000000 1.0
C      1  0.5769350000000  0.4210150000000  0.5176540000000 1.0
C      1  0.5186870000000  0.4851250000000  0.3937350000000 1.0
C      1  0.4126660000000  0.5468440000000  0.5162180000000 1.0
C      1  0.5188540000000  0.4213630000000  0.5530040000000 1.0
C      1  0.4372610000000  0.4227910000000  0.4730770000000 1.0
C      1  0.4820630000000  0.4462130000000  0.4837450000000 1.0
C      1  0.5480510000000  0.5497500000000  0.5075170000000 1.0
C      1  0.4931660000000  0.4585680000000  0.5335890000000 1.0
C      1  0.4637990000000  0.5730260000000  0.5249990000000 1.0
C      1  0.5326340000000  0.4707690000000  0.5739870000000 1.0
C      1  0.4370910000000  0.5342390000000  0.5856800000000 1.0
C      1  0.4949430000000  0.4200690000000  0.4769280000000 1.0
C      1  0.4963640000000  0.5175780000000  0.5575980000000 1.0
C      1  0.4751350000000  0.4356470000000  0.5330510000000 1.0
C      1  0.4566100000000  0.5424860000000  0.4519060000000 1.0
C      1  0.5494420000000  0.5061100000000  0.4615040000000 1.0
C      1  0.4557810000000  0.5114740000000  0.5344220000000 1.0
C      1  0.4581000000000  0.5017840000000  0.6216550000000 1.0
C      1  0.4934500000000  0.4998800000000  0.3927560000000 1.0
C      1  0.5321320000000  0.5075790000000  0.5312320000000 1.0
C      1  0.4762670000000  0.5590400000000  0.5459330000000 1.0
C      1  0.4152770000000  0.4974900000000  0.4940040000000 1.0
C      1  0.5613420000000  0.5353510000000  0.4018350000000 1.0
C      1  0.4910320000000  0.4944290000000  0.5742800000000 1.0
C      1  0.4342240000000  0.6247110000000  0.4840510000000 1.0
C      1  0.5125470000000  0.4947510000000  0.5910010000000 1.0
C      1  0.5089780000000  0.3995290000000  0.5399570000000 1.0
C      1  0.5561740000000  0.4980360000000  0.5225110000000 1.0
C      1  0.5402070000000  0.5420130000000  0.4176570000000 1.0
C      1  0.5139490000000  0.5211540000000  0.4918360000000 1.0
C      1  0.5649610000000  0.4737860000000  0.4050680000000 1.0
C      1  0.6237910000000  0.5523660000000  0.5184440000000 1.0
C      1  0.4715600000000  0.4812880000000  0.3934090000000 1.0
C      1  0.4402150000000  0.4965490000000  0.5539630000000 1.0
C      1  0.4488150000000  0.4718510000000  0.5643480000000 1.0
C      1  0.4181230000000  0.4413700000000  0.5391080000000 1.0
C      1  0.4922210000000  0.5847630000000  0.4738300000000 1.0
C      1  0.4220990000000  0.5505800000000  0.5663520000000 1.0
C      1  0.5711300000000  0.4992390000000  0.5788810000000 1.0
C      1  0.5559360000000  0.4724220000000  0.5117280000000 1.0
C      1  0.5375870000000  0.4671660000000  0.4055670000000 1.0
C      1  0.4570010000000  0.4694860000000  0.4150800000000 1.0
C      1  0.5096370000000  0.5755850000000  0.4156390000000 1.0
C      1  0.5700030000000  0.4968370000000  0.4473640000000 1.0
C      1  0.4169780000000  0.5111640000000  0.4689640000000 1.0
C      1  0.5420790000000  0.5711940000000  0.5473410000000 1.0
C      1  0.5182930000000  0.5830810000000  0.5574140000000 1.0
C      1  0.4742840000000  0.5306080000000  0.5455100000000 1.0
C      1  0.4233750000000  0.4709740000000  0.5026360000000 1.0
C      1  0.4853900000000  0.5572380000000  0.4122140000000 1.0
C      1  0.5231060000000  0.5136730000000  0.4668470000000 1.0
C      1  0.4286710000000  0.5087400000000  0.5768920000000 1.0
C      1  0.4953120000000  0.5687520000000  0.5658290000000 1.0
C      1  0.4606740000000  0.4298550000000  0.5568940000000 1.0
C      1  0.4597840000000  0.4903500000000  0.4853920000000 1.0
C      1  0.5302230000000  0.4462310000000  0.4243440000000 1.0
C      1  0.4087590000000  0.4647970000000  0.5265670000000 1.0
C      1  0.5538120000000  0.5772990000000  0.4489320000000 1.0
C      1  0.6010280000000  0.5203920000000  0.4779700000000 1.0
C      1  0.4996800000000  0.4646260000000  0.4706620000000 1.0
C      1  0.5120140000000  0.5026190000000  0.5127190000000 1.0
C      1  0.5236780000000  0.4151310000000  0.4819070000000 1.0
C      1  0.4672170000000  0.5636930000000  0.4354180000000 1.0
C      1  0.4481330000000  0.4921160000000  0.4310000000000 1.0
C      1  0.4379090000000  0.4461170000000  0.5593540000000 1.0
C      1  0.4563750000000  0.4435560000000  0.4289380000000 1.0
C      1  0.4772280000000  0.5226790000000  0.4530990000000 1.0
C      1  0.4091290000000  0.4892190000000  0.4508580000000 1.0
C      1  0.4073820000000  0.5387830000000  0.5430030000000 1.0
C      1  0.3937650000000  0.5131890000000  0.5444680000000 1.0
C      1  0.6020240000000  0.4995930000000  0.5587040000000 1.0
C      1  0.6002440000000  0.4806750000000  0.5123830000000 1.0
C      1  0.3941870000000  0.4865840000000  0.5383970000000 1.0
C      1  0.4834500000000  0.4095530000000  0.4529590000000 1.0
C      1  0.5383980000000  0.4548950000000  0.5243010000000 1.0
C      1  0.4631630000000  0.4775950000000  0.6101720000000 1.0
C      1  0.5796660000000  0.4582230000000  0.5545740000000 1.0
C      1  0.4766640000000  0.5850160000000  0.4518880000000 1.0
C      1  0.4637940000000  0.5253820000000  0.6068050000000 1.0
C      1  0.4874390000000  0.4780980000000  0.4501430000000 1.0
C      1  0.5970230000000  0.5260780000000  0.5488170000000 1.0
C      1  0.5724870000000  0.4344970000000  0.4921170000000 1.0
C      1  0.4150090000000  0.4622410000000  0.4490120000000 1.0
C      1  0.4915390000000  0.4842540000000  0.5195710000000 1.0
C      1  0.4990250000000  0.5529550000000  0.5896430000000 1.0
C      1  0.5051620000000  0.4336790000000  0.4188690000000 1.0
C      1  0.4694790000000  0.4136750000000  0.5142200000000 1.0
C      1  0.5769190000000  0.5607720000000  0.4531770000000 1.0
C      1  0.5117410000000  0.5745670000000  0.4910090000000 1.0
C      1  0.5170850000000  0.5262810000000  0.4219190000000 1.0
C      1  0.5199040000000  0.4514110000000  0.5476030000000 1.0
C      1  0.5492150000000  0.5763200000000  0.5193740000000 1.0
C      1  0.4328870000000  0.5372380000000  0.4698000000000 1.0
C      1  0.4945950000000  0.5287360000000  0.4031650000000 1.0
C      1  0.4470230000000  0.5755950000000  0.5022600000000 1.0
C      1  0.5359190000000  0.5691610000000  0.4272770000000 1.0
C      1  0.5798890000000  0.4631870000000  0.4985870000000 1.0
C      1  0.4505530000000  0.4634360000000  0.4907440000000 1.0
C      1  0.4891480000000  0.3940790000000  0.5217920000000 1.0
C      1  0.4800920000000  0.4265930000000  0.4302240000000 1.0
C      1  0.5271380000000  0.4646290000000  0.4682950000000 1.0
C      1  0.6087210000000  0.5301540000000  0.5237280000000 1.0
C      1  0.5483710000000  0.5952710000000  0.4707920000000 1.0
C      1  0.4431280000000  0.4152640000000  0.5011590000000 1.0
C      1  0.5362210000000  0.5913480000000  0.4967650000000 1.0
C      1  0.4222330000000  0.4195550000000  0.5207270000000 1.0
C      1  0.5714070000000  0.5308170000000  0.5631600000000 1.0
C      1  0.5788350000000  0.4856250000000  0.4247810000000 1.0
C      1  0.5463950000000  0.5436260000000  0.5577660000000 1.0
C      1  0.5411690000000  0.4458080000000  0.4519650000000 1.0
C      1  0.4303210000000  0.5533030000000  0.4948370000000 1.0
C      1  0.5924590000000  0.5413380000000  0.4633020000000 1.0
C      1  0.4701080000000  0.4764740000000  0.5825050000000 1.0
C      1  0.5499620000000  0.4268660000000  0.4732900000000 1.0
C      1  0.5608690000000  0.4736930000000  0.5723270000000 1.0
C      1  0.6050140000000  0.5091510000000  0.5037540000000 1.0
C      1  0.5055050000000  0.5216200000000  0.4470780000000 1.0
C      1  0.5208150000000  0.5476010000000  0.4973110000000 1.0
C      1  0.5992650000000  0.4767260000000  0.5422670000000 1.0
C      1  0.4415040000000  0.6008910000000  0.4917340000000 1.0
C      1  0.4926240000000  0.5283730000000  0.6012900000000 1.0
C      1  0.4334250000000  0.5114430000000  0.4179450000000 1.0
C      1  0.4650970000000  0.4961600000000  0.4559920000000 1.0
C      1  0.5245940000000  0.5247520000000  0.5521580000000 1.0
C      1  0.4671600000000  0.4980290000000  0.5119860000000 1.0
END
