TITL C-612601-4209-1345 -0.0256915829257053 125000 -155.205821255576 0 0 27 (C1) n - 1
REM
REM in /home/nfs/bkarasulu/CARBON/AIRSS/Generating-Clusters/TERSOFF/Only-C1/FIRE-HFTN
REM
REM
REM
REM
REM
REM ./C.cell (11c1c37f851c82e70ff6c80c92926a4b)
REM AIRSS Version 0.9.1 bugfix July 2018 build 013d7b7c2542+ Fri, 06 Jul 2018 19:26:36 +0100
REM compiler GCC version 9.2.1 20190827 (Red Hat 9.2.1-1)
REM options -cpp -mtune=generic -march=x86-64 -g -O0 -fpre-include=/usr/include/finclude/math-vector-fortran.h
REM seed -499552197 -988782349 1447077277 -2127909847 -9667134 -1363331270 -920474536 -2112711088 1620405035 -880335777 -227943545 1667559643 -56038434 748462695 -234418278 -2121815729 902050893 1477410473 1683606850 -1697273608 -1926682542 647906242 284449033 7171456 -2117697071 307637256 641492693 1177941721 1209141319 -1073329314 -2001109139 264978971 1347710922
REM
CELL 1.54180   50.00000   50.00000   50.00000   90.00000   90.00000   90.00000
LATT -1
SFAC C  
C      1  0.3921020000000  0.5467000000000  0.4790990000000 1.0
C      1  0.4814040000000  0.5148170000000  0.5039360000000 1.0
C      1  0.4815430000000  0.5097150000000  0.4552060000000 1.0
C      1  0.5419820000000  0.4502980000000  0.5622270000000 1.0
C      1  0.5611710000000  0.4958070000000  0.4923440000000 1.0
C      1  0.4414690000000  0.5100050000000  0.4218520000000 1.0
C      1  0.5887210000000  0.4196520000000  0.6081630000000 1.0
C      1  0.4943730000000  0.5176000000000  0.4787580000000 1.0
C      1  0.5995110000000  0.4074420000000  0.5634390000000 1.0
C      1  0.5949620000000  0.4612790000000  0.5130820000000 1.0
C      1  0.4918860000000  0.4972250000000  0.5229380000000 1.0
C      1  0.5240330000000  0.5554630000000  0.4708110000000 1.0
C      1  0.4161920000000  0.5180260000000  0.4197400000000 1.0
C      1  0.5060760000000  0.4809320000000  0.5382630000000 1.0
C      1  0.3860650000000  0.5404780000000  0.4539140000000 1.0
C      1  0.3951810000000  0.5295150000000  0.4314010000000 1.0
C      1  0.4582630000000  0.5294630000000  0.5095580000000 1.0
C      1  0.5618760000000  0.4357660000000  0.5719580000000 1.0
C      1  0.4339200000000  0.5399870000000  0.5086600000000 1.0
C      1  0.5205420000000  0.5286190000000  0.4776580000000 1.0
C      1  0.5836050000000  0.4207890000000  0.5812880000000 1.0
C      1  0.5266590000000  0.5805820000000  0.4643840000000 1.0
C      1  0.5425950000000  0.5125500000000  0.4836090000000 1.0
C      1  0.4642710000000  0.5072590000000  0.4352130000000 1.0
C      1  0.5783070000000  0.4784290000000  0.5026850000000 1.0
C      1  0.4101260000000  0.5462970000000  0.4986620000000 1.0
C      1  0.5231620000000  0.4653070000000  0.5511500000000 1.0
END
