TITL C-612607-4507-433 -0.000262559598301633 125000 -615.802492485656 0 0 103 (C1) n - 1
REM
REM in /home/nfs/bkarasulu/CARBON/AIRSS/Generating-Clusters/TERSOFF/Only-C1/FIRE-HFTN
REM
REM
REM
REM
REM
REM ./C.cell (11c1c37f851c82e70ff6c80c92926a4b)
REM AIRSS Version 0.9.1 bugfix July 2018 build 013d7b7c2542+ Fri, 06 Jul 2018 19:26:36 +0100
REM compiler GCC version 9.2.1 20190827 (Red Hat 9.2.1-1)
REM options -cpp -mtune=generic -march=x86-64 -g -O0 -fpre-include=/usr/include/finclude/math-vector-fortran.h
REM seed 1783298456 232587059 1155485144 -387014318 1161062988 -2107102253 -1159104158 2013472825 2099525245 -1025675968 -1523904327 -2094617119 -1744582421 1341003097 1762034324 -1079155105 -1837284907 -113548300 -1190954497 1172272470 243322604 -2128977407 1004860446 -1967418789 1105178733 -1174867826 -237979956 1499612091 1643809732 -867086496 -91955580 -1356924084 507283284
REM
CELL 1.54180   50.00000   50.00000   50.00000   90.00000   90.00000   90.00000
LATT -1
SFAC C  
C      1  0.4690850000000  0.5403520000000  0.5094390000000 1.0
C      1  0.4958950000000  0.5835220000000  0.4955780000000 1.0
C      1  0.5262890000000  0.4062630000000  0.4969800000000 1.0
C      1  0.4779370000000  0.4591460000000  0.4256510000000 1.0
C      1  0.4978940000000  0.5109070000000  0.4857320000000 1.0
C      1  0.4586190000000  0.6166860000000  0.4992370000000 1.0
C      1  0.5575130000000  0.5612480000000  0.5354340000000 1.0
C      1  0.4718340000000  0.4118520000000  0.4860900000000 1.0
C      1  0.5251030000000  0.5194740000000  0.4841430000000 1.0
C      1  0.4415340000000  0.5417920000000  0.5162820000000 1.0
C      1  0.5714370000000  0.5515310000000  0.5141260000000 1.0
C      1  0.5353160000000  0.4044820000000  0.5235290000000 1.0
C      1  0.5818140000000  0.4828690000000  0.4965260000000 1.0
C      1  0.5241780000000  0.5117710000000  0.5802250000000 1.0
C      1  0.4621430000000  0.5385900000000  0.5859680000000 1.0
C      1  0.4896110000000  0.4454620000000  0.5353380000000 1.0
C      1  0.4512510000000  0.4158360000000  0.5062670000000 1.0
C      1  0.4688170000000  0.4998630000000  0.5332510000000 1.0
C      1  0.4796420000000  0.5036590000000  0.5598000000000 1.0
C      1  0.4480170000000  0.4870280000000  0.5183000000000 1.0
C      1  0.5385380000000  0.4118410000000  0.4504010000000 1.0
C      1  0.5606010000000  0.5811210000000  0.4628390000000 1.0
C      1  0.5051580000000  0.6264100000000  0.5128360000000 1.0
C      1  0.5426270000000  0.5407760000000  0.4461420000000 1.0
C      1  0.5391580000000  0.5991900000000  0.4583710000000 1.0
C      1  0.4835210000000  0.4430280000000  0.4486300000000 1.0
C      1  0.4944780000000  0.5231110000000  0.4378830000000 1.0
C      1  0.5059190000000  0.4602830000000  0.4933020000000 1.0
C      1  0.5159520000000  0.5425150000000  0.4353670000000 1.0
C      1  0.5384410000000  0.4260340000000  0.4275800000000 1.0
C      1  0.4833720000000  0.6053950000000  0.5127460000000 1.0
C      1  0.3977940000000  0.4552990000000  0.4936450000000 1.0
C      1  0.5614080000000  0.5528260000000  0.4647460000000 1.0
C      1  0.5141070000000  0.5884300000000  0.4483650000000 1.0
C      1  0.4517960000000  0.4731250000000  0.4728640000000 1.0
C      1  0.5258220000000  0.5380670000000  0.5075100000000 1.0
C      1  0.5326450000000  0.4947050000000  0.5248810000000 1.0
C      1  0.5523540000000  0.4943400000000  0.4446550000000 1.0
C      1  0.5252930000000  0.6321860000000  0.4959160000000 1.0
C      1  0.4223840000000  0.5206210000000  0.5563900000000 1.0
C      1  0.4884040000000  0.4828650000000  0.4134170000000 1.0
C      1  0.4251000000000  0.4674020000000  0.5584230000000 1.0
C      1  0.5112230000000  0.4364940000000  0.5488320000000 1.0
C      1  0.4310510000000  0.4594140000000  0.4595430000000 1.0
C      1  0.4053380000000  0.4327270000000  0.5089220000000 1.0
C      1  0.5144290000000  0.5639680000000  0.5044550000000 1.0
C      1  0.5799350000000  0.4530370000000  0.5376580000000 1.0
C      1  0.4323860000000  0.4443660000000  0.5458490000000 1.0
C      1  0.5896630000000  0.4655390000000  0.4508850000000 1.0
C      1  0.4982980000000  0.4031470000000  0.4925140000000 1.0
C      1  0.4937630000000  0.5877390000000  0.4678120000000 1.0
C      1  0.4492890000000  0.5165400000000  0.4222750000000 1.0
C      1  0.4622460000000  0.4928210000000  0.6049720000000 1.0
C      1  0.5803270000000  0.4483300000000  0.4300930000000 1.0
C      1  0.4197670000000  0.4939310000000  0.5613500000000 1.0
C      1  0.4592010000000  0.4981350000000  0.4621000000000 1.0
C      1  0.5066710000000  0.5139040000000  0.5579800000000 1.0
C      1  0.4863370000000  0.5156880000000  0.5138990000000 1.0
C      1  0.5728220000000  0.5384650000000  0.4884370000000 1.0
C      1  0.5354740000000  0.5665980000000  0.5505130000000 1.0
C      1  0.5614610000000  0.4362690000000  0.5478120000000 1.0
C      1  0.4774570000000  0.5096900000000  0.4176000000000 1.0
C      1  0.5820170000000  0.4597130000000  0.4782980000000 1.0
C      1  0.5585680000000  0.4948070000000  0.5358130000000 1.0
C      1  0.5712020000000  0.5087350000000  0.4865800000000 1.0
C      1  0.4758780000000  0.5946500000000  0.5392140000000 1.0
C      1  0.4591230000000  0.4680150000000  0.5001900000000 1.0
C      1  0.4392710000000  0.5151460000000  0.4497570000000 1.0
C      1  0.5784560000000  0.4780380000000  0.5246970000000 1.0
C      1  0.5377140000000  0.6226380000000  0.4741020000000 1.0
C      1  0.4810630000000  0.5717740000000  0.5547760000000 1.0
C      1  0.5654530000000  0.4363670000000  0.4828490000000 1.0
C      1  0.5369440000000  0.4639330000000  0.6024030000000 1.0
C      1  0.4376220000000  0.5426630000000  0.5450320000000 1.0
C      1  0.5325790000000  0.5335070000000  0.5945240000000 1.0
C      1  0.4845420000000  0.5103590000000  0.4621130000000 1.0
C      1  0.5029610000000  0.5764290000000  0.4020200000000 1.0
C      1  0.5362990000000  0.4244080000000  0.5434620000000 1.0
C      1  0.4830530000000  0.4556950000000  0.5096820000000 1.0
C      1  0.5416300000000  0.4420760000000  0.6158150000000 1.0
C      1  0.5093310000000  0.5671750000000  0.5581890000000 1.0
C      1  0.5031720000000  0.4531760000000  0.4664430000000 1.0
C      1  0.5105180000000  0.5695690000000  0.4272680000000 1.0
C      1  0.5444900000000  0.4171500000000  0.4775090000000 1.0
C      1  0.5812680000000  0.4917720000000  0.4426900000000 1.0
C      1  0.4248970000000  0.5253070000000  0.4990010000000 1.0
C      1  0.5461020000000  0.5052170000000  0.4709270000000 1.0
C      1  0.5396760000000  0.4761070000000  0.4259130000000 1.0
C      1  0.5259380000000  0.4742540000000  0.5066310000000 1.0
C      1  0.4525100000000  0.4057500000000  0.4415310000000 1.0
C      1  0.4670870000000  0.5106790000000  0.5843200000000 1.0
C      1  0.4056550000000  0.4539220000000  0.4665510000000 1.0
C      1  0.4591430000000  0.4748980000000  0.6236320000000 1.0
C      1  0.4238970000000  0.5280470000000  0.4701100000000 1.0
C      1  0.5167220000000  0.4820810000000  0.4109090000000 1.0
C      1  0.4303180000000  0.4284320000000  0.5219810000000 1.0
C      1  0.4685420000000  0.4202690000000  0.4583860000000 1.0
C      1  0.5142230000000  0.5186710000000  0.5290530000000 1.0
C      1  0.4226550000000  0.4984010000000  0.5094470000000 1.0
C      1  0.5524860000000  0.4499670000000  0.4231050000000 1.0
C      1  0.4589340000000  0.5541920000000  0.5622200000000 1.0
C      1  0.5314750000000  0.4862230000000  0.5891660000000 1.0
C      1  0.4006470000000  0.4810810000000  0.5053840000000 1.0
END
