TITL C-612606-7351-406 9.2542144136271e-06 125000 -749.778887888937 0 0 123 (C1) n - 1
REM
REM in /home/nfs/bkarasulu/CARBON/AIRSS/Generating-Clusters/TERSOFF/Only-C1/FIRE-HFTN
REM
REM
REM
REM
REM
REM ./C.cell (11c1c37f851c82e70ff6c80c92926a4b)
REM AIRSS Version 0.9.1 bugfix July 2018 build 013d7b7c2542+ Fri, 06 Jul 2018 19:26:36 +0100
REM compiler GCC version 9.2.1 20190827 (Red Hat 9.2.1-1)
REM options -cpp -mtune=generic -march=x86-64 -g -O0 -fpre-include=/usr/include/finclude/math-vector-fortran.h
REM seed -629298338 -465322705 813230737 863067660 1971411388 1408302061 1321845221 -1402702561 1311943879 -1876591406 1862549842 1220914169 -262226125 615583724 1663413445 338723489 -1019097087 1970842649 859169488 -2056975474 552482590 1744580185 -1723381879 -1383231744 613548300 -1716447299 -679799665 -334641983 -1752716623 682742520 -1586631523 2139277779 727759619
REM
CELL 1.54180   50.00000   50.00000   50.00000   90.00000   90.00000   90.00000
LATT -1
SFAC C  
C      1  0.5232070000000  0.4941080000000  0.5869860000000 1.0
C      1  0.5243360000000  0.4682310000000  0.4482110000000 1.0
C      1  0.5727030000000  0.5455030000000  0.5768130000000 1.0
C      1  0.4434680000000  0.5266730000000  0.4548710000000 1.0
C      1  0.5499450000000  0.4093060000000  0.4796880000000 1.0
C      1  0.5966180000000  0.4118750000000  0.4820390000000 1.0
C      1  0.5649910000000  0.4921940000000  0.5672910000000 1.0
C      1  0.4730100000000  0.5043980000000  0.5512410000000 1.0
C      1  0.5139950000000  0.4154790000000  0.5465900000000 1.0
C      1  0.4379240000000  0.5256600000000  0.5889880000000 1.0
C      1  0.5136580000000  0.5008360000000  0.5216910000000 1.0
C      1  0.4562160000000  0.5598180000000  0.5262600000000 1.0
C      1  0.5399050000000  0.5171130000000  0.5963390000000 1.0
C      1  0.4318580000000  0.5452750000000  0.5184000000000 1.0
C      1  0.5585910000000  0.4759450000000  0.3975890000000 1.0
C      1  0.4299390000000  0.4441090000000  0.4297040000000 1.0
C      1  0.4475940000000  0.5543830000000  0.4494560000000 1.0
C      1  0.4535130000000  0.4357210000000  0.5621170000000 1.0
C      1  0.5144390000000  0.4193070000000  0.5744110000000 1.0
C      1  0.5584310000000  0.4946300000000  0.4189670000000 1.0
C      1  0.5439380000000  0.5325890000000  0.5334700000000 1.0
C      1  0.5380660000000  0.5430620000000  0.4769540000000 1.0
C      1  0.4988480000000  0.4969020000000  0.6023410000000 1.0
C      1  0.3471130000000  0.5517760000000  0.4772160000000 1.0
C      1  0.5660530000000  0.4204620000000  0.5423910000000 1.0
C      1  0.4415530000000  0.5005370000000  0.5977290000000 1.0
C      1  0.5748180000000  0.4209740000000  0.4379250000000 1.0
C      1  0.5255400000000  0.5623030000000  0.5886070000000 1.0
C      1  0.5681380000000  0.4316300000000  0.4140720000000 1.0
C      1  0.5391630000000  0.4151620000000  0.5318970000000 1.0
C      1  0.4879510000000  0.4112690000000  0.5341590000000 1.0
C      1  0.5747130000000  0.4435360000000  0.5564980000000 1.0
C      1  0.4764600000000  0.5726680000000  0.5721270000000 1.0
C      1  0.4473790000000  0.4538470000000  0.5808570000000 1.0
C      1  0.4102270000000  0.4271040000000  0.4285700000000 1.0
C      1  0.5449060000000  0.5796050000000  0.5490370000000 1.0
C      1  0.5138380000000  0.5284960000000  0.5335200000000 1.0
C      1  0.5684240000000  0.5316110000000  0.5231320000000 1.0
C      1  0.5515120000000  0.5650540000000  0.5737580000000 1.0
C      1  0.4866290000000  0.3918830000000  0.5135530000000 1.0
C      1  0.4982960000000  0.5242940000000  0.6119640000000 1.0
C      1  0.4943600000000  0.4956410000000  0.5021710000000 1.0
C      1  0.4688620000000  0.4543200000000  0.4974880000000 1.0
C      1  0.5990410000000  0.5527690000000  0.5761920000000 1.0
C      1  0.5450430000000  0.6276840000000  0.4627290000000 1.0
C      1  0.4724920000000  0.4798730000000  0.5092740000000 1.0
C      1  0.5596470000000  0.5951030000000  0.5313340000000 1.0
C      1  0.5049800000000  0.5573270000000  0.5258790000000 1.0
C      1  0.4991740000000  0.5085250000000  0.4780830000000 1.0
C      1  0.5521050000000  0.4482820000000  0.3969240000000 1.0
C      1  0.4814780000000  0.4657640000000  0.3785950000000 1.0
C      1  0.4599670000000  0.5078700000000  0.4416150000000 1.0
C      1  0.4427750000000  0.5636910000000  0.4240700000000 1.0
C      1  0.5292390000000  0.4814540000000  0.5352580000000 1.0
C      1  0.3871730000000  0.5098970000000  0.5237000000000 1.0
C      1  0.4757340000000  0.4572880000000  0.4472470000000 1.0
C      1  0.5872840000000  0.4030700000000  0.5335170000000 1.0
C      1  0.4222410000000  0.5332360000000  0.5438820000000 1.0
C      1  0.4244110000000  0.4443580000000  0.5054730000000 1.0
C      1  0.5162290000000  0.5760720000000  0.5449990000000 1.0
C      1  0.5385740000000  0.4099230000000  0.5039430000000 1.0
C      1  0.4165840000000  0.5350460000000  0.4960460000000 1.0
C      1  0.4744600000000  0.4844430000000  0.3986910000000 1.0
C      1  0.5468360000000  0.4841390000000  0.4426350000000 1.0
C      1  0.5186780000000  0.6143860000000  0.4195260000000 1.0
C      1  0.4369250000000  0.5424230000000  0.5665450000000 1.0
C      1  0.5458800000000  0.5663960000000  0.4377820000000 1.0
C      1  0.5046750000000  0.4516820000000  0.3759060000000 1.0
C      1  0.4807620000000  0.5627610000000  0.5112600000000 1.0
C      1  0.4201980000000  0.4896000000000  0.4790330000000 1.0
C      1  0.4635380000000  0.4271100000000  0.5372270000000 1.0
C      1  0.4927000000000  0.5226180000000  0.5546620000000 1.0
C      1  0.5255390000000  0.4384930000000  0.3900430000000 1.0
C      1  0.3670360000000  0.5405890000000  0.4897480000000 1.0
C      1  0.5055650000000  0.5689770000000  0.3974810000000 1.0
C      1  0.5561530000000  0.6214470000000  0.4860920000000 1.0
C      1  0.5739620000000  0.4136660000000  0.4652410000000 1.0
C      1  0.5621280000000  0.6097170000000  0.5092180000000 1.0
C      1  0.5806010000000  0.4690130000000  0.5634200000000 1.0
C      1  0.4300720000000  0.4874750000000  0.5372600000000 1.0
C      1  0.5222540000000  0.5389020000000  0.6042090000000 1.0
C      1  0.5590970000000  0.5478710000000  0.4232590000000 1.0
C      1  0.4825800000000  0.3940000000000  0.4871200000000 1.0
C      1  0.4239860000000  0.6140480000000  0.4822650000000 1.0
C      1  0.4941580000000  0.4498440000000  0.6103680000000 1.0
C      1  0.5056810000000  0.5758730000000  0.4693530000000 1.0
C      1  0.4270940000000  0.5172900000000  0.4761470000000 1.0
C      1  0.4565110000000  0.5728300000000  0.4694050000000 1.0
C      1  0.5068430000000  0.4303030000000  0.5973980000000 1.0
C      1  0.3887540000000  0.5290360000000  0.5024880000000 1.0
C      1  0.4820470000000  0.4748850000000  0.6062540000000 1.0
C      1  0.5421210000000  0.4635800000000  0.5191120000000 1.0
C      1  0.5182990000000  0.4193950000000  0.4345870000000 1.0
C      1  0.4540510000000  0.4876070000000  0.4201410000000 1.0
C      1  0.5043800000000  0.5735400000000  0.5718700000000 1.0
C      1  0.5248750000000  0.4402100000000  0.4504240000000 1.0
C      1  0.5072950000000  0.5424250000000  0.3982140000000 1.0
C      1  0.4784590000000  0.4150000000000  0.4710730000000 1.0
C      1  0.5168980000000  0.4178720000000  0.4077030000000 1.0
C      1  0.4551920000000  0.4758870000000  0.5966830000000 1.0
C      1  0.5361730000000  0.4855110000000  0.5626590000000 1.0
C      1  0.5918960000000  0.5288970000000  0.5121170000000 1.0
C      1  0.4510650000000  0.4382190000000  0.5135500000000 1.0
C      1  0.4160090000000  0.4653740000000  0.4902500000000 1.0
C      1  0.4563930000000  0.5612820000000  0.5561970000000 1.0
C      1  0.5092650000000  0.5169510000000  0.4057430000000 1.0
C      1  0.5639920000000  0.5221580000000  0.4172850000000 1.0
C      1  0.4401360000000  0.5948090000000  0.4753290000000 1.0
C      1  0.4814000000000  0.5704790000000  0.4833880000000 1.0
C      1  0.4850370000000  0.5020570000000  0.4551960000000 1.0
C      1  0.4986150000000  0.4920500000000  0.4127990000000 1.0
C      1  0.4580960000000  0.4887290000000  0.5328450000000 1.0
C      1  0.4104130000000  0.5076190000000  0.5399010000000 1.0
C      1  0.5092750000000  0.5943400000000  0.4047150000000 1.0
C      1  0.4755710000000  0.4430700000000  0.4718570000000 1.0
C      1  0.5309780000000  0.5655370000000  0.4617470000000 1.0
C      1  0.5242490000000  0.5204730000000  0.4765930000000 1.0
C      1  0.5316180000000  0.6257990000000  0.4398160000000 1.0
C      1  0.4511930000000  0.4615110000000  0.4324470000000 1.0
C      1  0.5993780000000  0.4078710000000  0.5084690000000 1.0
C      1  0.5953530000000  0.3821590000000  0.5492150000000 1.0
C      1  0.4977240000000  0.4789050000000  0.4406350000000 1.0
C      1  0.5645880000000  0.5183480000000  0.5815580000000 1.0
END
