TITL C-612600-6631-113 -40.3484851611608 125000 -1170.13821528678 0 0 192 (C1) n - 1
REM
REM in /home/nfs/bkarasulu/CARBON/AIRSS/Generating-Clusters/TERSOFF/Only-C1/FIRE-HFTN
REM
REM
REM
REM
REM
REM ./C.cell (11c1c37f851c82e70ff6c80c92926a4b)
REM AIRSS Version 0.9.1 bugfix July 2018 build 013d7b7c2542+ Fri, 06 Jul 2018 19:26:36 +0100
REM compiler GCC version 9.2.1 20190827 (Red Hat 9.2.1-1)
REM options -cpp -mtune=generic -march=x86-64 -g -O0 -fpre-include=/usr/include/finclude/math-vector-fortran.h
REM seed -1083878229 -156506286 2010159909 -419741250 -1399567273 -238976450 1766408195 2003118983 -1982611639 -891809526 1982168517 -305324372 1899014805 -1615965421 -380826123 -2115642039 492626412 485428024 -1941542677 371732613 -446867564 -37092713 442597308 967817793 -1118279583 949564195 -746306337 1552580164 -1028950348 768025642 584210341 1242233770 -1716292298
REM
CELL 1.54180   50.00000   50.00000   50.00000   90.00000   90.00000   90.00000
LATT -1
SFAC C  
C      1  0.5121660000000  0.5633300000000  0.5356240000000 1.0
C      1  0.4131730000000  0.4312710000000  0.5266920000000 1.0
C      1  0.6349390000000  0.5223480000000  0.6167310000000 1.0
C      1  0.5001580000000  0.5880760000000  0.5812320000000 1.0
C      1  0.4736130000000  0.4664130000000  0.3668840000000 1.0
C      1  0.5480980000000  0.5949800000000  0.4858500000000 1.0
C      1  0.5939280000000  0.4464970000000  0.4431520000000 1.0
C      1  0.4714360000000  0.4960320000000  0.3693580000000 1.0
C      1  0.5216660000000  0.4243780000000  0.4929520000000 1.0
C      1  0.5501660000000  0.6048950000000  0.5342120000000 1.0
C      1  0.5982050000000  0.5264420000000  0.4645840000000 1.0
C      1  0.5726570000000  0.5781350000000  0.4834120000000 1.0
C      1  0.4823710000000  0.5156420000000  0.4882280000000 1.0
C      1  0.5408580000000  0.5527250000000  0.4369470000000 1.0
C      1  0.4733160000000  0.5991840000000  0.5814300000000 1.0
C      1  0.6142390000000  0.4558020000000  0.4837870000000 1.0
C      1  0.3641870000000  0.5421120000000  0.4866110000000 1.0
C      1  0.5337230000000  0.6053980000000  0.5105460000000 1.0
C      1  0.5183750000000  0.4982320000000  0.4564610000000 1.0
C      1  0.5406380000000  0.5395650000000  0.4642180000000 1.0
C      1  0.4933290000000  0.5486290000000  0.5212330000000 1.0
C      1  0.3995800000000  0.5124960000000  0.4669200000000 1.0
C      1  0.4121530000000  0.4472480000000  0.4286780000000 1.0
C      1  0.4874160000000  0.4579950000000  0.5112150000000 1.0
C      1  0.5568620000000  0.4845860000000  0.4813650000000 1.0
C      1  0.4325140000000  0.5492480000000  0.4140080000000 1.0
C      1  0.4614030000000  0.5129590000000  0.5326500000000 1.0
C      1  0.4752900000000  0.3654720000000  0.4202530000000 1.0
C      1  0.4608170000000  0.4544260000000  0.3903410000000 1.0
C      1  0.5146430000000  0.5728980000000  0.6002890000000 1.0
C      1  0.4246550000000  0.3893330000000  0.5030220000000 1.0
C      1  0.4664860000000  0.3188630000000  0.3976090000000 1.0
C      1  0.4594280000000  0.4412840000000  0.4577980000000 1.0
C      1  0.5102190000000  0.4472410000000  0.4489070000000 1.0
C      1  0.4070600000000  0.5543910000000  0.5406580000000 1.0
C      1  0.6078280000000  0.5396840000000  0.3683180000000 1.0
C      1  0.4822540000000  0.3903330000000  0.4609060000000 1.0
C      1  0.5811480000000  0.4400290000000  0.4184480000000 1.0
C      1  0.6034690000000  0.5474020000000  0.4200970000000 1.0
C      1  0.4528490000000  0.4454520000000  0.5926070000000 1.0
C      1  0.6016300000000  0.5117190000000  0.5094260000000 1.0
C      1  0.4383350000000  0.5352260000000  0.6111240000000 1.0
C      1  0.4493510000000  0.3998020000000  0.4949830000000 1.0
C      1  0.5960460000000  0.5489400000000  0.4468550000000 1.0
C      1  0.5285110000000  0.4722640000000  0.4430610000000 1.0
C      1  0.5668880000000  0.4776070000000  0.5995190000000 1.0
C      1  0.5485320000000  0.4560720000000  0.5242870000000 1.0
C      1  0.5677560000000  0.5220770000000  0.5467870000000 1.0
C      1  0.4333240000000  0.5611090000000  0.5921600000000 1.0
C      1  0.4724170000000  0.6164720000000  0.5579820000000 1.0
C      1  0.4659210000000  0.5336460000000  0.4706800000000 1.0
C      1  0.5140620000000  0.4284100000000  0.5871170000000 1.0
C      1  0.6211890000000  0.4995980000000  0.5497640000000 1.0
C      1  0.5033890000000  0.5921650000000  0.4691690000000 1.0
C      1  0.3972160000000  0.5660300000000  0.5142540000000 1.0
C      1  0.4517800000000  0.4274300000000  0.4999970000000 1.0
C      1  0.5587510000000  0.4278560000000  0.4088070000000 1.0
C      1  0.3940810000000  0.5050290000000  0.5580790000000 1.0
C      1  0.4238010000000  0.5159400000000  0.4822290000000 1.0
C      1  0.5291140000000  0.5342380000000  0.4178970000000 1.0
C      1  0.5314430000000  0.4320260000000  0.5183130000000 1.0
C      1  0.5723030000000  0.5242540000000  0.5963830000000 1.0
C      1  0.5078340000000  0.5817730000000  0.5552340000000 1.0
C      1  0.4583120000000  0.5922360000000  0.4836630000000 1.0
C      1  0.5427190000000  0.4949000000000  0.3960090000000 1.0
C      1  0.5161960000000  0.5011010000000  0.6154560000000 1.0
C      1  0.3840010000000  0.5365760000000  0.4670430000000 1.0
C      1  0.5349240000000  0.4177210000000  0.5667570000000 1.0
C      1  0.4727480000000  0.4941580000000  0.4499070000000 1.0
C      1  0.4886430000000  0.3895350000000  0.5148800000000 1.0
C      1  0.5837270000000  0.5704570000000  0.5304070000000 1.0
C      1  0.4394070000000  0.4699490000000  0.5886040000000 1.0
C      1  0.4550170000000  0.6058270000000  0.4579420000000 1.0
C      1  0.4631960000000  0.4844380000000  0.6237740000000 1.0
C      1  0.5491410000000  0.5298630000000  0.5263690000000 1.0
C      1  0.5888400000000  0.4863340000000  0.5182410000000 1.0
C      1  0.4678350000000  0.5418090000000  0.5305780000000 1.0
C      1  0.4550560000000  0.5018620000000  0.3935470000000 1.0
C      1  0.5586090000000  0.5778060000000  0.5746470000000 1.0
C      1  0.4821150000000  0.4499980000000  0.4433490000000 1.0
C      1  0.5311010000000  0.5160480000000  0.5054520000000 1.0
C      1  0.4988040000000  0.5652790000000  0.4626900000000 1.0
C      1  0.5913150000000  0.4209730000000  0.5156090000000 1.0
C      1  0.4694570000000  0.5831790000000  0.3975460000000 1.0
C      1  0.4728590000000  0.4515130000000  0.6140610000000 1.0
C      1  0.6041630000000  0.4984360000000  0.4570880000000 1.0
C      1  0.6123210000000  0.5165420000000  0.5705000000000 1.0
C      1  0.5819080000000  0.4300410000000  0.4655380000000 1.0
C      1  0.5207350000000  0.4932170000000  0.5203490000000 1.0
C      1  0.3907650000000  0.4781120000000  0.5489510000000 1.0
C      1  0.4080490000000  0.4051030000000  0.5174700000000 1.0
C      1  0.6064660000000  0.5438970000000  0.3940080000000 1.0
C      1  0.5034670000000  0.4281590000000  0.3699490000000 1.0
C      1  0.5121930000000  0.4970620000000  0.5448230000000 1.0
C      1  0.4859300000000  0.5970790000000  0.4156610000000 1.0
C      1  0.4378280000000  0.4941290000000  0.5757970000000 1.0
C      1  0.5666400000000  0.5858910000000  0.5481180000000 1.0
C      1  0.4749460000000  0.3886770000000  0.4889880000000 1.0
C      1  0.5645690000000  0.4750470000000  0.5076900000000 1.0
C      1  0.6049380000000  0.4764870000000  0.5415170000000 1.0
C      1  0.4394180000000  0.5691300000000  0.4880830000000 1.0
C      1  0.4311300000000  0.4293740000000  0.4173040000000 1.0
C      1  0.4708620000000  0.3419650000000  0.4088680000000 1.0
C      1  0.5841560000000  0.5599820000000  0.5034670000000 1.0
C      1  0.5317020000000  0.5228530000000  0.6203010000000 1.0
C      1  0.4569090000000  0.4293130000000  0.4041320000000 1.0
C      1  0.5620200000000  0.4284420000000  0.5587440000000 1.0
C      1  0.4798300000000  0.3909390000000  0.4317350000000 1.0
C      1  0.3699790000000  0.5578320000000  0.5082100000000 1.0
C      1  0.4289670000000  0.5586360000000  0.5615230000000 1.0
C      1  0.6198860000000  0.5111650000000  0.6360540000000 1.0
C      1  0.5545710000000  0.4565810000000  0.5528200000000 1.0
C      1  0.4010390000000  0.5598570000000  0.4617130000000 1.0
C      1  0.4707140000000  0.6098680000000  0.4361790000000 1.0
C      1  0.5546750000000  0.4375520000000  0.4641480000000 1.0
C      1  0.4878200000000  0.6198600000000  0.5355340000000 1.0
C      1  0.3959640000000  0.4888160000000  0.4515720000000 1.0
C      1  0.5314360000000  0.5955850000000  0.4623850000000 1.0
C      1  0.4764880000000  0.4236560000000  0.5558950000000 1.0
C      1  0.4953300000000  0.4424980000000  0.5689580000000 1.0
C      1  0.5848860000000  0.5728200000000  0.4580150000000 1.0
C      1  0.5522210000000  0.4659280000000  0.4606600000000 1.0
C      1  0.4366670000000  0.4932740000000  0.4944790000000 1.0
C      1  0.5422930000000  0.5649570000000  0.5947330000000 1.0
C      1  0.4230940000000  0.4363090000000  0.5536790000000 1.0
C      1  0.4773380000000  0.5513780000000  0.4525930000000 1.0
C      1  0.5841660000000  0.5235400000000  0.5703870000000 1.0
C      1  0.3867120000000  0.4719690000000  0.5214710000000 1.0
C      1  0.4867640000000  0.5999530000000  0.4910280000000 1.0
C      1  0.4465800000000  0.5695390000000  0.4001780000000 1.0
C      1  0.3768150000000  0.4668260000000  0.4535280000000 1.0
C      1  0.4585050000000  0.4770650000000  0.4079110000000 1.0
C      1  0.5939540000000  0.5332120000000  0.4928500000000 1.0
C      1  0.4810240000000  0.4127850000000  0.4116450000000 1.0
C      1  0.4688310000000  0.4401730000000  0.5176680000000 1.0
C      1  0.4500750000000  0.5101900000000  0.6209280000000 1.0
C      1  0.5126160000000  0.5172140000000  0.4339140000000 1.0
C      1  0.5363770000000  0.4766020000000  0.4147740000000 1.0
C      1  0.5879960000000  0.4272720000000  0.5437420000000 1.0
C      1  0.5331960000000  0.4190590000000  0.4063490000000 1.0
C      1  0.5410260000000  0.5101650000000  0.4760990000000 1.0
C      1  0.4036220000000  0.4562900000000  0.5634690000000 1.0
C      1  0.6300960000000  0.5249570000000  0.5904830000000 1.0
C      1  0.4671750000000  0.5321810000000  0.5737890000000 1.0
C      1  0.4994540000000  0.4352980000000  0.6130600000000 1.0
C      1  0.5340290000000  0.5817580000000  0.4361730000000 1.0
C      1  0.4818060000000  0.5377850000000  0.5966530000000 1.0
C      1  0.5062370000000  0.4183120000000  0.3966420000000 1.0
C      1  0.3918880000000  0.5298730000000  0.5453330000000 1.0
C      1  0.6048590000000  0.4498140000000  0.5505350000000 1.0
C      1  0.4932400000000  0.4492390000000  0.3564400000000 1.0
C      1  0.4920440000000  0.5139730000000  0.3625830000000 1.0
C      1  0.6255450000000  0.5138880000000  0.5251720000000 1.0
C      1  0.5052040000000  0.5326120000000  0.4992010000000 1.0
C      1  0.4950610000000  0.4707310000000  0.4893080000000 1.0
C      1  0.4929810000000  0.4937350000000  0.4716300000000 1.0
C      1  0.4158860000000  0.5576140000000  0.4364600000000 1.0
C      1  0.5215990000000  0.4149240000000  0.5401630000000 1.0
C      1  0.5139260000000  0.5912810000000  0.4176430000000 1.0
C      1  0.3641750000000  0.4790470000000  0.5079830000000 1.0
C      1  0.5270730000000  0.4297700000000  0.4661730000000 1.0
C      1  0.4128140000000  0.5062880000000  0.5787490000000 1.0
C      1  0.5380930000000  0.5550450000000  0.5313460000000 1.0
C      1  0.4563490000000  0.5518890000000  0.5543100000000 1.0
C      1  0.4579710000000  0.5071890000000  0.5611750000000 1.0
C      1  0.5144690000000  0.5073380000000  0.5690260000000 1.0
C      1  0.5950750000000  0.5010410000000  0.6335480000000 1.0
C      1  0.5567400000000  0.4725030000000  0.5753400000000 1.0
C      1  0.4163860000000  0.4762810000000  0.4341630000000 1.0
C      1  0.5147930000000  0.5251730000000  0.3715750000000 1.0
C      1  0.4937280000000  0.4060320000000  0.5383030000000 1.0
C      1  0.4076040000000  0.4555580000000  0.5109270000000 1.0
C      1  0.4273330000000  0.4660650000000  0.4923640000000 1.0
C      1  0.5332620000000  0.5216400000000  0.3926620000000 1.0
C      1  0.3860420000000  0.4435270000000  0.4411240000000 1.0
C      1  0.4107330000000  0.5722360000000  0.4882410000000 1.0
C      1  0.5774120000000  0.5003620000000  0.6118530000000 1.0
C      1  0.4513420000000  0.5852370000000  0.5943700000000 1.0
C      1  0.6073310000000  0.4694360000000  0.4581720000000 1.0
C      1  0.4613510000000  0.5017480000000  0.5071070000000 1.0
C      1  0.4396540000000  0.5229980000000  0.4046630000000 1.0
C      1  0.5498290000000  0.5390990000000  0.6051430000000 1.0
C      1  0.4726990000000  0.4741720000000  0.4312620000000 1.0
C      1  0.5068530000000  0.4913990000000  0.5908150000000 1.0
C      1  0.4496460000000  0.4301100000000  0.5671880000000 1.0
C      1  0.5164470000000  0.5493660000000  0.4772860000000 1.0
C      1  0.5030340000000  0.6101830000000  0.5129430000000 1.0
C      1  0.4410710000000  0.5400400000000  0.4814580000000 1.0
C      1  0.4940400000000  0.4690490000000  0.5786340000000 1.0
C      1  0.5973920000000  0.4323740000000  0.4900960000000 1.0
C      1  0.4430360000000  0.4453810000000  0.4800680000000 1.0
C      1  0.4976100000000  0.5534720000000  0.6116200000000 1.0
END
