TITL C-612606-7351-1430 5096021.15454762 125000 -1201.35625440483 0 0 196 (C1) n - 1
REM
REM in /home/nfs/bkarasulu/CARBON/AIRSS/Generating-Clusters/TERSOFF/Only-C1/FIRE-HFTN
REM
REM
REM
REM
REM
REM ./C.cell (11c1c37f851c82e70ff6c80c92926a4b)
REM AIRSS Version 0.9.1 bugfix July 2018 build 013d7b7c2542+ Fri, 06 Jul 2018 19:26:36 +0100
REM compiler GCC version 9.2.1 20190827 (Red Hat 9.2.1-1)
REM options -cpp -mtune=generic -march=x86-64 -g -O0 -fpre-include=/usr/include/finclude/math-vector-fortran.h
REM seed 1487945756 1732391823 497937075 -447983212 -316881158 547843829 1304668537 1460443578 -1752030224 76755604 2053961299 -762385301 -311359817 -1498089055 198377092 688108688 1409569386 -410523295 -567004901 109131469 -705073045 -478586861 788808492 -607311756 -1652100297 -1312082431 63981864 -1611418163 1380198244 -1412308705 1262463380 595907056 -5612240
REM
CELL 1.54180   50.00000   50.00000   50.00000   90.00000   90.00000   90.00000
LATT -1
SFAC C  
C      1  0.5243480000000  0.5332520000000  0.4907880000000 1.0
C      1  0.6461270000000  0.4399030000000  0.4431230000000 1.0
C      1  0.5273270000000  0.5615080000000  0.4970280000000 1.0
C      1  0.5964400000000  0.5896930000000  0.5543580000000 1.0
C      1  0.5391930000000  0.4967380000000  0.6113020000000 1.0
C      1  0.4590550000000  0.4940580000000  0.3696750000000 1.0
C      1  0.4276450000000  0.5099600000000  0.4696150000000 1.0
C      1  0.6147510000000  0.5828360000000  0.5118640000000 1.0
C      1  0.5652290000000  0.5724870000000  0.4752830000000 1.0
C      1  0.5936470000000  0.4955770000000  0.4398810000000 1.0
C      1  0.5602630000000  0.4753570000000  0.5380510000000 1.0
C      1  0.4189370000000  0.4511430000000  0.5742620000000 1.0
C      1  0.5579580000000  0.4121230000000  0.4477560000000 1.0
C      1  0.4709140000000  0.5515750000000  0.5564310000000 1.0
C      1  0.4986300000000  0.5180940000000  0.5520340000000 1.0
C      1  0.3912700000000  0.4610770000000  0.4611930000000 1.0
C      1  0.5073210000000  0.4611670000000  0.5098550000000 1.0
C      1  0.3851300000000  0.5104930000000  0.5264550000000 1.0
C      1  0.5176260000000  0.4917920000000  0.4272630000000 1.0
C      1  0.6103360000000  0.5184900000000  0.5390150000000 1.0
C      1  0.5221630000000  0.4191200000000  0.4041110000000 1.0
C      1  0.4819560000000  0.6206770000000  0.4782900000000 1.0
C      1  0.6159200000000  0.5163290000000  0.4840150000000 1.0
C      1  0.4087550000000  0.5754920000000  0.5274080000000 1.0
C      1  0.5649730000000  0.4590160000000  0.4541020000000 1.0
C      1  0.5221380000000  0.5119900000000  0.3689280000000 1.0
C      1  0.6026510000000  0.6093680000000  0.5142020000000 1.0
C      1  0.4886010000000  0.4428340000000  0.5984160000000 1.0
C      1  0.4000950000000  0.5608390000000  0.5024140000000 1.0
C      1  0.4302390000000  0.4053520000000  0.5464280000000 1.0
C      1  0.5113450000000  0.6237790000000  0.5406820000000 1.0
C      1  0.5399960000000  0.6251230000000  0.4985880000000 1.0
C      1  0.4344920000000  0.5410540000000  0.4128710000000 1.0
C      1  0.5405670000000  0.3866750000000  0.4824260000000 1.0
C      1  0.5297170000000  0.5536350000000  0.4008060000000 1.0
C      1  0.4958890000000  0.4239200000000  0.3913130000000 1.0
C      1  0.4771560000000  0.5677620000000  0.5802350000000 1.0
C      1  0.4448630000000  0.4072890000000  0.4477970000000 1.0
C      1  0.5454350000000  0.4641780000000  0.3979570000000 1.0
C      1  0.4823180000000  0.4014750000000  0.4805310000000 1.0
C      1  0.4624190000000  0.4555390000000  0.4009450000000 1.0
C      1  0.4530050000000  0.5319330000000  0.5441450000000 1.0
C      1  0.4987560000000  0.4307130000000  0.5734940000000 1.0
C      1  0.4602440000000  0.5346760000000  0.4023680000000 1.0
C      1  0.4768740000000  0.5955080000000  0.5670330000000 1.0
C      1  0.5296070000000  0.5337400000000  0.3828010000000 1.0
C      1  0.4960570000000  0.5774020000000  0.4602440000000 1.0
C      1  0.5181890000000  0.3961310000000  0.4312450000000 1.0
C      1  0.5724620000000  0.5261900000000  0.5852250000000 1.0
C      1  0.4991340000000  0.5044180000000  0.5260650000000 1.0
C      1  0.4315740000000  0.4879340000000  0.3762360000000 1.0
C      1  0.3418920000000  0.4995130000000  0.4979780000000 1.0
C      1  0.4218360000000  0.5031080000000  0.6199590000000 1.0
C      1  0.4523230000000  0.6112470000000  0.4189490000000 1.0
C      1  0.6138250000000  0.5717800000000  0.4861390000000 1.0
C      1  0.5076680000000  0.4901480000000  0.3626440000000 1.0
C      1  0.5596330000000  0.5450760000000  0.5240730000000 1.0
C      1  0.4831060000000  0.5274310000000  0.6083200000000 1.0
C      1  0.5189880000000  0.4347870000000  0.4628710000000 1.0
C      1  0.4616190000000  0.5848190000000  0.5163950000000 1.0
C      1  0.4698320000000  0.4795320000000  0.4163370000000 1.0
C      1  0.4911450000000  0.5003440000000  0.4168930000000 1.0
C      1  0.5087300000000  0.5826710000000  0.5015340000000 1.0
C      1  0.5156460000000  0.5406980000000  0.5468490000000 1.0
C      1  0.5767970000000  0.3811120000000  0.5869200000000 1.0
C      1  0.4715880000000  0.5983520000000  0.4057010000000 1.0
C      1  0.5822940000000  0.5487220000000  0.5703320000000 1.0
C      1  0.3668800000000  0.4898230000000  0.5027380000000 1.0
C      1  0.5284750000000  0.3824200000000  0.5297550000000 1.0
C      1  0.4557900000000  0.4836830000000  0.5556000000000 1.0
C      1  0.5540300000000  0.4072170000000  0.5007480000000 1.0
C      1  0.5557870000000  0.5632100000000  0.5014570000000 1.0
C      1  0.4826100000000  0.4491340000000  0.3817310000000 1.0
C      1  0.5671590000000  0.4818430000000  0.4359120000000 1.0
C      1  0.6017180000000  0.4209710000000  0.5648330000000 1.0
C      1  0.4893400000000  0.3938720000000  0.4308710000000 1.0
C      1  0.4833450000000  0.4756200000000  0.3667900000000 1.0
C      1  0.5363120000000  0.4503590000000  0.5967450000000 1.0
C      1  0.4760030000000  0.4645050000000  0.5483650000000 1.0
C      1  0.4977970000000  0.5978940000000  0.4802070000000 1.0
C      1  0.4589000000000  0.5264010000000  0.5159660000000 1.0
C      1  0.5451800000000  0.5884690000000  0.4606790000000 1.0
C      1  0.4608310000000  0.4454640000000  0.6021850000000 1.0
C      1  0.5057980000000  0.4194240000000  0.4834430000000 1.0
C      1  0.5757240000000  0.4828570000000  0.4922520000000 1.0
C      1  0.4816780000000  0.4356500000000  0.5508110000000 1.0
C      1  0.5025050000000  0.5216670000000  0.5033770000000 1.0
C      1  0.4379020000000  0.5073470000000  0.5530970000000 1.0
C      1  0.4606340000000  0.6294980000000  0.4646950000000 1.0
C      1  0.5747620000000  0.5768320000000  0.5702360000000 1.0
C      1  0.6093390000000  0.4511590000000  0.4725140000000 1.0
C      1  0.5951850000000  0.5123000000000  0.4640070000000 1.0
C      1  0.4726460000000  0.4518240000000  0.4527020000000 1.0
C      1  0.5333580000000  0.4679530000000  0.5005150000000 1.0
C      1  0.5581770000000  0.6127840000000  0.5429160000000 1.0
C      1  0.3896030000000  0.5346030000000  0.5148430000000 1.0
C      1  0.5101590000000  0.4580190000000  0.6103240000000 1.0
C      1  0.4282840000000  0.4619670000000  0.4308720000000 1.0
C      1  0.4380670000000  0.4159440000000  0.4214250000000 1.0
C      1  0.4748900000000  0.5559010000000  0.4717050000000 1.0
C      1  0.5945620000000  0.4456640000000  0.5540170000000 1.0
C      1  0.6034030000000  0.5443820000000  0.5491290000000 1.0
C      1  0.4950810000000  0.5596080000000  0.5402240000000 1.0
C      1  0.5031580000000  0.6080040000000  0.5634350000000 1.0
C      1  0.5116260000000  0.4867800000000  0.6156280000000 1.0
C      1  0.4774020000000  0.5342910000000  0.4496960000000 1.0
C      1  0.5445240000000  0.4949930000000  0.5507110000000 1.0
C      1  0.3877530000000  0.4454890000000  0.5058840000000 1.0
C      1  0.4803170000000  0.5275920000000  0.4216040000000 1.0
C      1  0.4107780000000  0.4823400000000  0.5065060000000 1.0
C      1  0.4485730000000  0.5712230000000  0.4862420000000 1.0
C      1  0.3757630000000  0.4657680000000  0.4873600000000 1.0
C      1  0.5444010000000  0.4841680000000  0.4180580000000 1.0
C      1  0.5179160000000  0.5737330000000  0.4166730000000 1.0
C      1  0.4040820000000  0.4764730000000  0.4390040000000 1.0
C      1  0.5573310000000  0.4759610000000  0.5108100000000 1.0
C      1  0.5862160000000  0.6117720000000  0.5374150000000 1.0
C      1  0.5424500000000  0.5292040000000  0.5414370000000 1.0
C      1  0.5835710000000  0.4614360000000  0.4757500000000 1.0
C      1  0.4538950000000  0.4732410000000  0.4421560000000 1.0
C      1  0.4191160000000  0.5355560000000  0.4598820000000 1.0
C      1  0.5806690000000  0.4789810000000  0.5958740000000 1.0
C      1  0.4939080000000  0.5026300000000  0.6002340000000 1.0
C      1  0.4960400000000  0.5876960000000  0.4052010000000 1.0
C      1  0.4086640000000  0.4992070000000  0.5498560000000 1.0
C      1  0.4248140000000  0.5026350000000  0.4957180000000 1.0
C      1  0.6166690000000  0.4790560000000  0.4350260000000 1.0
C      1  0.4497310000000  0.4973170000000  0.4575610000000 1.0
C      1  0.5931130000000  0.3985530000000  0.5763560000000 1.0
C      1  0.4108430000000  0.5668740000000  0.5791840000000 1.0
C      1  0.4800400000000  0.4029970000000  0.4045220000000 1.0
C      1  0.4055130000000  0.4346550000000  0.4630120000000 1.0
C      1  0.5471220000000  0.4372870000000  0.4547500000000 1.0
C      1  0.4717340000000  0.3971860000000  0.4536140000000 1.0
C      1  0.4139480000000  0.4555290000000  0.5123690000000 1.0
C      1  0.4744310000000  0.5092440000000  0.4627790000000 1.0
C      1  0.6180010000000  0.5158060000000  0.5113650000000 1.0
C      1  0.5420180000000  0.4375420000000  0.3977490000000 1.0
C      1  0.5461770000000  0.5241340000000  0.6001160000000 1.0
C      1  0.4211680000000  0.4259010000000  0.5613440000000 1.0
C      1  0.6257160000000  0.4565230000000  0.4500380000000 1.0
C      1  0.4952460000000  0.5520670000000  0.5985940000000 1.0
C      1  0.5261240000000  0.5967380000000  0.5763110000000 1.0
C      1  0.4299060000000  0.4203750000000  0.4686770000000 1.0
C      1  0.5163080000000  0.3717030000000  0.5516280000000 1.0
C      1  0.5925540000000  0.5700760000000  0.4696680000000 1.0
C      1  0.5038430000000  0.4321570000000  0.5088680000000 1.0
C      1  0.5366920000000  0.6229780000000  0.5268580000000 1.0
C      1  0.4450230000000  0.3939840000000  0.5266060000000 1.0
C      1  0.4634530000000  0.4068710000000  0.5060850000000 1.0
C      1  0.4350790000000  0.4565020000000  0.5978050000000 1.0
C      1  0.4891880000000  0.5768190000000  0.5197710000000 1.0
C      1  0.6052280000000  0.4969080000000  0.5575190000000 1.0
C      1  0.4227820000000  0.5576130000000  0.4807100000000 1.0
C      1  0.4499080000000  0.5008870000000  0.5080510000000 1.0
C      1  0.4387580000000  0.4425110000000  0.4118700000000 1.0
C      1  0.4141490000000  0.5508700000000  0.6001760000000 1.0
C      1  0.4860960000000  0.4739620000000  0.4931260000000 1.0
C      1  0.4940130000000  0.4915820000000  0.4719510000000 1.0
C      1  0.5203970000000  0.4815690000000  0.5600180000000 1.0
C      1  0.5286840000000  0.4328030000000  0.5730360000000 1.0
C      1  0.4178620000000  0.5288500000000  0.6146130000000 1.0
C      1  0.5712020000000  0.5080640000000  0.4793510000000 1.0
C      1  0.4268980000000  0.4775660000000  0.6145680000000 1.0
C      1  0.5019700000000  0.4751600000000  0.5356130000000 1.0
C      1  0.5543630000000  0.4727410000000  0.6028730000000 1.0
C      1  0.4574160000000  0.5978370000000  0.5432050000000 1.0
C      1  0.5012660000000  0.4529390000000  0.4512230000000 1.0
C      1  0.4153160000000  0.5293890000000  0.4309740000000 1.0
C      1  0.6102910000000  0.4692980000000  0.5524540000000 1.0
C      1  0.4092820000000  0.5756970000000  0.5541090000000 1.0
C      1  0.5386910000000  0.3911430000000  0.4527270000000 1.0
C      1  0.5268910000000  0.3710080000000  0.5028240000000 1.0
C      1  0.5445190000000  0.4074020000000  0.5293420000000 1.0
C      1  0.4443970000000  0.4262000000000  0.4926220000000 1.0
C      1  0.5250010000000  0.5455010000000  0.5994430000000 1.0
C      1  0.5465490000000  0.4284580000000  0.5501340000000 1.0
C      1  0.4637330000000  0.5218140000000  0.3770220000000 1.0
C      1  0.4412720000000  0.4509170000000  0.5054320000000 1.0
C      1  0.5520100000000  0.5942250000000  0.5654090000000 1.0
C      1  0.5214570000000  0.5775150000000  0.4449950000000 1.0
C      1  0.4598500000000  0.4739500000000  0.5038410000000 1.0
C      1  0.4477050000000  0.6243140000000  0.4418280000000 1.0
C      1  0.5024710000000  0.5005850000000  0.5734490000000 1.0
C      1  0.4057290000000  0.5017920000000  0.4223230000000 1.0
C      1  0.4126180000000  0.4953560000000  0.3944900000000 1.0
C      1  0.4833380000000  0.4218660000000  0.5256620000000 1.0
C      1  0.6113940000000  0.5698120000000  0.5377950000000 1.0
C      1  0.4789700000000  0.5361060000000  0.4982120000000 1.0
C      1  0.5884130000000  0.5018300000000  0.5809090000000 1.0
C      1  0.5426510000000  0.6143730000000  0.4737080000000 1.0
C      1  0.5669560000000  0.4492880000000  0.5477900000000 1.0
C      1  0.5460510000000  0.5200610000000  0.4787600000000 1.0
C      1  0.4045230000000  0.4734320000000  0.5626800000000 1.0
C      1  0.5104720000000  0.4798810000000  0.4521710000000 1.0
C      1  0.3772810000000  0.5758570000000  0.4890750000000 1.0
END
