TITL C-612604-1799-419 -37.7576761586175 125000 -937.021632564156 0 0 152 (C1) n - 1
REM
REM in /home/nfs/bkarasulu/CARBON/AIRSS/Generating-Clusters/TERSOFF/Only-C1/FIRE-HFTN
REM
REM
REM
REM
REM
REM ./C.cell (11c1c37f851c82e70ff6c80c92926a4b)
REM AIRSS Version 0.9.1 bugfix July 2018 build 013d7b7c2542+ Fri, 06 Jul 2018 19:26:36 +0100
REM compiler GCC version 9.2.1 20190827 (Red Hat 9.2.1-1)
REM options -cpp -mtune=generic -march=x86-64 -g -O0 -fpre-include=/usr/include/finclude/math-vector-fortran.h
REM seed 1287771815 2100269550 994015613 -1175698738 -1151975083 1229672369 34310762 -465554235 206071552 -745396512 1902800809 1120299929 1321809315 -834507152 -1497240759 -1225618504 1257547556 -856543364 -95377695 -832072693 -1081535267 -1862888538 -1475493529 870866302 -1731111305 1661418695 -673394696 944362002 1696184063 285096645 1779977583 -1117074377 -2060719485
REM
CELL 1.54180   50.00000   50.00000   50.00000   90.00000   90.00000   90.00000
LATT -1
SFAC C  
C      1  0.5129150000000  0.4963050000000  0.6024390000000 1.0
C      1  0.3782500000000  0.5101420000000  0.4953550000000 1.0
C      1  0.4240320000000  0.4324000000000  0.5412210000000 1.0
C      1  0.5552340000000  0.4798910000000  0.4151260000000 1.0
C      1  0.4274470000000  0.4739630000000  0.5070480000000 1.0
C      1  0.6283680000000  0.4823260000000  0.4389060000000 1.0
C      1  0.5540000000000  0.6050120000000  0.4918560000000 1.0
C      1  0.4648040000000  0.5130010000000  0.5878290000000 1.0
C      1  0.4820080000000  0.4429480000000  0.3791260000000 1.0
C      1  0.5125100000000  0.5151610000000  0.5149600000000 1.0
C      1  0.5138240000000  0.5591270000000  0.5745680000000 1.0
C      1  0.4714770000000  0.4054410000000  0.5154930000000 1.0
C      1  0.4789510000000  0.3827720000000  0.4623880000000 1.0
C      1  0.5268110000000  0.4263100000000  0.4002160000000 1.0
C      1  0.5194470000000  0.5521720000000  0.4737110000000 1.0
C      1  0.4227480000000  0.4305000000000  0.4888370000000 1.0
C      1  0.5736730000000  0.4301860000000  0.4823690000000 1.0
C      1  0.5339610000000  0.5131700000000  0.4982530000000 1.0
C      1  0.4484530000000  0.6014490000000  0.4716420000000 1.0
C      1  0.5627400000000  0.5492190000000  0.4348140000000 1.0
C      1  0.5411040000000  0.5089430000000  0.6008500000000 1.0
C      1  0.5224290000000  0.5208810000000  0.4394070000000 1.0
C      1  0.4743000000000  0.4703770000000  0.4695110000000 1.0
C      1  0.5581470000000  0.5560840000000  0.4071300000000 1.0
C      1  0.3844880000000  0.5187790000000  0.5228590000000 1.0
C      1  0.5774470000000  0.5665740000000  0.4788440000000 1.0
C      1  0.4237350000000  0.5821530000000  0.4680380000000 1.0
C      1  0.4235640000000  0.5274550000000  0.5637620000000 1.0
C      1  0.5893860000000  0.4910730000000  0.5483120000000 1.0
C      1  0.5045370000000  0.5945430000000  0.4857320000000 1.0
C      1  0.4412630000000  0.5020290000000  0.4027120000000 1.0
C      1  0.6098650000000  0.5739350000000  0.5357260000000 1.0
C      1  0.4620810000000  0.5612690000000  0.4538050000000 1.0
C      1  0.5135280000000  0.5632730000000  0.4198910000000 1.0
C      1  0.5418240000000  0.4329500000000  0.4498240000000 1.0
C      1  0.4745720000000  0.5958040000000  0.5549060000000 1.0
C      1  0.4672940000000  0.5264860000000  0.5413600000000 1.0
C      1  0.5652510000000  0.4937650000000  0.4379210000000 1.0
C      1  0.4588140000000  0.3815520000000  0.5245560000000 1.0
C      1  0.4722100000000  0.4983960000000  0.4652680000000 1.0
C      1  0.5161190000000  0.6005180000000  0.4607460000000 1.0
C      1  0.5628280000000  0.5727980000000  0.4539690000000 1.0
C      1  0.4503860000000  0.3618970000000  0.5075390000000 1.0
C      1  0.4915510000000  0.5174380000000  0.5991750000000 1.0
C      1  0.5826850000000  0.4779460000000  0.4557980000000 1.0
C      1  0.5136490000000  0.5684930000000  0.5471730000000 1.0
C      1  0.5217680000000  0.4669140000000  0.5938140000000 1.0
C      1  0.4106190000000  0.5718020000000  0.4922900000000 1.0
C      1  0.4600010000000  0.5140430000000  0.5147270000000 1.0
C      1  0.5178000000000  0.4414710000000  0.4635200000000 1.0
C      1  0.5449310000000  0.5966680000000  0.4634470000000 1.0
C      1  0.3906610000000  0.5466110000000  0.5303160000000 1.0
C      1  0.4467890000000  0.4187640000000  0.4786640000000 1.0
C      1  0.4994490000000  0.4221790000000  0.4532940000000 1.0
C      1  0.5052510000000  0.4839160000000  0.5536990000000 1.0
C      1  0.4697510000000  0.4457990000000  0.5592800000000 1.0
C      1  0.4998920000000  0.4892950000000  0.5243020000000 1.0
C      1  0.4780700000000  0.4730480000000  0.5146610000000 1.0
C      1  0.5430120000000  0.5129260000000  0.5719150000000 1.0
C      1  0.4545650000000  0.3957030000000  0.4636750000000 1.0
C      1  0.5084580000000  0.5156330000000  0.3793270000000 1.0
C      1  0.4619820000000  0.4605070000000  0.3792820000000 1.0
C      1  0.5092580000000  0.6141470000000  0.5243900000000 1.0
C      1  0.4611550000000  0.6067750000000  0.4978600000000 1.0
C      1  0.5693330000000  0.5416800000000  0.4883260000000 1.0
C      1  0.5009140000000  0.5064680000000  0.4263100000000 1.0
C      1  0.4952590000000  0.4001950000000  0.5625010000000 1.0
C      1  0.4115650000000  0.5502650000000  0.5507720000000 1.0
C      1  0.4319950000000  0.4777260000000  0.5692340000000 1.0
C      1  0.5532080000000  0.4140430000000  0.4689260000000 1.0
C      1  0.4187260000000  0.4584590000000  0.4840210000000 1.0
C      1  0.5094470000000  0.4969310000000  0.4005520000000 1.0
C      1  0.4132960000000  0.5174300000000  0.4630160000000 1.0
C      1  0.4689810000000  0.3809070000000  0.5996920000000 1.0
C      1  0.4679530000000  0.5186910000000  0.4855960000000 1.0
C      1  0.5896240000000  0.4629060000000  0.5448590000000 1.0
C      1  0.5605480000000  0.4729630000000  0.4971640000000 1.0
C      1  0.5229940000000  0.4619900000000  0.5644830000000 1.0
C      1  0.4653280000000  0.3767440000000  0.6251580000000 1.0
C      1  0.4048780000000  0.4760890000000  0.5238860000000 1.0
C      1  0.4749730000000  0.5624210000000  0.4995310000000 1.0
C      1  0.4134970000000  0.5005110000000  0.5617100000000 1.0
C      1  0.5727000000000  0.4590170000000  0.4758720000000 1.0
C      1  0.4686030000000  0.5459530000000  0.4774640000000 1.0
C      1  0.4517280000000  0.5282610000000  0.5662060000000 1.0
C      1  0.5284320000000  0.3789280000000  0.5271870000000 1.0
C      1  0.4522970000000  0.4856280000000  0.5147890000000 1.0
C      1  0.3988320000000  0.4721360000000  0.4689540000000 1.0
C      1  0.4527500000000  0.5841800000000  0.5407250000000 1.0
C      1  0.4473400000000  0.4814530000000  0.3868270000000 1.0
C      1  0.4243540000000  0.5252270000000  0.4878960000000 1.0
C      1  0.6268360000000  0.5243770000000  0.5475850000000 1.0
C      1  0.4824650000000  0.4531310000000  0.4931950000000 1.0
C      1  0.5578250000000  0.4888020000000  0.6134820000000 1.0
C      1  0.4478350000000  0.5154210000000  0.4266490000000 1.0
C      1  0.5139390000000  0.5515010000000  0.5223380000000 1.0
C      1  0.5671820000000  0.5051820000000  0.5592870000000 1.0
C      1  0.5311580000000  0.5558260000000  0.3985550000000 1.0
C      1  0.5335710000000  0.3806320000000  0.5010370000000 1.0
C      1  0.5048070000000  0.4309410000000  0.3858840000000 1.0
C      1  0.5122040000000  0.4469270000000  0.4915560000000 1.0
C      1  0.4264880000000  0.5489660000000  0.4994060000000 1.0
C      1  0.4730400000000  0.3859410000000  0.5727390000000 1.0
C      1  0.5417990000000  0.4290460000000  0.4221680000000 1.0
C      1  0.5321940000000  0.4801280000000  0.4012120000000 1.0
C      1  0.5048660000000  0.3952450000000  0.4625700000000 1.0
C      1  0.5465660000000  0.4637380000000  0.6092960000000 1.0
C      1  0.5017810000000  0.5953030000000  0.5451630000000 1.0
C      1  0.6103250000000  0.4854590000000  0.4591870000000 1.0
C      1  0.5846320000000  0.4257580000000  0.5081950000000 1.0
C      1  0.6211950000000  0.5518240000000  0.5452720000000 1.0
C      1  0.5408800000000  0.5370000000000  0.4844730000000 1.0
C      1  0.5944810000000  0.5881370000000  0.5192410000000 1.0
C      1  0.5024430000000  0.5441490000000  0.5944040000000 1.0
C      1  0.5164990000000  0.5111920000000  0.5600900000000 1.0
C      1  0.4556450000000  0.3778120000000  0.5523160000000 1.0
C      1  0.4284110000000  0.5734560000000  0.5502550000000 1.0
C      1  0.4396050000000  0.4496040000000  0.5577700000000 1.0
C      1  0.5893130000000  0.4400870000000  0.5306190000000 1.0
C      1  0.4739230000000  0.5074690000000  0.4379940000000 1.0
C      1  0.4687150000000  0.5902450000000  0.4527200000000 1.0
C      1  0.3962320000000  0.4975820000000  0.5391250000000 1.0
C      1  0.5367720000000  0.6150590000000  0.5132770000000 1.0
C      1  0.4273400000000  0.5309400000000  0.4418080000000 1.0
C      1  0.5797260000000  0.5181850000000  0.5000310000000 1.0
C      1  0.5147450000000  0.5482620000000  0.4452450000000 1.0
C      1  0.5319790000000  0.3936350000000  0.4759520000000 1.0
C      1  0.3919070000000  0.4998450000000  0.4712890000000 1.0
C      1  0.3885390000000  0.5684020000000  0.5105900000000 1.0
C      1  0.4590680000000  0.5818660000000  0.5131770000000 1.0
C      1  0.4581660000000  0.4864440000000  0.5802920000000 1.0
C      1  0.6482100000000  0.5154290000000  0.5620430000000 1.0
C      1  0.5578730000000  0.4994600000000  0.5032230000000 1.0
C      1  0.5161430000000  0.3858870000000  0.5498880000000 1.0
C      1  0.4681740000000  0.4265050000000  0.4967610000000 1.0
C      1  0.5204590000000  0.5397910000000  0.3781340000000 1.0
C      1  0.5526940000000  0.5204390000000  0.4401380000000 1.0
C      1  0.4168760000000  0.4236650000000  0.5164510000000 1.0
C      1  0.5005040000000  0.5878210000000  0.4178860000000 1.0
C      1  0.5774000000000  0.5885950000000  0.4973060000000 1.0
C      1  0.4940780000000  0.5273960000000  0.5519850000000 1.0
C      1  0.4920580000000  0.4275150000000  0.5554910000000 1.0
C      1  0.5227280000000  0.4410640000000  0.5179530000000 1.0
C      1  0.4901230000000  0.6132410000000  0.5019290000000 1.0
C      1  0.4786450000000  0.4730460000000  0.5660410000000 1.0
C      1  0.6095720000000  0.5062580000000  0.5342050000000 1.0
C      1  0.4937780000000  0.5994470000000  0.4422300000000 1.0
C      1  0.5167200000000  0.4403730000000  0.5463430000000 1.0
C      1  0.5046800000000  0.5662920000000  0.4962380000000 1.0
C      1  0.4331230000000  0.5592800000000  0.4487020000000 1.0
C      1  0.6180630000000  0.4960460000000  0.4844070000000 1.0
C      1  0.6053220000000  0.5086210000000  0.5061080000000 1.0
END
