TITL C-612604-1799-799 78.6375699141737 125000 -1058.27434343034 0 0 172 (C1) n - 1
REM
REM in /home/nfs/bkarasulu/CARBON/AIRSS/Generating-Clusters/TERSOFF/Only-C1/FIRE-HFTN
REM
REM
REM
REM
REM
REM ./C.cell (11c1c37f851c82e70ff6c80c92926a4b)
REM AIRSS Version 0.9.1 bugfix July 2018 build 013d7b7c2542+ Fri, 06 Jul 2018 19:26:36 +0100
REM compiler GCC version 9.2.1 20190827 (Red Hat 9.2.1-1)
REM options -cpp -mtune=generic -march=x86-64 -g -O0 -fpre-include=/usr/include/finclude/math-vector-fortran.h
REM seed -896480955 -743621369 827044904 -1208179374 1830823218 444594764 -344933361 170178376 -2025717424 -1525014338 -688129259 -617317292 581689831 -1195609087 -1513399886 2098095484 -1517636760 -1489469294 -702135166 342670732 -1195451649 1835193398 753371632 572453034 798025425 1604948091 -1238867830 -1088911078 39643667 1487071800 75756505 1310760278 1379466241
REM
CELL 1.54180   50.00000   50.00000   50.00000   90.00000   90.00000   90.00000
LATT -1
SFAC C  
C      1  0.4829240000000  0.3761420000000  0.5103710000000 1.0
C      1  0.4552310000000  0.5273150000000  0.4485590000000 1.0
C      1  0.4944730000000  0.5817450000000  0.5219050000000 1.0
C      1  0.4362320000000  0.5610170000000  0.4920090000000 1.0
C      1  0.3703130000000  0.4671840000000  0.5332680000000 1.0
C      1  0.5065510000000  0.3817660000000  0.4555040000000 1.0
C      1  0.5940150000000  0.5448550000000  0.4808510000000 1.0
C      1  0.4639990000000  0.5587520000000  0.4915140000000 1.0
C      1  0.4438680000000  0.4157040000000  0.5736860000000 1.0
C      1  0.4098020000000  0.5125350000000  0.4966400000000 1.0
C      1  0.4004040000000  0.5317150000000  0.5663790000000 1.0
C      1  0.5528300000000  0.4411800000000  0.5708140000000 1.0
C      1  0.4588510000000  0.4275470000000  0.4337010000000 1.0
C      1  0.5463700000000  0.5763770000000  0.5733310000000 1.0
C      1  0.5663380000000  0.5985280000000  0.4910960000000 1.0
C      1  0.5001570000000  0.5987840000000  0.5811630000000 1.0
C      1  0.5786240000000  0.4644990000000  0.5180040000000 1.0
C      1  0.4002000000000  0.5079290000000  0.4717220000000 1.0
C      1  0.4579670000000  0.4942080000000  0.4814660000000 1.0
C      1  0.5262930000000  0.4794810000000  0.5039580000000 1.0
C      1  0.3929460000000  0.4205910000000  0.5240890000000 1.0
C      1  0.3879380000000  0.4483460000000  0.5208550000000 1.0
C      1  0.5193520000000  0.4579030000000  0.6043170000000 1.0
C      1  0.5219530000000  0.5070120000000  0.6030730000000 1.0
C      1  0.5312760000000  0.3807090000000  0.5305900000000 1.0
C      1  0.4092310000000  0.4395510000000  0.4376380000000 1.0
C      1  0.4402760000000  0.5689270000000  0.4288950000000 1.0
C      1  0.5410090000000  0.5002360000000  0.4878600000000 1.0
C      1  0.5037220000000  0.4803740000000  0.4419700000000 1.0
C      1  0.5390910000000  0.4540620000000  0.4954300000000 1.0
C      1  0.5495520000000  0.5070710000000  0.5929240000000 1.0
C      1  0.5018190000000  0.4308190000000  0.5410940000000 1.0
C      1  0.4461210000000  0.5239480000000  0.5297880000000 1.0
C      1  0.5077450000000  0.5556430000000  0.6013890000000 1.0
C      1  0.5149350000000  0.5808700000000  0.5013670000000 1.0
C      1  0.5129110000000  0.5232620000000  0.5219030000000 1.0
C      1  0.4106790000000  0.4613270000000  0.5098540000000 1.0
C      1  0.5296280000000  0.4909750000000  0.5309730000000 1.0
C      1  0.5488500000000  0.3957110000000  0.5441670000000 1.0
C      1  0.4917080000000  0.4046780000000  0.4058590000000 1.0
C      1  0.4327210000000  0.5938000000000  0.4418870000000 1.0
C      1  0.5943040000000  0.5307970000000  0.4567270000000 1.0
C      1  0.4210600000000  0.5521710000000  0.4702900000000 1.0
C      1  0.4386390000000  0.5177140000000  0.5997710000000 1.0
C      1  0.4798750000000  0.5399670000000  0.4536290000000 1.0
C      1  0.5769190000000  0.4041050000000  0.4678890000000 1.0
C      1  0.5545940000000  0.5585050000000  0.5120020000000 1.0
C      1  0.5076120000000  0.5292600000000  0.5923090000000 1.0
C      1  0.4597490000000  0.4064680000000  0.5509670000000 1.0
C      1  0.5037040000000  0.4387230000000  0.4672810000000 1.0
C      1  0.4882990000000  0.6083850000000  0.5301150000000 1.0
C      1  0.5876580000000  0.5570010000000  0.5485180000000 1.0
C      1  0.4829140000000  0.5589490000000  0.5354750000000 1.0
C      1  0.4335970000000  0.5461060000000  0.4460540000000 1.0
C      1  0.4104010000000  0.5562220000000  0.5549330000000 1.0
C      1  0.4236760000000  0.4587390000000  0.4219450000000 1.0
C      1  0.4888090000000  0.5461340000000  0.4812540000000 1.0
C      1  0.5203110000000  0.5764580000000  0.5847120000000 1.0
C      1  0.3806500000000  0.5160220000000  0.5520130000000 1.0
C      1  0.5203610000000  0.4337360000000  0.4911100000000 1.0
C      1  0.5035350000000  0.5814050000000  0.4484640000000 1.0
C      1  0.4817140000000  0.5941000000000  0.6032010000000 1.0
C      1  0.4598340000000  0.3913770000000  0.5022250000000 1.0
C      1  0.5058930000000  0.4826640000000  0.6098800000000 1.0
C      1  0.4905690000000  0.4976480000000  0.5601060000000 1.0
C      1  0.4946490000000  0.5229070000000  0.3930380000000 1.0
C      1  0.4120590000000  0.5173820000000  0.5891630000000 1.0
C      1  0.5649840000000  0.4571280000000  0.4391110000000 1.0
C      1  0.4396830000000  0.4757460000000  0.4756940000000 1.0
C      1  0.4871560000000  0.4100040000000  0.5521060000000 1.0
C      1  0.4656010000000  0.4521680000000  0.6085770000000 1.0
C      1  0.4848500000000  0.5618300000000  0.4358490000000 1.0
C      1  0.4437060000000  0.4013130000000  0.5256240000000 1.0
C      1  0.6020790000000  0.4236120000000  0.5093000000000 1.0
C      1  0.5382130000000  0.4955370000000  0.4022160000000 1.0
C      1  0.4539390000000  0.4320330000000  0.5945590000000 1.0
C      1  0.5665380000000  0.4571420000000  0.4924180000000 1.0
C      1  0.5932570000000  0.5526500000000  0.3854290000000 1.0
C      1  0.5486530000000  0.5973040000000  0.4397650000000 1.0
C      1  0.5133500000000  0.4206950000000  0.4052680000000 1.0
C      1  0.5730480000000  0.5117930000000  0.5499550000000 1.0
C      1  0.5252150000000  0.4363740000000  0.4251780000000 1.0
C      1  0.6225670000000  0.5028870000000  0.5048630000000 1.0
C      1  0.5451590000000  0.6040630000000  0.5328410000000 1.0
C      1  0.4509310000000  0.5167900000000  0.4042440000000 1.0
C      1  0.5252130000000  0.4986150000000  0.4460580000000 1.0
C      1  0.5187810000000  0.4806230000000  0.3871950000000 1.0
C      1  0.5943160000000  0.5290610000000  0.5407910000000 1.0
C      1  0.6183470000000  0.4528690000000  0.5446290000000 1.0
C      1  0.4658060000000  0.5620050000000  0.4141180000000 1.0
C      1  0.5545940000000  0.4075830000000  0.4510130000000 1.0
C      1  0.6150980000000  0.5184920000000  0.5253260000000 1.0
C      1  0.5100800000000  0.4521380000000  0.4434440000000 1.0
C      1  0.4929910000000  0.6078050000000  0.4588360000000 1.0
C      1  0.5013940000000  0.4332020000000  0.5134580000000 1.0
C      1  0.4864660000000  0.6224550000000  0.4806480000000 1.0
C      1  0.4839580000000  0.6251610000000  0.5075700000000 1.0
C      1  0.6003190000000  0.4471920000000  0.5249830000000 1.0
C      1  0.5081510000000  0.3734700000000  0.5191130000000 1.0
C      1  0.4727020000000  0.4711820000000  0.4070060000000 1.0
C      1  0.5772460000000  0.4618550000000  0.4656770000000 1.0
C      1  0.5331890000000  0.5545380000000  0.4122410000000 1.0
C      1  0.4760820000000  0.4792530000000  0.6106670000000 1.0
C      1  0.4730970000000  0.4029900000000  0.4268550000000 1.0
C      1  0.3700840000000  0.4928220000000  0.5425630000000 1.0
C      1  0.5936820000000  0.4847230000000  0.4657620000000 1.0
C      1  0.4694830000000  0.5377970000000  0.3969940000000 1.0
C      1  0.5929690000000  0.4090740000000  0.4887140000000 1.0
C      1  0.5614410000000  0.6027470000000  0.4633120000000 1.0
C      1  0.4775650000000  0.4864500000000  0.4319490000000 1.0
C      1  0.5752150000000  0.5464950000000  0.4998460000000 1.0
C      1  0.5270040000000  0.5808600000000  0.4284850000000 1.0
C      1  0.5897430000000  0.5944730000000  0.5087710000000 1.0
C      1  0.5515390000000  0.5997780000000  0.5584460000000 1.0
C      1  0.4301360000000  0.5677960000000  0.5372730000000 1.0
C      1  0.5861230000000  0.5476310000000  0.4117130000000 1.0
C      1  0.5365280000000  0.5521620000000  0.4677260000000 1.0
C      1  0.4267040000000  0.5061130000000  0.5189970000000 1.0
C      1  0.5490770000000  0.5043100000000  0.4612020000000 1.0
C      1  0.5113550000000  0.5660490000000  0.4756040000000 1.0
C      1  0.4125770000000  0.4846910000000  0.4260390000000 1.0
C      1  0.4252090000000  0.6047090000000  0.4660430000000 1.0
C      1  0.5095780000000  0.4797080000000  0.5499390000000 1.0
C      1  0.5644930000000  0.4829340000000  0.5913680000000 1.0
C      1  0.4763080000000  0.4424810000000  0.4767340000000 1.0
C      1  0.4817800000000  0.4524390000000  0.5030360000000 1.0
C      1  0.4072020000000  0.4410660000000  0.4645760000000 1.0
C      1  0.4590060000000  0.4982050000000  0.5964240000000 1.0
C      1  0.4649560000000  0.4925600000000  0.5690370000000 1.0
C      1  0.4230470000000  0.4704570000000  0.5547880000000 1.0
C      1  0.4172720000000  0.4106950000000  0.5643250000000 1.0
C      1  0.4959640000000  0.4772310000000  0.5018520000000 1.0
C      1  0.5643780000000  0.5544150000000  0.5682530000000 1.0
C      1  0.5323020000000  0.3897210000000  0.4534570000000 1.0
C      1  0.5260140000000  0.4457770000000  0.5798020000000 1.0
C      1  0.5947660000000  0.5793560000000  0.5314840000000 1.0
C      1  0.4911010000000  0.4871540000000  0.3887320000000 1.0
C      1  0.4516980000000  0.4508980000000  0.4167660000000 1.0
C      1  0.4206240000000  0.6027040000000  0.4933320000000 1.0
C      1  0.4255030000000  0.5800690000000  0.5109110000000 1.0
C      1  0.6042120000000  0.5396260000000  0.4318960000000 1.0
C      1  0.5572250000000  0.4790140000000  0.4187130000000 1.0
C      1  0.4861840000000  0.5693830000000  0.6147860000000 1.0
C      1  0.5651010000000  0.4666730000000  0.5677890000000 1.0
C      1  0.4990320000000  0.5241650000000  0.5659450000000 1.0
C      1  0.4018870000000  0.4995120000000  0.4460830000000 1.0
C      1  0.4969200000000  0.5233650000000  0.4981530000000 1.0
C      1  0.5098400000000  0.4522790000000  0.5573660000000 1.0
C      1  0.4191340000000  0.4582280000000  0.4834560000000 1.0
C      1  0.5990600000000  0.5572250000000  0.3604380000000 1.0
C      1  0.5782740000000  0.5072750000000  0.4575100000000 1.0
C      1  0.4007310000000  0.4913320000000  0.5928160000000 1.0
C      1  0.4788770000000  0.3876270000000  0.4516550000000 1.0
C      1  0.5513920000000  0.4318420000000  0.4354530000000 1.0
C      1  0.4824160000000  0.4997650000000  0.4932840000000 1.0
C      1  0.4609280000000  0.3983680000000  0.4735190000000 1.0
C      1  0.4578550000000  0.4260110000000  0.4637000000000 1.0
C      1  0.5579410000000  0.4165560000000  0.5583920000000 1.0
C      1  0.5625670000000  0.4838490000000  0.5404950000000 1.0
C      1  0.4235970000000  0.4791280000000  0.5281310000000 1.0
C      1  0.4929900000000  0.6126750000000  0.5576550000000 1.0
C      1  0.4545310000000  0.5508930000000  0.5367070000000 1.0
C      1  0.5021210000000  0.5388180000000  0.5426180000000 1.0
C      1  0.5214940000000  0.5289710000000  0.4019640000000 1.0
C      1  0.5589170000000  0.5256950000000  0.5726000000000 1.0
C      1  0.5601370000000  0.5496020000000  0.4219620000000 1.0
C      1  0.5562900000000  0.5495110000000  0.4501370000000 1.0
C      1  0.6155660000000  0.4892260000000  0.4828400000000 1.0
C      1  0.4571370000000  0.5064810000000  0.4304400000000 1.0
C      1  0.5433500000000  0.5868550000000  0.5086300000000 1.0
C      1  0.4093150000000  0.4705250000000  0.5778670000000 1.0
C      1  0.4155060000000  0.4073950000000  0.5351850000000 1.0
END
