TITL C-612600-6631-1417 342.773282838359 125000 -755.792444060059 0 0 124 (C1) n - 1
REM
REM in /home/nfs/bkarasulu/CARBON/AIRSS/Generating-Clusters/TERSOFF/Only-C1/FIRE-HFTN
REM
REM
REM
REM
REM
REM ./C.cell (11c1c37f851c82e70ff6c80c92926a4b)
REM AIRSS Version 0.9.1 bugfix July 2018 build 013d7b7c2542+ Fri, 06 Jul 2018 19:26:36 +0100
REM compiler GCC version 9.2.1 20190827 (Red Hat 9.2.1-1)
REM options -cpp -mtune=generic -march=x86-64 -g -O0 -fpre-include=/usr/include/finclude/math-vector-fortran.h
REM seed -2056378148 -1029750573 1941405148 237093569 1586674358 -1904695046 -316702163 966289749 -705594414 74977215 206209698 -1497123989 256081554 -2112056446 85304663 684843810 -1023967534 -1065694486 -186738297 -1867400775 -90537524 1429190014 428295807 -31898100 -393588619 -365919082 1700898720 -678566656 755480489 -1733542497 1387688275 -893368302 495172979
REM
CELL 1.54180   50.00000   50.00000   50.00000   90.00000   90.00000   90.00000
LATT -1
SFAC C  
C      1  0.4562840000000  0.5673490000000  0.5794940000000 1.0
C      1  0.4612370000000  0.4689470000000  0.4505830000000 1.0
C      1  0.4774550000000  0.4528460000000  0.3999500000000 1.0
C      1  0.4530850000000  0.5416110000000  0.5695600000000 1.0
C      1  0.4061990000000  0.5250770000000  0.5639940000000 1.0
C      1  0.6438920000000  0.4765440000000  0.6594880000000 1.0
C      1  0.5165510000000  0.5532980000000  0.5296090000000 1.0
C      1  0.3905470000000  0.4767140000000  0.5339310000000 1.0
C      1  0.5240590000000  0.5027560000000  0.4493890000000 1.0
C      1  0.3941030000000  0.4901720000000  0.5094020000000 1.0
C      1  0.4425680000000  0.5800720000000  0.5185260000000 1.0
C      1  0.4776740000000  0.4533430000000  0.5411620000000 1.0
C      1  0.5560190000000  0.4116680000000  0.5071860000000 1.0
C      1  0.4718510000000  0.5072080000000  0.4192720000000 1.0
C      1  0.5483780000000  0.4241080000000  0.5326510000000 1.0
C      1  0.4108860000000  0.5425480000000  0.5034720000000 1.0
C      1  0.5267640000000  0.4633070000000  0.3994880000000 1.0
C      1  0.5100150000000  0.5080540000000  0.5495660000000 1.0
C      1  0.4749030000000  0.5046440000000  0.5842870000000 1.0
C      1  0.4489010000000  0.5162840000000  0.5815990000000 1.0
C      1  0.4841230000000  0.4383160000000  0.4233160000000 1.0
C      1  0.4633060000000  0.5395310000000  0.5435110000000 1.0
C      1  0.5595620000000  0.4504630000000  0.5415120000000 1.0
C      1  0.4588350000000  0.4421790000000  0.5595460000000 1.0
C      1  0.4230820000000  0.4761380000000  0.5707620000000 1.0
C      1  0.5864640000000  0.5007320000000  0.6108070000000 1.0
C      1  0.4792980000000  0.5424570000000  0.4602780000000 1.0
C      1  0.4675280000000  0.5400140000000  0.5173920000000 1.0
C      1  0.4522680000000  0.5291430000000  0.4964640000000 1.0
C      1  0.4721550000000  0.5717150000000  0.4682690000000 1.0
C      1  0.5007880000000  0.5377930000000  0.4805590000000 1.0
C      1  0.4064250000000  0.4596950000000  0.3747890000000 1.0
C      1  0.4717900000000  0.4811850000000  0.5397770000000 1.0
C      1  0.5279020000000  0.4102580000000  0.5465680000000 1.0
C      1  0.5633230000000  0.5416290000000  0.4378910000000 1.0
C      1  0.5141260000000  0.5932800000000  0.4445800000000 1.0
C      1  0.4789500000000  0.3906080000000  0.5444850000000 1.0
C      1  0.6056820000000  0.4925990000000  0.6271390000000 1.0
C      1  0.5548660000000  0.5661930000000  0.4261990000000 1.0
C      1  0.4334960000000  0.5480910000000  0.4854070000000 1.0
C      1  0.4137200000000  0.4615380000000  0.4725850000000 1.0
C      1  0.5058910000000  0.4356800000000  0.4644850000000 1.0
C      1  0.5846250000000  0.5557740000000  0.5157900000000 1.0
C      1  0.4841800000000  0.5273300000000  0.4362510000000 1.0
C      1  0.6069360000000  0.5594490000000  0.5607000000000 1.0
C      1  0.4624820000000  0.4896410000000  0.5144550000000 1.0
C      1  0.3943540000000  0.4738330000000  0.4863540000000 1.0
C      1  0.5239760000000  0.5282680000000  0.4062600000000 1.0
C      1  0.5362080000000  0.4988490000000  0.5574480000000 1.0
C      1  0.5455660000000  0.4853870000000  0.4003310000000 1.0
C      1  0.5525260000000  0.4035310000000  0.4796840000000 1.0
C      1  0.5948160000000  0.4540090000000  0.5085330000000 1.0
C      1  0.4917510000000  0.5180820000000  0.6026320000000 1.0
C      1  0.5040170000000  0.5420560000000  0.6014730000000 1.0
C      1  0.5639150000000  0.4690680000000  0.4426850000000 1.0
C      1  0.4398300000000  0.5046580000000  0.5061010000000 1.0
C      1  0.4555120000000  0.4843810000000  0.4264020000000 1.0
C      1  0.5001750000000  0.5832370000000  0.4672600000000 1.0
C      1  0.5055190000000  0.6176900000000  0.5372190000000 1.0
C      1  0.5870520000000  0.4530460000000  0.5343510000000 1.0
C      1  0.5849410000000  0.5585980000000  0.5448280000000 1.0
C      1  0.5812830000000  0.4530700000000  0.4854810000000 1.0
C      1  0.4173670000000  0.5608740000000  0.5265350000000 1.0
C      1  0.4845710000000  0.4948510000000  0.4973190000000 1.0
C      1  0.5442930000000  0.5584840000000  0.4822070000000 1.0
C      1  0.5995260000000  0.5362500000000  0.5023830000000 1.0
C      1  0.4393910000000  0.4602340000000  0.4656030000000 1.0
C      1  0.5725040000000  0.5166980000000  0.4263220000000 1.0
C      1  0.5148350000000  0.4111150000000  0.4519220000000 1.0
C      1  0.5955400000000  0.5133150000000  0.4890940000000 1.0
C      1  0.4886210000000  0.4982110000000  0.3963720000000 1.0
C      1  0.4144510000000  0.4344970000000  0.5464850000000 1.0
C      1  0.4460960000000  0.4603050000000  0.5779810000000 1.0
C      1  0.5267620000000  0.3926750000000  0.4709590000000 1.0
C      1  0.5574480000000  0.5606770000000  0.5533520000000 1.0
C      1  0.4489870000000  0.5736040000000  0.4879200000000 1.0
C      1  0.5366500000000  0.5104720000000  0.3901070000000 1.0
C      1  0.5085420000000  0.4789650000000  0.4484420000000 1.0
C      1  0.5529830000000  0.5383070000000  0.4644170000000 1.0
C      1  0.4736500000000  0.5829810000000  0.5635910000000 1.0
C      1  0.5049490000000  0.3964190000000  0.5477030000000 1.0
C      1  0.5173280000000  0.5585120000000  0.5824870000000 1.0
C      1  0.5192930000000  0.4563770000000  0.5057070000000 1.0
C      1  0.4530980000000  0.3983140000000  0.5435270000000 1.0
C      1  0.5581960000000  0.5637370000000  0.5060770000000 1.0
C      1  0.4115600000000  0.5125500000000  0.5081960000000 1.0
C      1  0.4988740000000  0.4710870000000  0.3930730000000 1.0
C      1  0.4077190000000  0.5491170000000  0.5508980000000 1.0
C      1  0.5340340000000  0.4380100000000  0.4121800000000 1.0
C      1  0.5342330000000  0.4791000000000  0.5139160000000 1.0
C      1  0.5675680000000  0.5089890000000  0.5941920000000 1.0
C      1  0.4404420000000  0.4227160000000  0.5493010000000 1.0
C      1  0.5641260000000  0.4889720000000  0.4222820000000 1.0
C      1  0.4983330000000  0.4463070000000  0.5227380000000 1.0
C      1  0.4288240000000  0.4628910000000  0.3885580000000 1.0
C      1  0.5087840000000  0.5264370000000  0.5278570000000 1.0
C      1  0.5378640000000  0.4198880000000  0.4343560000000 1.0
C      1  0.5416420000000  0.5653940000000  0.5296600000000 1.0
C      1  0.4518590000000  0.4663560000000  0.4034010000000 1.0
C      1  0.5428120000000  0.5465890000000  0.5732060000000 1.0
C      1  0.5163130000000  0.6038190000000  0.5581100000000 1.0
C      1  0.5592260000000  0.4214570000000  0.4557350000000 1.0
C      1  0.4062530000000  0.4618590000000  0.5518840000000 1.0
C      1  0.5597040000000  0.4497720000000  0.4655800000000 1.0
C      1  0.4635130000000  0.5921190000000  0.5367030000000 1.0
C      1  0.5259270000000  0.4481600000000  0.4801480000000 1.0
C      1  0.4888720000000  0.4547850000000  0.4488480000000 1.0
C      1  0.5056970000000  0.5156670000000  0.4996910000000 1.0
C      1  0.4859960000000  0.4965960000000  0.5590830000000 1.0
C      1  0.5161970000000  0.5625330000000  0.4808730000000 1.0
C      1  0.4237550000000  0.5047210000000  0.5744380000000 1.0
C      1  0.6249450000000  0.4845050000000  0.6434480000000 1.0
C      1  0.5320130000000  0.5016640000000  0.4966470000000 1.0
C      1  0.3839770000000  0.4565180000000  0.3610710000000 1.0
C      1  0.4810040000000  0.6124880000000  0.5264210000000 1.0
C      1  0.5130830000000  0.5235090000000  0.4320160000000 1.0
C      1  0.5750700000000  0.5002720000000  0.4774550000000 1.0
C      1  0.5491010000000  0.5178000000000  0.5751930000000 1.0
C      1  0.5451780000000  0.4764890000000  0.5405360000000 1.0
C      1  0.3615230000000  0.4533440000000  0.3473470000000 1.0
C      1  0.3394410000000  0.4502260000000  0.3338450000000 1.0
C      1  0.5355110000000  0.5848590000000  0.4300540000000 1.0
C      1  0.5027770000000  0.5815760000000  0.5700970000000 1.0
C      1  0.5465620000000  0.5092360000000  0.4712890000000 1.0
END
