TITL C-612603-7354-963 1.52761494027649 125000 -214.37749130278 0 0 37 (C1) n - 1
REM
REM in /home/nfs/bkarasulu/CARBON/AIRSS/Generating-Clusters/TERSOFF/Only-C1/FIRE-HFTN
REM
REM
REM
REM
REM
REM ./C.cell (11c1c37f851c82e70ff6c80c92926a4b)
REM AIRSS Version 0.9.1 bugfix July 2018 build 013d7b7c2542+ Fri, 06 Jul 2018 19:26:36 +0100
REM compiler GCC version 9.2.1 20190827 (Red Hat 9.2.1-1)
REM options -cpp -mtune=generic -march=x86-64 -g -O0 -fpre-include=/usr/include/finclude/math-vector-fortran.h
REM seed 2107999381 -197027810 -399164036 617454785 -1647976148 -2074675269 -173854035 -1480035854 -11378520 1995312593 290869259 1520083067 385558846 -1431901734 1262415465 -831724994 696474515 1440558979 -1620324669 -201296278 1443749331 -386748380 1173001382 -642648314 1126255043 1063177417 -794790183 -1121890963 -1504195862 -1878022478 1589033870 -1207557043 1567206237
REM
CELL 1.54180   50.00000   50.00000   50.00000   90.00000   90.00000   90.00000
LATT -1
SFAC C  
C      1  0.4730040000000  0.5733690000000  0.5159160000000 1.0
C      1  0.4768170000000  0.5610390000000  0.5408200000000 1.0
C      1  0.5022310000000  0.5089710000000  0.4437710000000 1.0
C      1  0.4149190000000  0.4464920000000  0.4865840000000 1.0
C      1  0.4766860000000  0.4339190000000  0.4581650000000 1.0
C      1  0.4562840000000  0.5048730000000  0.4650940000000 1.0
C      1  0.4793800000000  0.5480500000000  0.4475530000000 1.0
C      1  0.5289900000000  0.4757300000000  0.4678760000000 1.0
C      1  0.5056460000000  0.5774820000000  0.4221470000000 1.0
C      1  0.5243730000000  0.5045240000000  0.5586370000000 1.0
C      1  0.5357150000000  0.4656890000000  0.4933140000000 1.0
C      1  0.5170650000000  0.5497800000000  0.4776120000000 1.0
C      1  0.5000660000000  0.4401720000000  0.5178060000000 1.0
C      1  0.4958040000000  0.5404860000000  0.5428790000000 1.0
C      1  0.4623380000000  0.5688760000000  0.5626350000000 1.0
C      1  0.5049610000000  0.5877930000000  0.4478550000000 1.0
C      1  0.4765250000000  0.5198880000000  0.4537640000000 1.0
C      1  0.5208060000000  0.5026690000000  0.4644830000000 1.0
C      1  0.4944500000000  0.5673390000000  0.4677030000000 1.0
C      1  0.4627880000000  0.4397590000000  0.4819550000000 1.0
C      1  0.4764260000000  0.4354900000000  0.5061870000000 1.0
C      1  0.5237030000000  0.5231490000000  0.4845380000000 1.0
C      1  0.4397560000000  0.4563850000000  0.4810190000000 1.0
C      1  0.5486360000000  0.4488910000000  0.6099150000000 1.0
C      1  0.5566330000000  0.4298920000000  0.6265790000000 1.0
C      1  0.5204590000000  0.4567140000000  0.4488150000000 1.0
C      1  0.4950690000000  0.5508940000000  0.4214390000000 1.0
C      1  0.5406400000000  0.4678830000000  0.5932530000000 1.0
C      1  0.5249750000000  0.5175680000000  0.5119200000000 1.0
C      1  0.5644980000000  0.4112060000000  0.6429680000000 1.0
C      1  0.5236550000000  0.4517620000000  0.5127690000000 1.0
C      1  0.5078500000000  0.5248950000000  0.4200610000000 1.0
C      1  0.4992990000000  0.4406190000000  0.4455250000000 1.0
C      1  0.5326100000000  0.4867160000000  0.5764310000000 1.0
C      1  0.4781210000000  0.5768960000000  0.4900150000000 1.0
C      1  0.5151900000000  0.5208480000000  0.5379690000000 1.0
C      1  0.4436320000000  0.4832920000000  0.4740280000000 1.0
END
