TITL C-612607-4507-809 3.76561564678705e-05 125000 -207.835436394851 0 0 36 (C1) n - 1
REM
REM in /home/nfs/bkarasulu/CARBON/AIRSS/Generating-Clusters/TERSOFF/Only-C1/FIRE-HFTN
REM
REM
REM
REM
REM
REM ./C.cell (11c1c37f851c82e70ff6c80c92926a4b)
REM AIRSS Version 0.9.1 bugfix July 2018 build 013d7b7c2542+ Fri, 06 Jul 2018 19:26:36 +0100
REM compiler GCC version 9.2.1 20190827 (Red Hat 9.2.1-1)
REM options -cpp -mtune=generic -march=x86-64 -g -O0 -fpre-include=/usr/include/finclude/math-vector-fortran.h
REM seed -829786486 -1728778743 1797577628 1510809202 -2076773522 -1047817093 749563087 -1651086432 -2010364956 -907210985 -297168854 -1766638214 579054745 111045822 -1308037061 -1735196740 -4220159 1791478385 -2118147342 -1568660680 -18456390 858873584 1938199849 -2011348969 -482271307 -428268085 -1426454190 -800920379 1232645976 1474645448 1243183896 1500298748 -874605937
REM
CELL 1.54180   50.00000   50.00000   50.00000   90.00000   90.00000   90.00000
LATT -1
SFAC C  
C      1  0.5109980000000  0.4913640000000  0.5886740000000 1.0
C      1  0.5191700000000  0.5407590000000  0.5357210000000 1.0
C      1  0.5044320000000  0.4983710000000  0.4938890000000 1.0
C      1  0.4621800000000  0.5286590000000  0.5444130000000 1.0
C      1  0.5206010000000  0.5309620000000  0.4305170000000 1.0
C      1  0.4651630000000  0.5338460000000  0.4648690000000 1.0
C      1  0.5411880000000  0.4311450000000  0.5431780000000 1.0
C      1  0.4639770000000  0.4800460000000  0.5364220000000 1.0
C      1  0.4869050000000  0.4620270000000  0.5346270000000 1.0
C      1  0.4604070000000  0.5107510000000  0.4807860000000 1.0
C      1  0.5365250000000  0.4573880000000  0.5370650000000 1.0
C      1  0.4401990000000  0.4705100000000  0.5232800000000 1.0
C      1  0.4838120000000  0.4430290000000  0.5132600000000 1.0
C      1  0.5211970000000  0.5183410000000  0.5500740000000 1.0
C      1  0.5174460000000  0.4814770000000  0.4780200000000 1.0
C      1  0.4796090000000  0.5083670000000  0.5021520000000 1.0
C      1  0.4647630000000  0.4446030000000  0.4935030000000 1.0
C      1  0.5084860000000  0.5575330000000  0.5178740000000 1.0
C      1  0.5258780000000  0.4628480000000  0.4611470000000 1.0
C      1  0.4915710000000  0.5640080000000  0.4982050000000 1.0
C      1  0.5122580000000  0.4701220000000  0.5451100000000 1.0
C      1  0.4532430000000  0.5479650000000  0.5594650000000 1.0
C      1  0.5664230000000  0.4905930000000  0.5068300000000 1.0
C      1  0.4698850000000  0.5069620000000  0.5289110000000 1.0
C      1  0.4945090000000  0.5303200000000  0.4201010000000 1.0
C      1  0.4441110000000  0.4645400000000  0.4952010000000 1.0
C      1  0.5674680000000  0.5081460000000  0.4868320000000 1.0
C      1  0.4901840000000  0.5286110000000  0.3931820000000 1.0
C      1  0.5556890000000  0.4725680000000  0.5232020000000 1.0
C      1  0.4729990000000  0.5314550000000  0.4381270000000 1.0
C      1  0.5349090000000  0.4447240000000  0.4447350000000 1.0
C      1  0.4741390000000  0.5566180000000  0.4792360000000 1.0
C      1  0.4442250000000  0.4874840000000  0.4780780000000 1.0
C      1  0.5147860000000  0.4934320000000  0.5616320000000 1.0
C      1  0.5586230000000  0.5215220000000  0.4655740000000 1.0
C      1  0.5420430000000  0.5289040000000  0.4461080000000 1.0
END
