TITL C-612601-4209-396 0.00717749835245044 125000 -752.251342080221 0 0 122 (C1) n - 1
REM
REM in /home/nfs/bkarasulu/CARBON/AIRSS/Generating-Clusters/TERSOFF/Only-C1/FIRE-HFTN
REM
REM
REM
REM
REM
REM ./C.cell (11c1c37f851c82e70ff6c80c92926a4b)
REM AIRSS Version 0.9.1 bugfix July 2018 build 013d7b7c2542+ Fri, 06 Jul 2018 19:26:36 +0100
REM compiler GCC version 9.2.1 20190827 (Red Hat 9.2.1-1)
REM options -cpp -mtune=generic -march=x86-64 -g -O0 -fpre-include=/usr/include/finclude/math-vector-fortran.h
REM seed -851062647 1694802530 596324586 -954327282 1600181694 -579442325 -1715707240 2044742424 34137751 624078123 362996869 1017480469 -611899694 -1706128217 -733755517 -869724135 -1531879407 13217751 1004120745 1626345840 -805447062 698891545 1249552502 -1869002891 375651210 -1231811610 685729478 -1978285390 362186234 -1445375246 1756902824 878201232 78815941
REM
CELL 1.54180   50.00000   50.00000   50.00000   90.00000   90.00000   90.00000
LATT -1
SFAC C  
C      1  0.3876640000000  0.4963270000000  0.5259620000000 1.0
C      1  0.4498430000000  0.4799330000000  0.4944980000000 1.0
C      1  0.5647540000000  0.4795180000000  0.4963560000000 1.0
C      1  0.4917410000000  0.4841420000000  0.4068690000000 1.0
C      1  0.4986200000000  0.4581320000000  0.4197580000000 1.0
C      1  0.5321340000000  0.4927770000000  0.4604740000000 1.0
C      1  0.5490250000000  0.5566110000000  0.4913530000000 1.0
C      1  0.4445860000000  0.5103500000000  0.4238040000000 1.0
C      1  0.4929960000000  0.4616460000000  0.5077490000000 1.0
C      1  0.4306120000000  0.5597520000000  0.4794870000000 1.0
C      1  0.5068510000000  0.5563080000000  0.4236470000000 1.0
C      1  0.4786510000000  0.4256430000000  0.4591060000000 1.0
C      1  0.5017160000000  0.4084710000000  0.5243830000000 1.0
C      1  0.5490320000000  0.4780310000000  0.5195560000000 1.0
C      1  0.4625020000000  0.4861890000000  0.4700490000000 1.0
C      1  0.4574850000000  0.4753480000000  0.5757620000000 1.0
C      1  0.4417950000000  0.4726530000000  0.5522060000000 1.0
C      1  0.3856190000000  0.4476420000000  0.5174490000000 1.0
C      1  0.4116530000000  0.5268750000000  0.5660710000000 1.0
C      1  0.4781470000000  0.5973710000000  0.5503940000000 1.0
C      1  0.4633180000000  0.5031960000000  0.5830110000000 1.0
C      1  0.5500020000000  0.4105240000000  0.5649930000000 1.0
C      1  0.4294900000000  0.5512520000000  0.4510890000000 1.0
C      1  0.4728970000000  0.4510630000000  0.5798760000000 1.0
C      1  0.4403890000000  0.5818310000000  0.5248370000000 1.0
C      1  0.4907380000000  0.5072220000000  0.5893900000000 1.0
C      1  0.5714010000000  0.4456630000000  0.6060180000000 1.0
C      1  0.5687120000000  0.4730760000000  0.4078390000000 1.0
C      1  0.4837300000000  0.4389580000000  0.4356120000000 1.0
C      1  0.4469360000000  0.5266070000000  0.5753260000000 1.0
C      1  0.5493960000000  0.4542830000000  0.4099660000000 1.0
C      1  0.4484770000000  0.5762820000000  0.4969140000000 1.0
C      1  0.5305040000000  0.4451310000000  0.4734060000000 1.0
C      1  0.5634570000000  0.5459590000000  0.4235080000000 1.0
C      1  0.5134990000000  0.4515020000000  0.4946650000000 1.0
C      1  0.4078940000000  0.5063330000000  0.4612210000000 1.0
C      1  0.5523280000000  0.4022630000000  0.5171110000000 1.0
C      1  0.5082370000000  0.5764950000000  0.4449830000000 1.0
C      1  0.4515360000000  0.4700210000000  0.4497390000000 1.0
C      1  0.5637680000000  0.5132740000000  0.5718830000000 1.0
C      1  0.5649200000000  0.5006950000000  0.4114220000000 1.0
C      1  0.5265450000000  0.4563500000000  0.4260860000000 1.0
C      1  0.5237630000000  0.3968920000000  0.5102740000000 1.0
C      1  0.5128850000000  0.5069130000000  0.5257890000000 1.0
C      1  0.5153050000000  0.4985540000000  0.3949200000000 1.0
C      1  0.6363770000000  0.4727230000000  0.5121240000000 1.0
C      1  0.5260760000000  0.5120190000000  0.4386760000000 1.0
C      1  0.5785860000000  0.5129250000000  0.4606450000000 1.0
C      1  0.5355020000000  0.4560160000000  0.5737140000000 1.0
C      1  0.5186720000000  0.5178220000000  0.5006990000000 1.0
C      1  0.3966380000000  0.5206210000000  0.4848990000000 1.0
C      1  0.4737940000000  0.4155710000000  0.5129180000000 1.0
C      1  0.5104820000000  0.5012420000000  0.4794810000000 1.0
C      1  0.5229820000000  0.4792790000000  0.5632040000000 1.0
C      1  0.4521790000000  0.4545740000000  0.5333060000000 1.0
C      1  0.5941220000000  0.5214920000000  0.5305060000000 1.0
C      1  0.5085430000000  0.5583160000000  0.5480780000000 1.0
C      1  0.5046330000000  0.5297250000000  0.4341720000000 1.0
C      1  0.5452500000000  0.5410950000000  0.4003830000000 1.0
C      1  0.6039040000000  0.5101480000000  0.5060810000000 1.0
C      1  0.4624310000000  0.4221320000000  0.4836820000000 1.0
C      1  0.5165270000000  0.5027110000000  0.5792340000000 1.0
C      1  0.5434320000000  0.4201140000000  0.4751670000000 1.0
C      1  0.4278510000000  0.5701970000000  0.4311570000000 1.0
C      1  0.5252160000000  0.5452420000000  0.5009620000000 1.0
C      1  0.5358940000000  0.5829260000000  0.4484480000000 1.0
C      1  0.4825480000000  0.5686530000000  0.5589140000000 1.0
C      1  0.4613240000000  0.4283300000000  0.5374540000000 1.0
C      1  0.4098440000000  0.5448460000000  0.4918570000000 1.0
C      1  0.5326020000000  0.5482650000000  0.5606460000000 1.0
C      1  0.4346520000000  0.5626940000000  0.5454680000000 1.0
C      1  0.4828110000000  0.5260390000000  0.4515010000000 1.0
C      1  0.5659760000000  0.5727140000000  0.5048260000000 1.0
C      1  0.4769620000000  0.5833270000000  0.4892520000000 1.0
C      1  0.4295130000000  0.4951770000000  0.5417140000000 1.0
C      1  0.5313220000000  0.4638850000000  0.4527930000000 1.0
C      1  0.5048630000000  0.4209080000000  0.5517240000000 1.0
C      1  0.4665530000000  0.5235240000000  0.5236780000000 1.0
C      1  0.5892360000000  0.4648140000000  0.4984490000000 1.0
C      1  0.4964500000000  0.6053310000000  0.5296940000000 1.0
C      1  0.3773450000000  0.5127360000000  0.5048620000000 1.0
C      1  0.5576520000000  0.5690740000000  0.4392110000000 1.0
C      1  0.5612910000000  0.3993410000000  0.5433570000000 1.0
C      1  0.5415410000000  0.5121430000000  0.3965230000000 1.0
C      1  0.4070950000000  0.4770900000000  0.4574780000000 1.0
C      1  0.3980240000000  0.4717180000000  0.5144920000000 1.0
C      1  0.4099760000000  0.5526330000000  0.5549370000000 1.0
C      1  0.5857880000000  0.4367780000000  0.4972580000000 1.0
C      1  0.4276950000000  0.4557200000000  0.4577260000000 1.0
C      1  0.5361020000000  0.5232490000000  0.5757560000000 1.0
C      1  0.5288820000000  0.4292930000000  0.5652440000000 1.0
C      1  0.5248110000000  0.3985300000000  0.4812570000000 1.0
C      1  0.4574760000000  0.5525870000000  0.5621580000000 1.0
C      1  0.5982330000000  0.5210020000000  0.4798790000000 1.0
C      1  0.4221400000000  0.4755690000000  0.4999180000000 1.0
C      1  0.5765490000000  0.5293470000000  0.5513910000000 1.0
C      1  0.4790900000000  0.4298620000000  0.5611150000000 1.0
C      1  0.4718480000000  0.5500720000000  0.4588660000000 1.0
C      1  0.5592800000000  0.4953980000000  0.4729370000000 1.0
C      1  0.5103820000000  0.5620390000000  0.5186780000000 1.0
C      1  0.4037110000000  0.5050830000000  0.5490810000000 1.0
C      1  0.5742810000000  0.5199150000000  0.4326590000000 1.0
C      1  0.5281880000000  0.4860570000000  0.5360870000000 1.0
C      1  0.6109310000000  0.4818660000000  0.5058060000000 1.0
C      1  0.4352670000000  0.4329240000000  0.4751760000000 1.0
C      1  0.3511470000000  0.5202550000000  0.5036100000000 1.0
C      1  0.5647640000000  0.4180380000000  0.4957060000000 1.0
C      1  0.4520450000000  0.6033920000000  0.5399440000000 1.0
C      1  0.4888060000000  0.5155170000000  0.5355360000000 1.0
C      1  0.5597880000000  0.5535200000000  0.5494830000000 1.0
C      1  0.5706830000000  0.4880790000000  0.5821770000000 1.0
C      1  0.5678620000000  0.5736770000000  0.5317190000000 1.0
C      1  0.4660100000000  0.4976540000000  0.4115500000000 1.0
C      1  0.6601600000000  0.4639690000000  0.5181930000000 1.0
C      1  0.4976780000000  0.5858990000000  0.5090610000000 1.0
C      1  0.4424950000000  0.5129970000000  0.5245930000000 1.0
C      1  0.5222930000000  0.5576480000000  0.4000960000000 1.0
C      1  0.4269320000000  0.5224300000000  0.4442580000000 1.0
C      1  0.5599730000000  0.4623290000000  0.5876820000000 1.0
C      1  0.4857910000000  0.5744010000000  0.4633420000000 1.0
C      1  0.4664200000000  0.4671380000000  0.5126500000000 1.0
C      1  0.4842800000000  0.5035820000000  0.4682290000000 1.0
END
