TITL C-612600-6631-1064 -0.00806630566557275 125000 -522.865447817283 0 0 86 (C1) n - 1
REM
REM in /home/nfs/bkarasulu/CARBON/AIRSS/Generating-Clusters/TERSOFF/Only-C1/FIRE-HFTN
REM
REM
REM
REM
REM
REM ./C.cell (11c1c37f851c82e70ff6c80c92926a4b)
REM AIRSS Version 0.9.1 bugfix July 2018 build 013d7b7c2542+ Fri, 06 Jul 2018 19:26:36 +0100
REM compiler GCC version 9.2.1 20190827 (Red Hat 9.2.1-1)
REM options -cpp -mtune=generic -march=x86-64 -g -O0 -fpre-include=/usr/include/finclude/math-vector-fortran.h
REM seed -1109221703 -398719615 -226024489 -840954579 1288946300 344909118 350661502 -2040733633 -1894271623 397808518 1847721774 1820861390 -1350425341 421169608 -345986364 1197074094 -707891922 496037982 -786928715 1722412581 -374154989 -2035894374 1592477776 1957032841 -1405533338 -1466480261 39709170 -260372107 -999535284 -2142250405 -1740027785 62286617 1153053713
REM
CELL 1.54180   50.00000   50.00000   50.00000   90.00000   90.00000   90.00000
LATT -1
SFAC C  
C      1  0.5006360000000  0.5255810000000  0.4625620000000 1.0
C      1  0.5833250000000  0.4860760000000  0.5611620000000 1.0
C      1  0.4390920000000  0.5233980000000  0.4757840000000 1.0
C      1  0.5661350000000  0.4473060000000  0.4627940000000 1.0
C      1  0.4455890000000  0.5328620000000  0.5268730000000 1.0
C      1  0.4351820000000  0.5618340000000  0.4446610000000 1.0
C      1  0.5412810000000  0.5196590000000  0.4917320000000 1.0
C      1  0.5325630000000  0.5702230000000  0.4087450000000 1.0
C      1  0.4681260000000  0.5031020000000  0.5607040000000 1.0
C      1  0.5560220000000  0.4348000000000  0.5366940000000 1.0
C      1  0.3956560000000  0.4442660000000  0.5119590000000 1.0
C      1  0.4942260000000  0.5424920000000  0.3860940000000 1.0
C      1  0.6028130000000  0.4456120000000  0.5006770000000 1.0
C      1  0.4754130000000  0.4130390000000  0.5472840000000 1.0
C      1  0.5271560000000  0.4982050000000  0.5061010000000 1.0
C      1  0.5703900000000  0.4784370000000  0.4981100000000 1.0
C      1  0.5390100000000  0.5980650000000  0.5314170000000 1.0
C      1  0.4820240000000  0.4574410000000  0.4915440000000 1.0
C      1  0.4625460000000  0.3912650000000  0.4522500000000 1.0
C      1  0.4979470000000  0.4727220000000  0.5944520000000 1.0
C      1  0.5153550000000  0.5564900000000  0.3939290000000 1.0
C      1  0.4273980000000  0.5004640000000  0.3978810000000 1.0
C      1  0.5568270000000  0.5541040000000  0.5293030000000 1.0
C      1  0.4405400000000  0.4814030000000  0.4478620000000 1.0
C      1  0.6007490000000  0.4504110000000  0.5294250000000 1.0
C      1  0.5612650000000  0.4949460000000  0.5739060000000 1.0
C      1  0.5436150000000  0.5892610000000  0.4557190000000 1.0
C      1  0.6010860000000  0.5396850000000  0.5298200000000 1.0
C      1  0.4065600000000  0.4233100000000  0.4695720000000 1.0
C      1  0.5357730000000  0.5704560000000  0.5385370000000 1.0
C      1  0.4538220000000  0.5019650000000  0.4629650000000 1.0
C      1  0.5081130000000  0.5772930000000  0.4864650000000 1.0
C      1  0.5437970000000  0.6025340000000  0.5038350000000 1.0
C      1  0.5001740000000  0.5071160000000  0.5117810000000 1.0
C      1  0.4988030000000  0.5353650000000  0.5076940000000 1.0
C      1  0.4938110000000  0.4730130000000  0.4694690000000 1.0
C      1  0.4715080000000  0.5289040000000  0.3844510000000 1.0
C      1  0.4456980000000  0.5496190000000  0.4664440000000 1.0
C      1  0.4047180000000  0.4974110000000  0.3829400000000 1.0
C      1  0.4295080000000  0.4887690000000  0.4232040000000 1.0
C      1  0.4628380000000  0.5552850000000  0.5332010000000 1.0
C      1  0.5823930000000  0.4327230000000  0.5418330000000 1.0
C      1  0.4899660000000  0.5894990000000  0.5065240000000 1.0
C      1  0.4490120000000  0.5153840000000  0.3881840000000 1.0
C      1  0.5078780000000  0.5002890000000  0.5852100000000 1.0
C      1  0.4697880000000  0.4335230000000  0.5666930000000 1.0
C      1  0.4304670000000  0.5268780000000  0.5031800000000 1.0
C      1  0.5429240000000  0.5819460000000  0.4301950000000 1.0
C      1  0.5820850000000  0.4564510000000  0.4840140000000 1.0
C      1  0.4781960000000  0.4155920000000  0.5185190000000 1.0
C      1  0.4338000000000  0.4282420000000  0.4642310000000 1.0
C      1  0.4172030000000  0.4548750000000  0.5234550000000 1.0
C      1  0.5882820000000  0.4938710000000  0.5140560000000 1.0
C      1  0.5963750000000  0.4784720000000  0.5369740000000 1.0
C      1  0.5409940000000  0.4515860000000  0.4540700000000 1.0
C      1  0.5006470000000  0.4680400000000  0.5476670000000 1.0
C      1  0.4627400000000  0.4714220000000  0.5076790000000 1.0
C      1  0.4889170000000  0.5463360000000  0.5560080000000 1.0
C      1  0.5441860000000  0.4755720000000  0.5089700000000 1.0
C      1  0.5326230000000  0.5899020000000  0.4812300000000 1.0
C      1  0.4735500000000  0.4964250000000  0.5156030000000 1.0
C      1  0.4582300000000  0.5098520000000  0.5355910000000 1.0
C      1  0.4615400000000  0.4050180000000  0.4983840000000 1.0
C      1  0.5297610000000  0.5234580000000  0.4657920000000 1.0
C      1  0.5869360000000  0.5216680000000  0.5125550000000 1.0
C      1  0.4666360000000  0.5731420000000  0.5107800000000 1.0
C      1  0.5600180000000  0.5335790000000  0.5079500000000 1.0
C      1  0.4939060000000  0.5497230000000  0.4810220000000 1.0
C      1  0.4649550000000  0.5599400000000  0.4839000000000 1.0
C      1  0.4865810000000  0.4472320000000  0.5883290000000 1.0
C      1  0.5363090000000  0.5019110000000  0.5812310000000 1.0
C      1  0.5833860000000  0.5578080000000  0.5405940000000 1.0
C      1  0.4561250000000  0.4558710000000  0.5532300000000 1.0
C      1  0.5164410000000  0.4621410000000  0.4563310000000 1.0
C      1  0.4833610000000  0.5006190000000  0.4632960000000 1.0
C      1  0.5130340000000  0.5605660000000  0.5520890000000 1.0
C      1  0.4526920000000  0.4080070000000  0.4715950000000 1.0
C      1  0.5378650000000  0.6182520000000  0.5496930000000 1.0
C      1  0.4890650000000  0.5200330000000  0.5709770000000 1.0
C      1  0.5110760000000  0.4498710000000  0.5290500000000 1.0
C      1  0.4754080000000  0.4762520000000  0.5575530000000 1.0
C      1  0.3902940000000  0.4304740000000  0.4896440000000 1.0
C      1  0.4406120000000  0.4541490000000  0.4553020000000 1.0
C      1  0.4940080000000  0.4380410000000  0.5096940000000 1.0
C      1  0.4444980000000  0.4588530000000  0.5271120000000 1.0
C      1  0.5381520000000  0.4523250000000  0.5240070000000 1.0
END
