TITL C-612603-7354-1312 3.51539209670923 125000 -626.351862832061 0 0 104 (C1) n - 1
REM
REM in /home/nfs/bkarasulu/CARBON/AIRSS/Generating-Clusters/TERSOFF/Only-C1/FIRE-HFTN
REM
REM
REM
REM
REM
REM ./C.cell (11c1c37f851c82e70ff6c80c92926a4b)
REM AIRSS Version 0.9.1 bugfix July 2018 build 013d7b7c2542+ Fri, 06 Jul 2018 19:26:36 +0100
REM compiler GCC version 9.2.1 20190827 (Red Hat 9.2.1-1)
REM options -cpp -mtune=generic -march=x86-64 -g -O0 -fpre-include=/usr/include/finclude/math-vector-fortran.h
REM seed -1606762555 1797986248 -1847995209 -1385108070 -1769652305 54329769 -733144746 -490110085 1061958232 1327736448 -680383258 386195214 -1666056685 -1665175310 1555095795 -876821709 1937937831 1461669136 1760474782 -972022064 -1678162480 -1679924968 -1313929022 -1762238164 -835049762 -1354786742 -555718989 1308066292 2114686796 1021695459 304666587 605091523 -86717289
REM
CELL 1.54180   50.00000   50.00000   50.00000   90.00000   90.00000   90.00000
LATT -1
SFAC C  
C      1  0.5164650000000  0.5771830000000  0.4594430000000 1.0
C      1  0.4511980000000  0.4642080000000  0.5034270000000 1.0
C      1  0.4566220000000  0.4528490000000  0.4187520000000 1.0
C      1  0.5176150000000  0.4379740000000  0.5487580000000 1.0
C      1  0.4958530000000  0.5156220000000  0.4775040000000 1.0
C      1  0.5455520000000  0.5938600000000  0.5007880000000 1.0
C      1  0.5838600000000  0.5501550000000  0.4785660000000 1.0
C      1  0.5238130000000  0.4040440000000  0.4171240000000 1.0
C      1  0.4540440000000  0.4302610000000  0.4704750000000 1.0
C      1  0.5747250000000  0.4396160000000  0.4254610000000 1.0
C      1  0.4734480000000  0.5041500000000  0.4641250000000 1.0
C      1  0.4522010000000  0.4079420000000  0.4886260000000 1.0
C      1  0.4249730000000  0.5330360000000  0.5932520000000 1.0
C      1  0.5568370000000  0.5825150000000  0.5251510000000 1.0
C      1  0.5150690000000  0.5528340000000  0.4419130000000 1.0
C      1  0.4972810000000  0.5044670000000  0.5042820000000 1.0
C      1  0.5902470000000  0.5472390000000  0.5064020000000 1.0
C      1  0.5183640000000  0.4161170000000  0.4651780000000 1.0
C      1  0.5910740000000  0.5162000000000  0.4150190000000 1.0
C      1  0.5420780000000  0.5824050000000  0.4743280000000 1.0
C      1  0.5351220000000  0.4443540000000  0.5067960000000 1.0
C      1  0.5289190000000  0.5044590000000  0.4421630000000 1.0
C      1  0.4010690000000  0.5728960000000  0.6879670000000 1.0
C      1  0.4839950000000  0.4783700000000  0.4578880000000 1.0
C      1  0.5268820000000  0.4233470000000  0.5256480000000 1.0
C      1  0.4563420000000  0.5385480000000  0.5156320000000 1.0
C      1  0.4710120000000  0.4889850000000  0.5491830000000 1.0
C      1  0.5361040000000  0.5389750000000  0.4804620000000 1.0
C      1  0.4520830000000  0.5102970000000  0.5141230000000 1.0
C      1  0.4358710000000  0.4875870000000  0.5067190000000 1.0
C      1  0.5428260000000  0.5752060000000  0.5487960000000 1.0
C      1  0.5977340000000  0.5296030000000  0.4368830000000 1.0
C      1  0.6031030000000  0.5469690000000  0.4581320000000 1.0
C      1  0.5149860000000  0.4968000000000  0.4187450000000 1.0
C      1  0.4525770000000  0.5281910000000  0.4314640000000 1.0
C      1  0.5376750000000  0.5095390000000  0.5230290000000 1.0
C      1  0.5333590000000  0.4158730000000  0.4404650000000 1.0
C      1  0.5404440000000  0.5317620000000  0.5746960000000 1.0
C      1  0.4339450000000  0.5234350000000  0.5683490000000 1.0
C      1  0.5818970000000  0.5693220000000  0.5220200000000 1.0
C      1  0.5569870000000  0.5569580000000  0.4733000000000 1.0
C      1  0.5817370000000  0.5013890000000  0.5328480000000 1.0
C      1  0.5515340000000  0.4378560000000  0.4404560000000 1.0
C      1  0.5518670000000  0.5053610000000  0.5729580000000 1.0
C      1  0.5010010000000  0.5616230000000  0.5694640000000 1.0
C      1  0.4907360000000  0.5751240000000  0.4738560000000 1.0
C      1  0.4964750000000  0.3939130000000  0.5020650000000 1.0
C      1  0.5291250000000  0.5566850000000  0.5657480000000 1.0
C      1  0.5255070000000  0.5328750000000  0.5251580000000 1.0
C      1  0.5155940000000  0.4776970000000  0.5930800000000 1.0
C      1  0.4774570000000  0.4994310000000  0.5238200000000 1.0
C      1  0.4826540000000  0.5657450000000  0.6200170000000 1.0
C      1  0.5577900000000  0.4903910000000  0.5212450000000 1.0
C      1  0.5447420000000  0.4849180000000  0.4545980000000 1.0
C      1  0.4325020000000  0.5384370000000  0.4747530000000 1.0
C      1  0.4932720000000  0.4844770000000  0.4088710000000 1.0
C      1  0.4761320000000  0.5581210000000  0.5205860000000 1.0
C      1  0.4493600000000  0.4400980000000  0.4439160000000 1.0
C      1  0.4950590000000  0.5629110000000  0.4997980000000 1.0
C      1  0.3973320000000  0.5089060000000  0.4891180000000 1.0
C      1  0.5032730000000  0.3939790000000  0.4744600000000 1.0
C      1  0.5832770000000  0.5045970000000  0.3930150000000 1.0
C      1  0.5189490000000  0.5269850000000  0.4590480000000 1.0
C      1  0.4511340000000  0.5055540000000  0.4140650000000 1.0
C      1  0.4906980000000  0.5640880000000  0.5952840000000 1.0
C      1  0.4195700000000  0.5331840000000  0.5456860000000 1.0
C      1  0.4807140000000  0.4648700000000  0.5618700000000 1.0
C      1  0.4730750000000  0.4223140000000  0.5340260000000 1.0
C      1  0.4116990000000  0.5526500000000  0.6406240000000 1.0
C      1  0.4418350000000  0.5651600000000  0.4712430000000 1.0
C      1  0.4561840000000  0.5053800000000  0.5691060000000 1.0
C      1  0.4081570000000  0.4855920000000  0.5004780000000 1.0
C      1  0.4889680000000  0.4405640000000  0.5501480000000 1.0
C      1  0.4113840000000  0.5409250000000  0.5210090000000 1.0
C      1  0.4665530000000  0.5691120000000  0.4577430000000 1.0
C      1  0.4685580000000  0.4958590000000  0.5939390000000 1.0
C      1  0.5947030000000  0.5220150000000  0.5184170000000 1.0
C      1  0.6265970000000  0.5609700000000  0.4589500000000 1.0
C      1  0.4112110000000  0.5331230000000  0.4933490000000 1.0
C      1  0.5471180000000  0.4646130000000  0.5248700000000 1.0
C      1  0.4680380000000  0.4494660000000  0.4869140000000 1.0
C      1  0.5182340000000  0.3977520000000  0.5194140000000 1.0
C      1  0.4712970000000  0.4051950000000  0.5104160000000 1.0
C      1  0.4492530000000  0.5196210000000  0.4593880000000 1.0
C      1  0.4652020000000  0.4804830000000  0.4128600000000 1.0
C      1  0.5215150000000  0.4453280000000  0.4789440000000 1.0
C      1  0.5780380000000  0.5035180000000  0.5611440000000 1.0
C      1  0.5044470000000  0.4045860000000  0.3987970000000 1.0
C      1  0.5423030000000  0.4576490000000  0.4592450000000 1.0
C      1  0.5356220000000  0.4610620000000  0.5522970000000 1.0
C      1  0.4879060000000  0.4748000000000  0.5889600000000 1.0
C      1  0.5969420000000  0.4399340000000  0.4118450000000 1.0
C      1  0.4946730000000  0.5527570000000  0.4222840000000 1.0
C      1  0.5197500000000  0.5479340000000  0.5026870000000 1.0
C      1  0.4814880000000  0.4160520000000  0.3915260000000 1.0
C      1  0.4063120000000  0.5628470000000  0.6644900000000 1.0
C      1  0.4682350000000  0.5531070000000  0.4324530000000 1.0
C      1  0.4631400000000  0.4341960000000  0.3983740000000 1.0
C      1  0.4840100000000  0.5640660000000  0.5470280000000 1.0
C      1  0.4930030000000  0.4580370000000  0.4760080000000 1.0
C      1  0.4958200000000  0.3732750000000  0.4582710000000 1.0
C      1  0.5361060000000  0.4807290000000  0.5736400000000 1.0
C      1  0.4176120000000  0.5426290000000  0.6168180000000 1.0
C      1  0.3932650000000  0.4633330000000  0.5054780000000 1.0
END
