TITL C-612605-9286-576 0.477577170972121 125000 -691.863201141585 0 0 114 (C1) n - 1
REM
REM in /home/nfs/bkarasulu/CARBON/AIRSS/Generating-Clusters/TERSOFF/Only-C1/FIRE-HFTN
REM
REM
REM
REM
REM
REM ./C.cell (11c1c37f851c82e70ff6c80c92926a4b)
REM AIRSS Version 0.9.1 bugfix July 2018 build 013d7b7c2542+ Fri, 06 Jul 2018 19:26:36 +0100
REM compiler GCC version 9.2.1 20190827 (Red Hat 9.2.1-1)
REM options -cpp -mtune=generic -march=x86-64 -g -O0 -fpre-include=/usr/include/finclude/math-vector-fortran.h
REM seed -1828208063 623046657 735033084 1529244013 493831573 123929416 193965171 1753627528 1638677917 -1057249460 -116066548 -630474915 766618930 -1721546309 727323488 -1795949601 804438931 1840439920 1400851824 -212697325 -111211587 -2032077002 -1605242722 -2137504364 492675252 661117193 -1401602832 1941311693 973739634 968870499 921560153 1381377623 638093160
REM
CELL 1.54180   50.00000   50.00000   50.00000   90.00000   90.00000   90.00000
LATT -1
SFAC C  
C      1  0.6075510000000  0.5977090000000  0.4499070000000 1.0
C      1  0.5721820000000  0.4323950000000  0.5465260000000 1.0
C      1  0.5819890000000  0.5986720000000  0.4567930000000 1.0
C      1  0.5690890000000  0.5345050000000  0.4498880000000 1.0
C      1  0.5203710000000  0.5508910000000  0.4804680000000 1.0
C      1  0.5718970000000  0.5124550000000  0.4686180000000 1.0
C      1  0.4461150000000  0.4576170000000  0.5460910000000 1.0
C      1  0.4592510000000  0.4873490000000  0.4161360000000 1.0
C      1  0.4481720000000  0.5555730000000  0.4953660000000 1.0
C      1  0.5302700000000  0.5457470000000  0.5318120000000 1.0
C      1  0.4658120000000  0.5368550000000  0.4189440000000 1.0
C      1  0.4705770000000  0.5413620000000  0.4464360000000 1.0
C      1  0.4059020000000  0.3870130000000  0.5183390000000 1.0
C      1  0.4993320000000  0.4202490000000  0.5674310000000 1.0
C      1  0.5814090000000  0.4563340000000  0.5340960000000 1.0
C      1  0.5047400000000  0.6169760000000  0.4823570000000 1.0
C      1  0.5159290000000  0.6077690000000  0.5273500000000 1.0
C      1  0.3954960000000  0.5267970000000  0.5292940000000 1.0
C      1  0.5054510000000  0.3890470000000  0.4718000000000 1.0
C      1  0.5082900000000  0.4084070000000  0.4499330000000 1.0
C      1  0.4870460000000  0.5086290000000  0.5234630000000 1.0
C      1  0.4887860000000  0.5350350000000  0.5125400000000 1.0
C      1  0.5607790000000  0.5750400000000  0.5091370000000 1.0
C      1  0.4902790000000  0.3987790000000  0.4979170000000 1.0
C      1  0.5150750000000  0.5420600000000  0.5575310000000 1.0
C      1  0.5147290000000  0.5438460000000  0.5072660000000 1.0
C      1  0.4534520000000  0.4966400000000  0.5949530000000 1.0
C      1  0.4453660000000  0.5296590000000  0.4845750000000 1.0
C      1  0.5187840000000  0.5765650000000  0.4366770000000 1.0
C      1  0.4219520000000  0.5169070000000  0.4302820000000 1.0
C      1  0.4801770000000  0.5003070000000  0.5952560000000 1.0
C      1  0.4543390000000  0.4313940000000  0.5518470000000 1.0
C      1  0.5440480000000  0.4775270000000  0.5479760000000 1.0
C      1  0.4604090000000  0.4126520000000  0.4571190000000 1.0
C      1  0.5329460000000  0.4811240000000  0.5216650000000 1.0
C      1  0.5322770000000  0.6230820000000  0.4284430000000 1.0
C      1  0.5012680000000  0.5718310000000  0.4145720000000 1.0
C      1  0.4476960000000  0.5138120000000  0.4170620000000 1.0
C      1  0.4862340000000  0.5448750000000  0.5597900000000 1.0
C      1  0.4289960000000  0.3970590000000  0.5265390000000 1.0
C      1  0.4695940000000  0.5566500000000  0.5138470000000 1.0
C      1  0.5496180000000  0.5239500000000  0.5932850000000 1.0
C      1  0.5506690000000  0.4936120000000  0.4595740000000 1.0
C      1  0.3829440000000  0.3770200000000  0.5096420000000 1.0
C      1  0.5734970000000  0.4351410000000  0.4618460000000 1.0
C      1  0.4990210000000  0.4447020000000  0.4993940000000 1.0
C      1  0.4638700000000  0.4064060000000  0.4833700000000 1.0
C      1  0.3603820000000  0.3671960000000  0.5010350000000 1.0
C      1  0.5344740000000  0.5073620000000  0.4403720000000 1.0
C      1  0.5775640000000  0.3886980000000  0.4982370000000 1.0
C      1  0.4796280000000  0.6141140000000  0.4736100000000 1.0
C      1  0.5728270000000  0.4811240000000  0.5466960000000 1.0
C      1  0.4367820000000  0.5447540000000  0.5528910000000 1.0
C      1  0.4317840000000  0.5077420000000  0.4948080000000 1.0
C      1  0.5507790000000  0.3892850000000  0.5021850000000 1.0
C      1  0.4817160000000  0.4181550000000  0.4391800000000 1.0
C      1  0.5516730000000  0.4976620000000  0.6018240000000 1.0
C      1  0.3924800000000  0.5060640000000  0.5487660000000 1.0
C      1  0.5360310000000  0.4095850000000  0.5156290000000 1.0
C      1  0.5854080000000  0.4356930000000  0.4877250000000 1.0
C      1  0.5578580000000  0.5507250000000  0.5246800000000 1.0
C      1  0.4729360000000  0.4289470000000  0.5731670000000 1.0
C      1  0.5799670000000  0.5186650000000  0.4946170000000 1.0
C      1  0.5549550000000  0.5974150000000  0.4639270000000 1.0
C      1  0.4785760000000  0.4990350000000  0.4668030000000 1.0
C      1  0.4646490000000  0.5056950000000  0.5414600000000 1.0
C      1  0.5492730000000  0.4690440000000  0.4999480000000 1.0
C      1  0.5048830000000  0.4867840000000  0.5214000000000 1.0
C      1  0.5112170000000  0.4198710000000  0.5051000000000 1.0
C      1  0.4735140000000  0.4670370000000  0.4303150000000 1.0
C      1  0.5246940000000  0.6085580000000  0.5005950000000 1.0
C      1  0.4139030000000  0.5463010000000  0.5387540000000 1.0
C      1  0.5280750000000  0.4296830000000  0.4422380000000 1.0
C      1  0.5472600000000  0.4445420000000  0.4572050000000 1.0
C      1  0.5248880000000  0.5538560000000  0.4526230000000 1.0
C      1  0.5439220000000  0.4694660000000  0.4717860000000 1.0
C      1  0.4985370000000  0.3980380000000  0.5491350000000 1.0
C      1  0.5195860000000  0.4395580000000  0.5710160000000 1.0
C      1  0.5075240000000  0.5040210000000  0.5895040000000 1.0
C      1  0.5248160000000  0.6686560000000  0.4033490000000 1.0
C      1  0.4563170000000  0.6010200000000  0.4734730000000 1.0
C      1  0.4857100000000  0.4423460000000  0.4225040000000 1.0
C      1  0.4931220000000  0.5974880000000  0.5370820000000 1.0
C      1  0.5751120000000  0.4557700000000  0.5060320000000 1.0
C      1  0.5310100000000  0.4653960000000  0.5705920000000 1.0
C      1  0.4790970000000  0.3954690000000  0.5274850000000 1.0
C      1  0.4613260000000  0.5311330000000  0.5553000000000 1.0
C      1  0.5286110000000  0.6460210000000  0.4157120000000 1.0
C      1  0.4660430000000  0.5234520000000  0.4667750000000 1.0
C      1  0.5349870000000  0.5993390000000  0.4428760000000 1.0
C      1  0.4425740000000  0.5795020000000  0.4817130000000 1.0
C      1  0.4277480000000  0.4956690000000  0.5867400000000 1.0
C      1  0.4039980000000  0.5208470000000  0.4503870000000 1.0
C      1  0.5940500000000  0.4101260000000  0.4962610000000 1.0
C      1  0.5480450000000  0.5943650000000  0.4918050000000 1.0
C      1  0.4804360000000  0.4732190000000  0.4574520000000 1.0
C      1  0.5147540000000  0.4430450000000  0.4198920000000 1.0
C      1  0.4533490000000  0.4081650000000  0.5343420000000 1.0
C      1  0.3880740000000  0.5260990000000  0.5015350000000 1.0
C      1  0.4921180000000  0.4617630000000  0.5200120000000 1.0
C      1  0.5240360000000  0.5278760000000  0.5804800000000 1.0
C      1  0.5808590000000  0.5077340000000  0.5411160000000 1.0
C      1  0.3918030000000  0.5244130000000  0.4745310000000 1.0
C      1  0.4315430000000  0.4880280000000  0.5125700000000 1.0
C      1  0.4748440000000  0.5797810000000  0.5289240000000 1.0
C      1  0.4468730000000  0.4837370000000  0.5357000000000 1.0
C      1  0.6326760000000  0.5962300000000  0.4431150000000 1.0
C      1  0.4061400000000  0.4975600000000  0.5706360000000 1.0
C      1  0.5500760000000  0.4189090000000  0.5384600000000 1.0
C      1  0.5417500000000  0.5352080000000  0.4400660000000 1.0
C      1  0.5282580000000  0.4828930000000  0.5927580000000 1.0
C      1  0.4823350000000  0.5548550000000  0.4044000000000 1.0
C      1  0.5749410000000  0.5273320000000  0.5211890000000 1.0
C      1  0.4911450000000  0.4538520000000  0.4743480000000 1.0
END
