TITL C-612605-9286-56 9.30793151420807e-06 125000 -224.066549609638 0 0 38 (C1) n - 1
REM
REM in /home/nfs/bkarasulu/CARBON/AIRSS/Generating-Clusters/TERSOFF/Only-C1/FIRE-HFTN
REM
REM
REM
REM
REM
REM ./C.cell (11c1c37f851c82e70ff6c80c92926a4b)
REM AIRSS Version 0.9.1 bugfix July 2018 build 013d7b7c2542+ Fri, 06 Jul 2018 19:26:36 +0100
REM compiler GCC version 9.2.1 20190827 (Red Hat 9.2.1-1)
REM options -cpp -mtune=generic -march=x86-64 -g -O0 -fpre-include=/usr/include/finclude/math-vector-fortran.h
REM seed -129539933 -395946883 668332729 -2034040802 -1367597040 -1997925470 1084529093 -1025702536 1537439736 -93079401 1169360731 140983274 1509464043 2062257811 1705087799 -807012838 714207626 649643680 1536552936 1999425511 364817105 1015847348 -961876870 1333144434 1639197765 1206081522 679300199 -118211336 -275986521 -1333623053 -1120355556 -1083764709 -605846593
REM
CELL 1.54180   50.00000   50.00000   50.00000   90.00000   90.00000   90.00000
LATT -1
SFAC C  
C      1  0.5392530000000  0.5142160000000  0.5366840000000 1.0
C      1  0.5066460000000  0.4708510000000  0.4728520000000 1.0
C      1  0.4669760000000  0.4677990000000  0.4455500000000 1.0
C      1  0.5473950000000  0.5209860000000  0.5086860000000 1.0
C      1  0.5308180000000  0.5041430000000  0.4221410000000 1.0
C      1  0.4622670000000  0.4901050000000  0.4310630000000 1.0
C      1  0.4715240000000  0.4805870000000  0.5572560000000 1.0
C      1  0.4843070000000  0.5595070000000  0.4503710000000 1.0
C      1  0.4563940000000  0.5172330000000  0.4811740000000 1.0
C      1  0.4915850000000  0.5254450000000  0.5568090000000 1.0
C      1  0.4728030000000  0.5414100000000  0.4340570000000 1.0
C      1  0.5410140000000  0.5297650000000  0.4622060000000 1.0
C      1  0.4575860000000  0.4622540000000  0.5404410000000 1.0
C      1  0.4935220000000  0.4934270000000  0.5179510000000 1.0
C      1  0.4664250000000  0.4482070000000  0.4909170000000 1.0
C      1  0.4971160000000  0.4716260000000  0.5677820000000 1.0
C      1  0.5236810000000  0.4652400000000  0.4963670000000 1.0
C      1  0.5088360000000  0.4701550000000  0.5208420000000 1.0
C      1  0.5004730000000  0.4644080000000  0.5938630000000 1.0
C      1  0.5378850000000  0.5400490000000  0.4889660000000 1.0
C      1  0.5188600000000  0.5610240000000  0.4892330000000 1.0
C      1  0.5596720000000  0.4985240000000  0.4947630000000 1.0
C      1  0.5257230000000  0.5106370000000  0.4481150000000 1.0
C      1  0.5178380000000  0.5277800000000  0.5501670000000 1.0
C      1  0.5601670000000  0.4694590000000  0.5287080000000 1.0
C      1  0.4492110000000  0.5172170000000  0.5322830000000 1.0
C      1  0.4941510000000  0.5161160000000  0.5041510000000 1.0
C      1  0.5181340000000  0.4710180000000  0.5485310000000 1.0
C      1  0.4682650000000  0.5092480000000  0.5522270000000 1.0
C      1  0.4572380000000  0.4508560000000  0.5160410000000 1.0
C      1  0.5519580000000  0.4716200000000  0.5007230000000 1.0
C      1  0.4807800000000  0.4580390000000  0.4685990000000 1.0
C      1  0.4648910000000  0.5166280000000  0.4270040000000 1.0
C      1  0.5048950000000  0.4984900000000  0.4631370000000 1.0
C      1  0.5433440000000  0.4857180000000  0.5457890000000 1.0
C      1  0.4441580000000  0.5189150000000  0.5056340000000 1.0
C      1  0.4848710000000  0.5141470000000  0.4775120000000 1.0
C      1  0.4993380000000  0.5671540000000  0.4714050000000 1.0
END
