TITL C-612604-1799-317 -0.00665188215939567 125000 -417.411397379828 0 0 69 (C1) n - 1
REM
REM in /home/nfs/bkarasulu/CARBON/AIRSS/Generating-Clusters/TERSOFF/Only-C1/FIRE-HFTN
REM
REM
REM
REM
REM
REM ./C.cell (11c1c37f851c82e70ff6c80c92926a4b)
REM AIRSS Version 0.9.1 bugfix July 2018 build 013d7b7c2542+ Fri, 06 Jul 2018 19:26:36 +0100
REM compiler GCC version 9.2.1 20190827 (Red Hat 9.2.1-1)
REM options -cpp -mtune=generic -march=x86-64 -g -O0 -fpre-include=/usr/include/finclude/math-vector-fortran.h
REM seed 1003543365 236132044 166144813 -1478088703 -1151840992 1391275448 -1023913501 -1148127910 -1830339861 -1199714290 -408996230 1988565838 1447889631 -158883975 1550393644 1712184964 266718993 -676873269 1965248535 -1076097693 937512496 2044816205 -1973702740 -1613130932 1800306406 55620199 513247581 1642140547 -797970590 -1260215159 317807121 -1246942997 -631621048
REM
CELL 1.54180   50.00000   50.00000   50.00000   90.00000   90.00000   90.00000
LATT -1
SFAC C  
C      1  0.4384910000000  0.5581260000000  0.5246040000000 1.0
C      1  0.4862490000000  0.5810790000000  0.5476990000000 1.0
C      1  0.5452400000000  0.5074220000000  0.5650100000000 1.0
C      1  0.5689470000000  0.4281760000000  0.4702800000000 1.0
C      1  0.4564800000000  0.5734940000000  0.5083130000000 1.0
C      1  0.4718020000000  0.5041670000000  0.4166560000000 1.0
C      1  0.4889910000000  0.5270890000000  0.4227400000000 1.0
C      1  0.5397140000000  0.4998120000000  0.4227920000000 1.0
C      1  0.5270790000000  0.5588590000000  0.4738860000000 1.0
C      1  0.5304970000000  0.5297750000000  0.5739230000000 1.0
C      1  0.5230610000000  0.5104110000000  0.5225650000000 1.0
C      1  0.5287850000000  0.4501490000000  0.4480500000000 1.0
C      1  0.4610480000000  0.5636090000000  0.4815710000000 1.0
C      1  0.5449340000000  0.5378130000000  0.4822360000000 1.0
C      1  0.5394110000000  0.4329640000000  0.5786240000000 1.0
C      1  0.4944570000000  0.5128790000000  0.5235570000000 1.0
C      1  0.4651620000000  0.4851200000000  0.4795300000000 1.0
C      1  0.4283450000000  0.5105600000000  0.5405670000000 1.0
C      1  0.5394550000000  0.5282230000000  0.5082730000000 1.0
C      1  0.4990040000000  0.4431010000000  0.4530130000000 1.0
C      1  0.5032300000000  0.5920620000000  0.5041710000000 1.0
C      1  0.5237190000000  0.5828480000000  0.4889720000000 1.0
C      1  0.4497750000000  0.4420130000000  0.4354800000000 1.0
C      1  0.5154330000000  0.4207770000000  0.5761820000000 1.0
C      1  0.4838500000000  0.4898540000000  0.4598050000000 1.0
C      1  0.4567660000000  0.4480780000000  0.5097830000000 1.0
C      1  0.4421390000000  0.5454680000000  0.5707030000000 1.0
C      1  0.4835970000000  0.5447970000000  0.4862450000000 1.0
C      1  0.5606720000000  0.5175780000000  0.4357960000000 1.0
C      1  0.5129230000000  0.5498150000000  0.5747940000000 1.0
C      1  0.4826040000000  0.5039660000000  0.5467340000000 1.0
C      1  0.4776520000000  0.5230820000000  0.5027730000000 1.0
C      1  0.5083270000000  0.5030790000000  0.4589780000000 1.0
C      1  0.5932860000000  0.4188790000000  0.4697850000000 1.0
C      1  0.4602650000000  0.5632190000000  0.4522010000000 1.0
C      1  0.4437180000000  0.4604510000000  0.5317940000000 1.0
C      1  0.5348590000000  0.4934210000000  0.4662940000000 1.0
C      1  0.4976700000000  0.4364650000000  0.4828440000000 1.0
C      1  0.5249150000000  0.4473750000000  0.5213400000000 1.0
C      1  0.5811910000000  0.5304650000000  0.4237890000000 1.0
C      1  0.4890500000000  0.5635930000000  0.5695860000000 1.0
C      1  0.5020880000000  0.5493890000000  0.4643470000000 1.0
C      1  0.4762920000000  0.4523050000000  0.4363160000000 1.0
C      1  0.5924550000000  0.4957390000000  0.5893460000000 1.0
C      1  0.4519690000000  0.4615010000000  0.4857640000000 1.0
C      1  0.5390860000000  0.4763430000000  0.4420240000000 1.0
C      1  0.5529340000000  0.5171030000000  0.4642790000000 1.0
C      1  0.4649130000000  0.5549270000000  0.5812280000000 1.0
C      1  0.4838660000000  0.5494610000000  0.4403990000000 1.0
C      1  0.4261970000000  0.4545520000000  0.4406270000000 1.0
C      1  0.4138450000000  0.4760400000000  0.4513750000000 1.0
C      1  0.4806690000000  0.5852850000000  0.5203700000000 1.0
C      1  0.5258790000000  0.4401580000000  0.4934290000000 1.0
C      1  0.5501520000000  0.4511460000000  0.5618060000000 1.0
C      1  0.5361180000000  0.4932720000000  0.5415480000000 1.0
C      1  0.4339140000000  0.5381720000000  0.5446480000000 1.0
C      1  0.5433530000000  0.4385900000000  0.4709750000000 1.0
C      1  0.4327540000000  0.4839340000000  0.5396300000000 1.0
C      1  0.5693630000000  0.5009370000000  0.5774410000000 1.0
C      1  0.4980910000000  0.4227560000000  0.5556390000000 1.0
C      1  0.4996510000000  0.4349740000000  0.5305460000000 1.0
C      1  0.5388860000000  0.4646570000000  0.5393900000000 1.0
C      1  0.4756740000000  0.4812000000000  0.4334410000000 1.0
C      1  0.4556250000000  0.5080790000000  0.4924880000000 1.0
C      1  0.4817060000000  0.4347120000000  0.5081190000000 1.0
C      1  0.4139640000000  0.4980010000000  0.4671150000000 1.0
C      1  0.4287410000000  0.5128320000000  0.4845110000000 1.0
C      1  0.5139250000000  0.5136830000000  0.4302680000000 1.0
C      1  0.6150960000000  0.4901350000000  0.6009900000000 1.0
END
