TITL C-612603-7354-547 0.390422493259424 125000 -591.544902784771 0 0 99 (C1) n - 1
REM
REM in /home/nfs/bkarasulu/CARBON/AIRSS/Generating-Clusters/TERSOFF/Only-C1/FIRE-HFTN
REM
REM
REM
REM
REM
REM ./C.cell (11c1c37f851c82e70ff6c80c92926a4b)
REM AIRSS Version 0.9.1 bugfix July 2018 build 013d7b7c2542+ Fri, 06 Jul 2018 19:26:36 +0100
REM compiler GCC version 9.2.1 20190827 (Red Hat 9.2.1-1)
REM options -cpp -mtune=generic -march=x86-64 -g -O0 -fpre-include=/usr/include/finclude/math-vector-fortran.h
REM seed -2123558524 1449820302 -1769131705 -694773164 -828009166 -369336143 -1222323945 1076387594 -892020007 28469353 -774558587 297055402 -1610734842 1243105738 -998111623 1291518769 875149025 1280443371 266902684 -923094865 -1602932223 -503371164 1531133882 -376801537 2143543183 -327793837 639528312 1826330450 -313968367 1589238362 -1926454576 1415306861 1351095746
REM
CELL 1.54180   50.00000   50.00000   50.00000   90.00000   90.00000   90.00000
LATT -1
SFAC C  
C      1  0.5715600000000  0.4700070000000  0.4664280000000 1.0
C      1  0.5007080000000  0.5327380000000  0.3958510000000 1.0
C      1  0.4944920000000  0.4346600000000  0.5383900000000 1.0
C      1  0.5042980000000  0.5684020000000  0.5492250000000 1.0
C      1  0.5200910000000  0.4817470000000  0.4988680000000 1.0
C      1  0.4180370000000  0.4667100000000  0.4966370000000 1.0
C      1  0.5612720000000  0.4753750000000  0.4399960000000 1.0
C      1  0.4517930000000  0.4298240000000  0.4844730000000 1.0
C      1  0.4585830000000  0.6027900000000  0.5228050000000 1.0
C      1  0.4646800000000  0.5018700000000  0.5653590000000 1.0
C      1  0.5120640000000  0.5180990000000  0.6479050000000 1.0
C      1  0.4617040000000  0.4646560000000  0.5173600000000 1.0
C      1  0.5381310000000  0.4251590000000  0.4282260000000 1.0
C      1  0.5824210000000  0.4919680000000  0.6585100000000 1.0
C      1  0.4209390000000  0.5819960000000  0.5043460000000 1.0
C      1  0.4903150000000  0.5458920000000  0.5601660000000 1.0
C      1  0.5295960000000  0.5627300000000  0.4232850000000 1.0
C      1  0.4418410000000  0.4507520000000  0.5017510000000 1.0
C      1  0.4734600000000  0.4572010000000  0.3935890000000 1.0
C      1  0.6667600000000  0.4563760000000  0.6232170000000 1.0
C      1  0.4590450000000  0.6055000000000  0.4741010000000 1.0
C      1  0.5162860000000  0.4617610000000  0.4520100000000 1.0
C      1  0.5384030000000  0.5405400000000  0.4928810000000 1.0
C      1  0.4742800000000  0.5602130000000  0.4733330000000 1.0
C      1  0.5513120000000  0.4510830000000  0.4274410000000 1.0
C      1  0.5169910000000  0.4164500000000  0.4461550000000 1.0
C      1  0.4421860000000  0.5081630000000  0.5487580000000 1.0
C      1  0.5221320000000  0.5338970000000  0.4720550000000 1.0
C      1  0.5339610000000  0.5108670000000  0.6610080000000 1.0
C      1  0.4936430000000  0.5409730000000  0.4665760000000 1.0
C      1  0.4646680000000  0.6145120000000  0.4990420000000 1.0
C      1  0.5694670000000  0.4863830000000  0.5553120000000 1.0
C      1  0.6419930000000  0.4656660000000  0.6217090000000 1.0
C      1  0.4849100000000  0.5245880000000  0.6035420000000 1.0
C      1  0.5555280000000  0.4883170000000  0.5328490000000 1.0
C      1  0.4660370000000  0.4689490000000  0.4486620000000 1.0
C      1  0.4799570000000  0.5241710000000  0.5759690000000 1.0
C      1  0.4171720000000  0.4937430000000  0.4532650000000 1.0
C      1  0.5002270000000  0.4960010000000  0.5134250000000 1.0
C      1  0.4081760000000  0.4867300000000  0.5156020000000 1.0
C      1  0.5278740000000  0.5782990000000  0.4454660000000 1.0
C      1  0.5526470000000  0.5034720000000  0.4346510000000 1.0
C      1  0.4631300000000  0.5674840000000  0.4122500000000 1.0
C      1  0.4555590000000  0.5143810000000  0.5040420000000 1.0
C      1  0.4037740000000  0.5504080000000  0.4741890000000 1.0
C      1  0.5144890000000  0.5864030000000  0.5674620000000 1.0
C      1  0.4502800000000  0.5756880000000  0.4343160000000 1.0
C      1  0.4954000000000  0.5226940000000  0.6277990000000 1.0
C      1  0.5471050000000  0.4870000000000  0.5061980000000 1.0
C      1  0.5234440000000  0.5860390000000  0.4711540000000 1.0
C      1  0.4762960000000  0.4567030000000  0.5408900000000 1.0
C      1  0.4747050000000  0.4753080000000  0.5624020000000 1.0
C      1  0.5223190000000  0.4375210000000  0.5338480000000 1.0
C      1  0.4723380000000  0.4895080000000  0.5029850000000 1.0
C      1  0.5585760000000  0.5017370000000  0.6648030000000 1.0
C      1  0.4898040000000  0.3921960000000  0.5112590000000 1.0
C      1  0.4850250000000  0.4088190000000  0.5318200000000 1.0
C      1  0.5103670000000  0.4787570000000  0.4317830000000 1.0
C      1  0.4899210000000  0.5063880000000  0.3907470000000 1.0
C      1  0.4970850000000  0.3927720000000  0.4854550000000 1.0
C      1  0.5484050000000  0.5189310000000  0.4102430000000 1.0
C      1  0.5666510000000  0.4893810000000  0.4861490000000 1.0
C      1  0.4739180000000  0.4847200000000  0.4008220000000 1.0
C      1  0.6031830000000  0.4778920000000  0.5953200000000 1.0
C      1  0.6021210000000  0.4829480000000  0.6432270000000 1.0
C      1  0.4658470000000  0.4415650000000  0.4402630000000 1.0
C      1  0.5069730000000  0.4685520000000  0.4772760000000 1.0
C      1  0.5166710000000  0.5842080000000  0.4974530000000 1.0
C      1  0.4625990000000  0.4881180000000  0.4271370000000 1.0
C      1  0.4784330000000  0.4764040000000  0.4747720000000 1.0
C      1  0.4232320000000  0.5706980000000  0.4781820000000 1.0
C      1  0.5072360000000  0.5057160000000  0.4391650000000 1.0
C      1  0.5274170000000  0.5389510000000  0.4067610000000 1.0
C      1  0.6159130000000  0.4754480000000  0.6201000000000 1.0
C      1  0.4116610000000  0.4727640000000  0.4694950000000 1.0
C      1  0.5467210000000  0.4066180000000  0.4096640000000 1.0
C      1  0.5074130000000  0.5136880000000  0.5324610000000 1.0
C      1  0.4594010000000  0.5136440000000  0.4382610000000 1.0
C      1  0.5317110000000  0.5149870000000  0.4523620000000 1.0
C      1  0.5867150000000  0.4821350000000  0.5749910000000 1.0
C      1  0.4204370000000  0.4913920000000  0.5410570000000 1.0
C      1  0.5089140000000  0.5744120000000  0.5215790000000 1.0
C      1  0.5726060000000  0.4437780000000  0.4773870000000 1.0
C      1  0.4851650000000  0.5226160000000  0.4460660000000 1.0
C      1  0.4812230000000  0.5534600000000  0.3982990000000 1.0
C      1  0.4502140000000  0.5779080000000  0.4642450000000 1.0
C      1  0.4685560000000  0.4377490000000  0.4122170000000 1.0
C      1  0.5439030000000  0.4315000000000  0.5190550000000 1.0
C      1  0.4691270000000  0.4238520000000  0.4619900000000 1.0
C      1  0.4367810000000  0.5143260000000  0.4550920000000 1.0
C      1  0.6911290000000  0.4472340000000  0.6247010000000 1.0
C      1  0.5609460000000  0.4314620000000  0.4983460000000 1.0
C      1  0.4426750000000  0.5225290000000  0.4809720000000 1.0
C      1  0.4487360000000  0.5271740000000  0.5285570000000 1.0
C      1  0.4945930000000  0.4099810000000  0.4632760000000 1.0
C      1  0.3934190000000  0.5085130000000  0.5041360000000 1.0
C      1  0.4469690000000  0.5548080000000  0.5329460000000 1.0
C      1  0.4408340000000  0.5807900000000  0.5243770000000 1.0
C      1  0.3922920000000  0.5301110000000  0.4879970000000 1.0
END
