TITL C-612602-9376-696 -0.0108569174721791 125000 -1158.50156372643 0 0 189 (C1) n - 1
REM
REM in /home/nfs/bkarasulu/CARBON/AIRSS/Generating-Clusters/TERSOFF/Only-C1/FIRE-HFTN
REM
REM
REM
REM
REM
REM ./C.cell (11c1c37f851c82e70ff6c80c92926a4b)
REM AIRSS Version 0.9.1 bugfix July 2018 build 013d7b7c2542+ Fri, 06 Jul 2018 19:26:36 +0100
REM compiler GCC version 9.2.1 20190827 (Red Hat 9.2.1-1)
REM options -cpp -mtune=generic -march=x86-64 -g -O0 -fpre-include=/usr/include/finclude/math-vector-fortran.h
REM seed -296140553 -1671712543 -540849367 -763391179 504663680 73150547 -1781234687 -49425713 41780919 -1526854501 -1350108295 -981876063 -1361713277 892870410 959977160 1242358777 398987992 429999572 -1096444389 -1679417817 -942274829 -730108757 1312418112 -386620983 -1003369166 -1368695044 2003781651 1808543139 -1442896720 360061042 1892603644 764182653 1893851240
REM
CELL 1.54180   50.00000   50.00000   50.00000   90.00000   90.00000   90.00000
LATT -1
SFAC C  
C      1  0.4583450000000  0.5775980000000  0.6208400000000 1.0
C      1  0.5225480000000  0.4386720000000  0.4818250000000 1.0
C      1  0.5341760000000  0.5576250000000  0.5764530000000 1.0
C      1  0.5108180000000  0.4581540000000  0.5453580000000 1.0
C      1  0.4679670000000  0.6062670000000  0.5241430000000 1.0
C      1  0.4370140000000  0.5986360000000  0.4787160000000 1.0
C      1  0.5568230000000  0.4930790000000  0.5392420000000 1.0
C      1  0.4052890000000  0.5043260000000  0.5285920000000 1.0
C      1  0.4686880000000  0.5845990000000  0.4138530000000 1.0
C      1  0.5872130000000  0.4250990000000  0.5530360000000 1.0
C      1  0.5379970000000  0.5330880000000  0.4897690000000 1.0
C      1  0.4901420000000  0.4123010000000  0.5520520000000 1.0
C      1  0.4278860000000  0.3661250000000  0.4887810000000 1.0
C      1  0.5475020000000  0.4234590000000  0.4134520000000 1.0
C      1  0.5364110000000  0.4510810000000  0.5035980000000 1.0
C      1  0.4642500000000  0.6216270000000  0.4442800000000 1.0
C      1  0.4905070000000  0.5694640000000  0.4617690000000 1.0
C      1  0.4395840000000  0.6106170000000  0.4530300000000 1.0
C      1  0.6533830000000  0.4960110000000  0.4668760000000 1.0
C      1  0.5074670000000  0.6326590000000  0.4547760000000 1.0
C      1  0.4535840000000  0.4847390000000  0.5686000000000 1.0
C      1  0.4974460000000  0.3846970000000  0.4408060000000 1.0
C      1  0.4211950000000  0.5458970000000  0.5651560000000 1.0
C      1  0.5746760000000  0.5093590000000  0.4225410000000 1.0
C      1  0.4793290000000  0.5233020000000  0.4457540000000 1.0
C      1  0.5205620000000  0.4901730000000  0.5849570000000 1.0
C      1  0.5916250000000  0.5233130000000  0.4409870000000 1.0
C      1  0.5087470000000  0.5063890000000  0.6282980000000 1.0
C      1  0.5747790000000  0.4792340000000  0.4167670000000 1.0
C      1  0.5035230000000  0.5430330000000  0.4123240000000 1.0
C      1  0.4661240000000  0.6504890000000  0.5178630000000 1.0
C      1  0.5773560000000  0.4283720000000  0.5280590000000 1.0
C      1  0.4722730000000  0.4198470000000  0.4071260000000 1.0
C      1  0.4773320000000  0.5348640000000  0.4002310000000 1.0
C      1  0.5105600000000  0.6089850000000  0.4362130000000 1.0
C      1  0.4441910000000  0.4702470000000  0.6152610000000 1.0
C      1  0.5303160000000  0.4968110000000  0.5227710000000 1.0
C      1  0.4692630000000  0.4765350000000  0.5000850000000 1.0
C      1  0.4919390000000  0.4836730000000  0.6234950000000 1.0
C      1  0.4055970000000  0.5324350000000  0.5422570000000 1.0
C      1  0.5275490000000  0.4472480000000  0.6229240000000 1.0
C      1  0.4019810000000  0.4726630000000  0.4504500000000 1.0
C      1  0.4246150000000  0.5503610000000  0.4636800000000 1.0
C      1  0.3966770000000  0.4325040000000  0.4704620000000 1.0
C      1  0.5214330000000  0.4577410000000  0.3809070000000 1.0
C      1  0.4706180000000  0.3882320000000  0.4983270000000 1.0
C      1  0.5744020000000  0.4573730000000  0.4363040000000 1.0
C      1  0.5317580000000  0.5883340000000  0.4399620000000 1.0
C      1  0.4280710000000  0.3748420000000  0.4632660000000 1.0
C      1  0.5011040000000  0.4562420000000  0.6189310000000 1.0
C      1  0.5194430000000  0.5558760000000  0.5252130000000 1.0
C      1  0.5345450000000  0.3958570000000  0.4769850000000 1.0
C      1  0.3807000000000  0.4472310000000  0.5417170000000 1.0
C      1  0.5847070000000  0.5338820000000  0.6029320000000 1.0
C      1  0.5859370000000  0.4405640000000  0.5767390000000 1.0
C      1  0.4467330000000  0.4623540000000  0.4652230000000 1.0
C      1  0.5285050000000  0.6029910000000  0.5471030000000 1.0
C      1  0.3880120000000  0.4523780000000  0.4898690000000 1.0
C      1  0.4946080000000  0.3741760000000  0.4917180000000 1.0
C      1  0.5262470000000  0.5974220000000  0.4934950000000 1.0
C      1  0.5509650000000  0.4364910000000  0.6156250000000 1.0
C      1  0.5324750000000  0.4151420000000  0.5299240000000 1.0
C      1  0.4652670000000  0.5667970000000  0.5063860000000 1.0
C      1  0.4015840000000  0.5039470000000  0.4936750000000 1.0
C      1  0.4698100000000  0.5060560000000  0.4010290000000 1.0
C      1  0.4555900000000  0.6110760000000  0.4973430000000 1.0
C      1  0.4952620000000  0.3857220000000  0.5408210000000 1.0
C      1  0.4552910000000  0.5333690000000  0.5332960000000 1.0
C      1  0.5066960000000  0.5067000000000  0.5416550000000 1.0
C      1  0.6186790000000  0.4646750000000  0.4667900000000 1.0
C      1  0.5045110000000  0.5909260000000  0.4760540000000 1.0
C      1  0.4842070000000  0.5490210000000  0.5913230000000 1.0
C      1  0.4945960000000  0.4490030000000  0.4369600000000 1.0
C      1  0.3776050000000  0.4463090000000  0.5150400000000 1.0
C      1  0.5419470000000  0.5063380000000  0.4969740000000 1.0
C      1  0.4357400000000  0.5957390000000  0.5684440000000 1.0
C      1  0.4330370000000  0.4344790000000  0.4328950000000 1.0
C      1  0.4437230000000  0.5560560000000  0.5204440000000 1.0
C      1  0.4829620000000  0.3956040000000  0.4197960000000 1.0
C      1  0.5400980000000  0.4226160000000  0.4644150000000 1.0
C      1  0.5721640000000  0.4317820000000  0.5998480000000 1.0
C      1  0.4129860000000  0.4506070000000  0.5812090000000 1.0
C      1  0.4263410000000  0.5084170000000  0.4221800000000 1.0
C      1  0.4444480000000  0.3937080000000  0.4535470000000 1.0
C      1  0.4570510000000  0.5042660000000  0.4294390000000 1.0
C      1  0.4474000000000  0.3741800000000  0.5055550000000 1.0
C      1  0.5426150000000  0.5393130000000  0.4617740000000 1.0
C      1  0.4941210000000  0.5488070000000  0.4398640000000 1.0
C      1  0.5582860000000  0.4772360000000  0.5651960000000 1.0
C      1  0.6354200000000  0.5052320000000  0.4878590000000 1.0
C      1  0.4612040000000  0.4348050000000  0.5873430000000 1.0
C      1  0.4716590000000  0.4792120000000  0.3891510000000 1.0
C      1  0.4936150000000  0.4294070000000  0.4812340000000 1.0
C      1  0.5545420000000  0.4347380000000  0.4394510000000 1.0
C      1  0.4334730000000  0.5531010000000  0.4344300000000 1.0
C      1  0.4554200000000  0.4339580000000  0.5107420000000 1.0
C      1  0.6030200000000  0.5478200000000  0.5869600000000 1.0
C      1  0.5154570000000  0.5422910000000  0.5015740000000 1.0
C      1  0.4836710000000  0.4386480000000  0.6045970000000 1.0
C      1  0.4534100000000  0.4548950000000  0.4915950000000 1.0
C      1  0.6434610000000  0.4731810000000  0.4545440000000 1.0
C      1  0.4956390000000  0.5600000000000  0.5394490000000 1.0
C      1  0.5258490000000  0.6076300000000  0.5203240000000 1.0
C      1  0.4448340000000  0.4711170000000  0.5438380000000 1.0
C      1  0.5471120000000  0.5586950000000  0.5311250000000 1.0
C      1  0.5740780000000  0.5068940000000  0.5984370000000 1.0
C      1  0.4387010000000  0.5680070000000  0.5767820000000 1.0
C      1  0.4613920000000  0.6300550000000  0.5392180000000 1.0
C      1  0.4764200000000  0.5571730000000  0.4836430000000 1.0
C      1  0.5187290000000  0.5295440000000  0.6179350000000 1.0
C      1  0.4227180000000  0.5734560000000  0.4823320000000 1.0
C      1  0.5953690000000  0.5146190000000  0.5582810000000 1.0
C      1  0.5099940000000  0.3772350000000  0.5166390000000 1.0
C      1  0.4566330000000  0.5591490000000  0.4157510000000 1.0
C      1  0.4000430000000  0.4601460000000  0.5574800000000 1.0
C      1  0.5210170000000  0.4680350000000  0.5199140000000 1.0
C      1  0.5127430000000  0.4294380000000  0.5463520000000 1.0
C      1  0.4453750000000  0.5137080000000  0.4906510000000 1.0
C      1  0.6216990000000  0.5468040000000  0.5355440000000 1.0
C      1  0.4926290000000  0.5347750000000  0.4886820000000 1.0
C      1  0.5228130000000  0.4952030000000  0.4376810000000 1.0
C      1  0.4181640000000  0.5347060000000  0.4186960000000 1.0
C      1  0.5089940000000  0.4725820000000  0.4412150000000 1.0
C      1  0.5504390000000  0.3965370000000  0.4091620000000 1.0
C      1  0.5682100000000  0.5195830000000  0.5489670000000 1.0
C      1  0.5304900000000  0.5364150000000  0.4055250000000 1.0
C      1  0.5496900000000  0.5816990000000  0.4860360000000 1.0
C      1  0.5415820000000  0.5109850000000  0.4513520000000 1.0
C      1  0.4489000000000  0.5112450000000  0.5189340000000 1.0
C      1  0.5912330000000  0.4844450000000  0.5007910000000 1.0
C      1  0.4657730000000  0.4893940000000  0.6126290000000 1.0
C      1  0.4092570000000  0.4440730000000  0.4468090000000 1.0
C      1  0.4794110000000  0.5808810000000  0.5272620000000 1.0
C      1  0.4675840000000  0.6380300000000  0.4905930000000 1.0
C      1  0.3967180000000  0.5532350000000  0.5234980000000 1.0
C      1  0.5581390000000  0.5039560000000  0.3789570000000 1.0
C      1  0.4658540000000  0.4265260000000  0.5599230000000 1.0
C      1  0.4548290000000  0.4790160000000  0.4458320000000 1.0
C      1  0.4750470000000  0.4162600000000  0.5001350000000 1.0
C      1  0.4483840000000  0.4607040000000  0.3919160000000 1.0
C      1  0.4600670000000  0.4864270000000  0.5244200000000 1.0
C      1  0.5531860000000  0.4951870000000  0.4733220000000 1.0
C      1  0.5095880000000  0.3813950000000  0.4670980000000 1.0
C      1  0.4461370000000  0.4354680000000  0.4066930000000 1.0
C      1  0.5548370000000  0.5213680000000  0.4024920000000 1.0
C      1  0.4373350000000  0.4493470000000  0.5962660000000 1.0
C      1  0.4951930000000  0.4620580000000  0.3903450000000 1.0
C      1  0.5134410000000  0.5480770000000  0.5965290000000 1.0
C      1  0.4819160000000  0.6054690000000  0.4273170000000 1.0
C      1  0.5311010000000  0.5859860000000  0.5683630000000 1.0
C      1  0.4830390000000  0.5315170000000  0.5472840000000 1.0
C      1  0.4607850000000  0.5650270000000  0.5964820000000 1.0
C      1  0.4521240000000  0.4414170000000  0.5388730000000 1.0
C      1  0.4151210000000  0.4798030000000  0.5423080000000 1.0
C      1  0.5744600000000  0.4755220000000  0.5210060000000 1.0
C      1  0.5633820000000  0.4491900000000  0.5149600000000 1.0
C      1  0.4208140000000  0.5231130000000  0.4793810000000 1.0
C      1  0.5324520000000  0.3951710000000  0.5084800000000 1.0
C      1  0.6108700000000  0.5384780000000  0.5603610000000 1.0
C      1  0.6304700000000  0.5758420000000  0.4985680000000 1.0
C      1  0.5068200000000  0.4837640000000  0.5607230000000 1.0
C      1  0.5621660000000  0.5701120000000  0.5094230000000 1.0
C      1  0.4071210000000  0.4899630000000  0.4295310000000 1.0
C      1  0.4865180000000  0.5139330000000  0.4712490000000 1.0
C      1  0.5390720000000  0.4403660000000  0.3921700000000 1.0
C      1  0.5907830000000  0.4639150000000  0.4583700000000 1.0
C      1  0.4908780000000  0.4416150000000  0.4101550000000 1.0
C      1  0.5849340000000  0.4684790000000  0.5725620000000 1.0
C      1  0.4802090000000  0.4326680000000  0.4556940000000 1.0
C      1  0.6243280000000  0.5503500000000  0.5071580000000 1.0
C      1  0.4768270000000  0.5261270000000  0.5763020000000 1.0
C      1  0.5956400000000  0.4943590000000  0.5798300000000 1.0
C      1  0.5486190000000  0.4930080000000  0.5884920000000 1.0
C      1  0.4188100000000  0.5641700000000  0.5096230000000 1.0
C      1  0.3707570000000  0.5607840000000  0.5205010000000 1.0
C      1  0.5769270000000  0.4816920000000  0.4758290000000 1.0
C      1  0.4651940000000  0.5023510000000  0.5868880000000 1.0
C      1  0.6182830000000  0.4817230000000  0.4924180000000 1.0
C      1  0.4448810000000  0.6203350000000  0.5605270000000 1.0
C      1  0.5526140000000  0.5436570000000  0.5554920000000 1.0
C      1  0.4530080000000  0.4203690000000  0.4498430000000 1.0
C      1  0.4675470000000  0.4978080000000  0.4817000000000 1.0
C      1  0.6215300000000  0.5301770000000  0.4865500000000 1.0
C      1  0.3945660000000  0.4792120000000  0.4790690000000 1.0
C      1  0.5697340000000  0.4793300000000  0.3882270000000 1.0
C      1  0.5518200000000  0.5103140000000  0.3533370000000 1.0
C      1  0.6047040000000  0.5323810000000  0.4630640000000 1.0
C      1  0.5451780000000  0.5690540000000  0.4589350000000 1.0
C      1  0.4798470000000  0.6373410000000  0.4643170000000 1.0
END
