TITL C-612601-4209-143 0.000240711987179126 125000 -485.451811262292 0 0 79 (C1) n - 1
REM
REM in /home/nfs/bkarasulu/CARBON/AIRSS/Generating-Clusters/TERSOFF/Only-C1/FIRE-HFTN
REM
REM
REM
REM
REM
REM ./C.cell (11c1c37f851c82e70ff6c80c92926a4b)
REM AIRSS Version 0.9.1 bugfix July 2018 build 013d7b7c2542+ Fri, 06 Jul 2018 19:26:36 +0100
REM compiler GCC version 9.2.1 20190827 (Red Hat 9.2.1-1)
REM options -cpp -mtune=generic -march=x86-64 -g -O0 -fpre-include=/usr/include/finclude/math-vector-fortran.h
REM seed 741582941 -1754233330 324165376 273400170 -1154034189 589572095 -1793242306 1249501183 -806869160 -554293260 2114784210 343249756 -1546963887 -1604701803 713677644 -966369990 -1968706836 472913218 648049735 -822993584 -1956303957 -67273550 81676935 1923060006 1376790492 1074907565 -1521405008 1612713745 1903697985 -1483865638 -665863791 1048067696 1889851663
REM
CELL 1.54180   50.00000   50.00000   50.00000   90.00000   90.00000   90.00000
LATT -1
SFAC C  
C      1  0.4041790000000  0.4728960000000  0.4638090000000 1.0
C      1  0.5402040000000  0.4858100000000  0.5721340000000 1.0
C      1  0.5564660000000  0.4564430000000  0.4635790000000 1.0
C      1  0.5499540000000  0.5501060000000  0.4441540000000 1.0
C      1  0.4707370000000  0.5252630000000  0.4373370000000 1.0
C      1  0.4852550000000  0.4675950000000  0.5634420000000 1.0
C      1  0.4705280000000  0.4389940000000  0.4508720000000 1.0
C      1  0.5412410000000  0.5253200000000  0.4329640000000 1.0
C      1  0.4889780000000  0.5161250000000  0.4178670000000 1.0
C      1  0.5554990000000  0.5015340000000  0.4375340000000 1.0
C      1  0.5122480000000  0.4141400000000  0.5444820000000 1.0
C      1  0.4856740000000  0.4163990000000  0.4126580000000 1.0
C      1  0.5545730000000  0.4644940000000  0.5122890000000 1.0
C      1  0.5036290000000  0.5777780000000  0.5805940000000 1.0
C      1  0.5789800000000  0.5404820000000  0.5684750000000 1.0
C      1  0.4863340000000  0.4054150000000  0.5370680000000 1.0
C      1  0.5350550000000  0.4376780000000  0.5805050000000 1.0
C      1  0.5206150000000  0.4164790000000  0.5715150000000 1.0
C      1  0.5215750000000  0.4971290000000  0.5069020000000 1.0
C      1  0.4423660000000  0.5647930000000  0.5422540000000 1.0
C      1  0.4526960000000  0.4922190000000  0.4979770000000 1.0
C      1  0.5591780000000  0.4767580000000  0.4465470000000 1.0
C      1  0.4514410000000  0.4550090000000  0.4649590000000 1.0
C      1  0.4688770000000  0.4239100000000  0.5251620000000 1.0
C      1  0.4599320000000  0.4449680000000  0.5116330000000 1.0
C      1  0.4820440000000  0.5717920000000  0.5163530000000 1.0
C      1  0.5490860000000  0.4919370000000  0.5085580000000 1.0
C      1  0.4835730000000  0.5651740000000  0.4633640000000 1.0
C      1  0.4647990000000  0.6012880000000  0.5644060000000 1.0
C      1  0.4900550000000  0.5164140000000  0.5554020000000 1.0
C      1  0.5313550000000  0.5711950000000  0.4501610000000 1.0
C      1  0.5161610000000  0.5227920000000  0.4203740000000 1.0
C      1  0.4998700000000  0.5878460000000  0.5337290000000 1.0
C      1  0.4941920000000  0.4883370000000  0.5474610000000 1.0
C      1  0.5513050000000  0.5934440000000  0.5162480000000 1.0
C      1  0.4784750000000  0.3789940000000  0.5412370000000 1.0
C      1  0.5604310000000  0.5859670000000  0.4896740000000 1.0
C      1  0.5295170000000  0.4282820000000  0.4973830000000 1.0
C      1  0.4668650000000  0.5438660000000  0.4563020000000 1.0
C      1  0.5426650000000  0.4591910000000  0.5634620000000 1.0
C      1  0.5067680000000  0.5516780000000  0.5850800000000 1.0
C      1  0.4275210000000  0.4633130000000  0.4508500000000 1.0
C      1  0.5902320000000  0.5399890000000  0.5442290000000 1.0
C      1  0.4970190000000  0.4909650000000  0.5185920000000 1.0
C      1  0.5225520000000  0.5962440000000  0.5183860000000 1.0
C      1  0.4729660000000  0.5268160000000  0.5330410000000 1.0
C      1  0.4922380000000  0.4205070000000  0.4586010000000 1.0
C      1  0.5493540000000  0.4476720000000  0.4889900000000 1.0
C      1  0.4798050000000  0.4990480000000  0.3977070000000 1.0
C      1  0.5362160000000  0.5871640000000  0.4732550000000 1.0
C      1  0.4053600000000  0.4987510000000  0.4757980000000 1.0
C      1  0.5752790000000  0.5535120000000  0.4568440000000 1.0
C      1  0.4654320000000  0.4770570000000  0.3929980000000 1.0
C      1  0.5097370000000  0.5264600000000  0.5732780000000 1.0
C      1  0.5352530000000  0.5132760000000  0.5763770000000 1.0
C      1  0.5577920000000  0.5296670000000  0.5805840000000 1.0
C      1  0.4723210000000  0.4538590000000  0.5814520000000 1.0
C      1  0.5136340000000  0.5922920000000  0.4900510000000 1.0
C      1  0.4529270000000  0.4573350000000  0.4083540000000 1.0
C      1  0.4890360000000  0.5764700000000  0.4887670000000 1.0
C      1  0.5446440000000  0.4513870000000  0.5360650000000 1.0
C      1  0.3854210000000  0.5171160000000  0.4727250000000 1.0
C      1  0.4643360000000  0.5532620000000  0.5286340000000 1.0
C      1  0.4427330000000  0.5872580000000  0.5573530000000 1.0
C      1  0.4714150000000  0.3542340000000  0.5452690000000 1.0
C      1  0.4293640000000  0.4634170000000  0.4226420000000 1.0
C      1  0.5854840000000  0.5280540000000  0.5208240000000 1.0
C      1  0.4555340000000  0.4641690000000  0.4916730000000 1.0
C      1  0.5284790000000  0.4285180000000  0.5261930000000 1.0
C      1  0.5039380000000  0.5703960000000  0.4438400000000 1.0
C      1  0.4991250000000  0.4060480000000  0.4343980000000 1.0
C      1  0.5803560000000  0.5699010000000  0.4780240000000 1.0
C      1  0.4916760000000  0.5931000000000  0.5603820000000 1.0
C      1  0.3815890000000  0.4575700000000  0.4652890000000 1.0
C      1  0.4728360000000  0.5060280000000  0.5119470000000 1.0
C      1  0.5691110000000  0.5111940000000  0.5083410000000 1.0
C      1  0.4685070000000  0.4376780000000  0.4210420000000 1.0
C      1  0.5088350000000  0.4200620000000  0.4807740000000 1.0
C      1  0.4285700000000  0.5042770000000  0.4905230000000 1.0
END
