TITL C-612601-4209-1067 12.7462257691889 125000 -525.284649593457 0 0 87 (C1) n - 1
REM
REM in /home/nfs/bkarasulu/CARBON/AIRSS/Generating-Clusters/TERSOFF/Only-C1/FIRE-HFTN
REM
REM
REM
REM
REM
REM ./C.cell (11c1c37f851c82e70ff6c80c92926a4b)
REM AIRSS Version 0.9.1 bugfix July 2018 build 013d7b7c2542+ Fri, 06 Jul 2018 19:26:36 +0100
REM compiler GCC version 9.2.1 20190827 (Red Hat 9.2.1-1)
REM options -cpp -mtune=generic -march=x86-64 -g -O0 -fpre-include=/usr/include/finclude/math-vector-fortran.h
REM seed 1799984890 248677497 -250143056 -1320607245 1583528558 -1161165305 -1487786316 692814921 1194832236 553167205 1613045077 1871470568 -745701047 -28856713 1534943608 -1211161503 1512975327 -573712654 1462148381 -158876192 30481453 -667278980 1052748215 -1564435692 -1445883564 1287312646 -2012316625 -1066273851 317613832 1491571774 1028108415 1094265458 1597109846
REM
CELL 1.54180   50.00000   50.00000   50.00000   90.00000   90.00000   90.00000
LATT -1
SFAC C  
C      1  0.5679990000000  0.6201620000000  0.4620590000000 1.0
C      1  0.4556790000000  0.4181510000000  0.5106050000000 1.0
C      1  0.5683510000000  0.4925010000000  0.5325300000000 1.0
C      1  0.5676360000000  0.6223090000000  0.5108480000000 1.0
C      1  0.5171390000000  0.5429990000000  0.4173740000000 1.0
C      1  0.3881760000000  0.4914170000000  0.4949090000000 1.0
C      1  0.5476570000000  0.5060550000000  0.4760390000000 1.0
C      1  0.5509500000000  0.4768330000000  0.5173060000000 1.0
C      1  0.5211610000000  0.4444830000000  0.4429140000000 1.0
C      1  0.4798850000000  0.4482650000000  0.4728970000000 1.0
C      1  0.4304580000000  0.5170360000000  0.4422780000000 1.0
C      1  0.3783820000000  0.4182890000000  0.5472130000000 1.0
C      1  0.4153440000000  0.4119430000000  0.4857980000000 1.0
C      1  0.4667980000000  0.5454770000000  0.4222290000000 1.0
C      1  0.4368770000000  0.4914220000000  0.4320490000000 1.0
C      1  0.4656120000000  0.4516010000000  0.4499280000000 1.0
C      1  0.5727370000000  0.6000320000000  0.4446910000000 1.0
C      1  0.4371370000000  0.4713320000000  0.5872510000000 1.0
C      1  0.5356820000000  0.4406350000000  0.5476680000000 1.0
C      1  0.6840310000000  0.5780990000000  0.5923390000000 1.0
C      1  0.5160500000000  0.4083230000000  0.5778720000000 1.0
C      1  0.4345750000000  0.4740730000000  0.5427070000000 1.0
C      1  0.5363580000000  0.4884600000000  0.4957570000000 1.0
C      1  0.4576540000000  0.4297730000000  0.5629430000000 1.0
C      1  0.4509000000000  0.5491530000000  0.4703260000000 1.0
C      1  0.4739530000000  0.5515810000000  0.5118090000000 1.0
C      1  0.4105870000000  0.5195820000000  0.5320520000000 1.0
C      1  0.4459120000000  0.4795150000000  0.4840970000000 1.0
C      1  0.5313220000000  0.4249310000000  0.4606010000000 1.0
C      1  0.3973170000000  0.4355310000000  0.5423630000000 1.0
C      1  0.4492520000000  0.4471830000000  0.5820750000000 1.0
C      1  0.5160230000000  0.4215280000000  0.5539950000000 1.0
C      1  0.6203240000000  0.5770300000000  0.5432200000000 1.0
C      1  0.6037800000000  0.5994150000000  0.5401880000000 1.0
C      1  0.5024990000000  0.4110030000000  0.5053400000000 1.0
C      1  0.3900340000000  0.5079960000000  0.4721620000000 1.0
C      1  0.4912470000000  0.5461060000000  0.4117500000000 1.0
C      1  0.4717200000000  0.3872640000000  0.4739420000000 1.0
C      1  0.5855800000000  0.5107130000000  0.5411210000000 1.0
C      1  0.4499300000000  0.5387740000000  0.4432010000000 1.0
C      1  0.4573330000000  0.5324070000000  0.5238310000000 1.0
C      1  0.4279710000000  0.5374000000000  0.4857250000000 1.0
C      1  0.4763280000000  0.4045710000000  0.4944390000000 1.0
C      1  0.4500860000000  0.4679560000000  0.4348570000000 1.0
C      1  0.4967190000000  0.4162900000000  0.5339630000000 1.0
C      1  0.4917230000000  0.4601300000000  0.4966400000000 1.0
C      1  0.5854520000000  0.6152410000000  0.5292790000000 1.0
C      1  0.5241200000000  0.5763720000000  0.4707200000000 1.0
C      1  0.4940510000000  0.4962430000000  0.4700680000000 1.0
C      1  0.4336010000000  0.4299620000000  0.4962780000000 1.0
C      1  0.4661660000000  0.4953730000000  0.4750940000000 1.0
C      1  0.6633650000000  0.5779730000000  0.5764480000000 1.0
C      1  0.5091450000000  0.4819390000000  0.4909270000000 1.0
C      1  0.6423710000000  0.5777900000000  0.5602880000000 1.0
C      1  0.5337370000000  0.5391540000000  0.4397630000000 1.0
C      1  0.4157400000000  0.5141890000000  0.5603100000000 1.0
C      1  0.5709190000000  0.4244220000000  0.4851210000000 1.0
C      1  0.5496530000000  0.4295670000000  0.5037400000000 1.0
C      1  0.5602550000000  0.4205740000000  0.4599320000000 1.0
C      1  0.5476200000000  0.4492570000000  0.5237910000000 1.0
C      1  0.4676530000000  0.4206730000000  0.5379200000000 1.0
C      1  0.5164580000000  0.4702030000000  0.4361220000000 1.0
C      1  0.5690010000000  0.5723260000000  0.4489590000000 1.0
C      1  0.4094840000000  0.5325260000000  0.5795850000000 1.0
C      1  0.4739850000000  0.5583000000000  0.4843090000000 1.0
C      1  0.4275900000000  0.4889410000000  0.5665850000000 1.0
C      1  0.4300670000000  0.5319790000000  0.5142810000000 1.0
C      1  0.6180640000000  0.5526950000000  0.5007280000000 1.0
C      1  0.4778560000000  0.4635360000000  0.5206760000000 1.0
C      1  0.6092360000000  0.5520110000000  0.4756860000000 1.0
C      1  0.5246030000000  0.4206420000000  0.4900440000000 1.0
C      1  0.5425460000000  0.5624770000000  0.4533880000000 1.0
C      1  0.4133760000000  0.5217280000000  0.4654850000000 1.0
C      1  0.4168760000000  0.4529550000000  0.5379340000000 1.0
C      1  0.4007280000000  0.4663300000000  0.4923220000000 1.0
C      1  0.3896050000000  0.5051430000000  0.5195570000000 1.0
C      1  0.4279740000000  0.4580740000000  0.4906080000000 1.0
C      1  0.5117030000000  0.4959770000000  0.4472720000000 1.0
C      1  0.6018220000000  0.5316760000000  0.5406390000000 1.0
C      1  0.5341190000000  0.5136250000000  0.4519780000000 1.0
C      1  0.5332170000000  0.5985560000000  0.4855560000000 1.0
C      1  0.6143960000000  0.5534830000000  0.5284780000000 1.0
C      1  0.4603230000000  0.4811120000000  0.5331720000000 1.0
C      1  0.5546830000000  0.6167630000000  0.4867940000000 1.0
C      1  0.4671360000000  0.5084770000000  0.5345150000000 1.0
C      1  0.4972070000000  0.5687270000000  0.4728960000000 1.0
C      1  0.5912290000000  0.5572750000000  0.4568510000000 1.0
END
