TITL C-612603-7354-473 1200.2609883672 125000 -521.985992979322 0 0 87 (C1) n - 1
REM
REM in /home/nfs/bkarasulu/CARBON/AIRSS/Generating-Clusters/TERSOFF/Only-C1/FIRE-HFTN
REM
REM
REM
REM
REM
REM ./C.cell (11c1c37f851c82e70ff6c80c92926a4b)
REM AIRSS Version 0.9.1 bugfix July 2018 build 013d7b7c2542+ Fri, 06 Jul 2018 19:26:36 +0100
REM compiler GCC version 9.2.1 20190827 (Red Hat 9.2.1-1)
REM options -cpp -mtune=generic -march=x86-64 -g -O0 -fpre-include=/usr/include/finclude/math-vector-fortran.h
REM seed -14722918 845728033 -2013293890 -1202435312 -381633808 804531135 401645728 909701801 -1635627604 -679398507 1914574948 1050205619 78111764 -18538525 -1603410502 -258226532 -1877605162 482354144 1096105058 -1475207132 1150983962 907399880 399201627 -2118085235 599673451 -2048847487 -1165322355 1470651317 -1790658604 -1324036160 1954992035 848985161 -1189301678
REM
CELL 1.54180   50.00000   50.00000   50.00000   90.00000   90.00000   90.00000
LATT -1
SFAC C  
C      1  0.5095950000000  0.5922150000000  0.4272860000000 1.0
C      1  0.5557040000000  0.5409560000000  0.5450370000000 1.0
C      1  0.4243930000000  0.5178400000000  0.4522630000000 1.0
C      1  0.4837720000000  0.5368310000000  0.5185570000000 1.0
C      1  0.5329820000000  0.5593240000000  0.5439780000000 1.0
C      1  0.5559320000000  0.5600190000000  0.5028120000000 1.0
C      1  0.4548350000000  0.5534770000000  0.4317670000000 1.0
C      1  0.4517300000000  0.5061860000000  0.5044090000000 1.0
C      1  0.5223310000000  0.5087590000000  0.5094810000000 1.0
C      1  0.4497380000000  0.6188530000000  0.6108060000000 1.0
C      1  0.4378450000000  0.5103330000000  0.4087530000000 1.0
C      1  0.5580620000000  0.4702740000000  0.4570300000000 1.0
C      1  0.5491810000000  0.4616140000000  0.5095070000000 1.0
C      1  0.5147060000000  0.5841110000000  0.4994010000000 1.0
C      1  0.5070160000000  0.5267900000000  0.5715630000000 1.0
C      1  0.4881820000000  0.4582140000000  0.5071310000000 1.0
C      1  0.5866710000000  0.4047620000000  0.5003570000000 1.0
C      1  0.6285850000000  0.3447710000000  0.5171350000000 1.0
C      1  0.5094800000000  0.4930210000000  0.5290710000000 1.0
C      1  0.4463410000000  0.4684340000000  0.5809320000000 1.0
C      1  0.4381980000000  0.5304100000000  0.4292390000000 1.0
C      1  0.4870280000000  0.4527270000000  0.4155520000000 1.0
C      1  0.5471530000000  0.4941870000000  0.4679540000000 1.0
C      1  0.5079310000000  0.4618280000000  0.4320870000000 1.0
C      1  0.5425530000000  0.3919560000000  0.5053120000000 1.0
C      1  0.4368840000000  0.5581700000000  0.4759010000000 1.0
C      1  0.4644760000000  0.5049600000000  0.5524950000000 1.0
C      1  0.6078980000000  0.3600920000000  0.5130720000000 1.0
C      1  0.4976910000000  0.4256680000000  0.4627680000000 1.0
C      1  0.4822460000000  0.5936000000000  0.5850110000000 1.0
C      1  0.5663720000000  0.5379860000000  0.5182790000000 1.0
C      1  0.4517550000000  0.5703280000000  0.6120420000000 1.0
C      1  0.5068800000000  0.4650900000000  0.5265410000000 1.0
C      1  0.4516010000000  0.4741590000000  0.6065320000000 1.0
C      1  0.4607860000000  0.5952520000000  0.6029510000000 1.0
C      1  0.5268450000000  0.5814910000000  0.4719760000000 1.0
C      1  0.4527480000000  0.4779890000000  0.5551900000000 1.0
C      1  0.4216530000000  0.5357160000000  0.4738430000000 1.0
C      1  0.4574090000000  0.5661040000000  0.4577050000000 1.0
C      1  0.4617820000000  0.4514960000000  0.4074160000000 1.0
C      1  0.5058140000000  0.5834460000000  0.4527170000000 1.0
C      1  0.5175550000000  0.4433230000000  0.4523800000000 1.0
C      1  0.5035690000000  0.5252250000000  0.3924870000000 1.0
C      1  0.5329130000000  0.5724110000000  0.5183320000000 1.0
C      1  0.4198800000000  0.4674340000000  0.4643590000000 1.0
C      1  0.5148920000000  0.4896660000000  0.4298270000000 1.0
C      1  0.4214560000000  0.4892620000000  0.4468360000000 1.0
C      1  0.4635600000000  0.5185870000000  0.5269080000000 1.0
C      1  0.5548250000000  0.5229600000000  0.5663420000000 1.0
C      1  0.6090230000000  0.4194780000000  0.4954230000000 1.0
C      1  0.4862680000000  0.5866790000000  0.4948550000000 1.0
C      1  0.4564830000000  0.5443220000000  0.6093680000000 1.0
C      1  0.4803300000000  0.5802580000000  0.4667130000000 1.0
C      1  0.5969100000000  0.5016020000000  0.5063870000000 1.0
C      1  0.5264470000000  0.5038300000000  0.4515410000000 1.0
C      1  0.5330190000000  0.4818670000000  0.5760500000000 1.0
C      1  0.5582640000000  0.3700550000000  0.5113960000000 1.0
C      1  0.5716730000000  0.5120520000000  0.5077070000000 1.0
C      1  0.5401840000000  0.4614680000000  0.5596510000000 1.0
C      1  0.4302940000000  0.4461760000000  0.4769830000000 1.0
C      1  0.5591140000000  0.4145290000000  0.4981880000000 1.0
C      1  0.4798020000000  0.5173060000000  0.5744710000000 1.0
C      1  0.5066760000000  0.5316770000000  0.5046360000000 1.0
C      1  0.5336230000000  0.4566460000000  0.5325760000000 1.0
C      1  0.4889160000000  0.5474520000000  0.3939010000000 1.0
C      1  0.5308240000000  0.5100360000000  0.5747740000000 1.0
C      1  0.5120840000000  0.5543510000000  0.5627170000000 1.0
C      1  0.5862580000000  0.3766710000000  0.5087030000000 1.0
C      1  0.5114390000000  0.5035390000000  0.4057420000000 1.0
C      1  0.5519180000000  0.5682420000000  0.4756500000000 1.0
C      1  0.4500280000000  0.4587580000000  0.5344450000000 1.0
C      1  0.4710010000000  0.5594140000000  0.4096930000000 1.0
C      1  0.4293910000000  0.4847960000000  0.4189040000000 1.0
C      1  0.5478460000000  0.4964450000000  0.4980450000000 1.0
C      1  0.4674220000000  0.5203140000000  0.6003500000000 1.0
C      1  0.4850560000000  0.4761490000000  0.4850670000000 1.0
C      1  0.4651490000000  0.4943980000000  0.4840670000000 1.0
C      1  0.4625850000000  0.4969960000000  0.6153960000000 1.0
C      1  0.4682290000000  0.5956900000000  0.5131230000000 1.0
C      1  0.4156260000000  0.4452810000000  0.3946740000000 1.0
C      1  0.5437290000000  0.4467760000000  0.4641420000000 1.0
C      1  0.4526540000000  0.4338630000000  0.4891120000000 1.0
C      1  0.4630870000000  0.4460680000000  0.5130250000000 1.0
C      1  0.5507650000000  0.4400840000000  0.4909600000000 1.0
C      1  0.4983770000000  0.5765560000000  0.5725970000000 1.0
C      1  0.4351190000000  0.4601390000000  0.4066860000000 1.0
C      1  0.4729490000000  0.4217270000000  0.4729500000000 1.0
END
