TITL C-612600-6631-1484 53.4821939647221 125000 -704.822822962137 0 0 116 (C1) n - 1
REM
REM in /home/nfs/bkarasulu/CARBON/AIRSS/Generating-Clusters/TERSOFF/Only-C1/FIRE-HFTN
REM
REM
REM
REM
REM
REM ./C.cell (11c1c37f851c82e70ff6c80c92926a4b)
REM AIRSS Version 0.9.1 bugfix July 2018 build 013d7b7c2542+ Fri, 06 Jul 2018 19:26:36 +0100
REM compiler GCC version 9.2.1 20190827 (Red Hat 9.2.1-1)
REM options -cpp -mtune=generic -march=x86-64 -g -O0 -fpre-include=/usr/include/finclude/math-vector-fortran.h
REM seed 1168483400 -2146211970 -227887223 -1185584635 -486507995 -661647462 1971944527 74936390 -1248871349 1921235927 -1248559070 -1372919725 625987662 51505246 189211896 -1088677777 -355061150 1661296660 -1128415295 -1363094667 -1786116627 -335022623 330388136 -1292098895 1337922111 463422554 -46200060 1576546220 2146808635 -597760898 -1982053581 458700472 -1498412629
REM
CELL 1.54180   50.00000   50.00000   50.00000   90.00000   90.00000   90.00000
LATT -1
SFAC C  
C      1  0.4348180000000  0.4314010000000  0.5382590000000 1.0
C      1  0.5074380000000  0.5293580000000  0.4137170000000 1.0
C      1  0.4965470000000  0.4386010000000  0.5820040000000 1.0
C      1  0.5023800000000  0.4628240000000  0.4684540000000 1.0
C      1  0.5917220000000  0.5372300000000  0.4719900000000 1.0
C      1  0.4586680000000  0.5969150000000  0.4813530000000 1.0
C      1  0.5877500000000  0.4478510000000  0.4998230000000 1.0
C      1  0.5835420000000  0.4618070000000  0.4745910000000 1.0
C      1  0.5918840000000  0.4206410000000  0.4988460000000 1.0
C      1  0.5226710000000  0.4926050000000  0.5433100000000 1.0
C      1  0.4810550000000  0.5026390000000  0.5942650000000 1.0
C      1  0.4054240000000  0.4382380000000  0.4975710000000 1.0
C      1  0.4052860000000  0.5371460000000  0.5429440000000 1.0
C      1  0.5493440000000  0.5436760000000  0.5875580000000 1.0
C      1  0.4928160000000  0.6151990000000  0.4210940000000 1.0
C      1  0.5388040000000  0.5128120000000  0.4577150000000 1.0
C      1  0.4069810000000  0.5139960000000  0.5269910000000 1.0
C      1  0.5107890000000  0.5274360000000  0.5130140000000 1.0
C      1  0.4853320000000  0.5056690000000  0.4687860000000 1.0
C      1  0.4622320000000  0.5574350000000  0.4527000000000 1.0
C      1  0.4904800000000  0.5912910000000  0.4312000000000 1.0
C      1  0.5096720000000  0.5622410000000  0.5689350000000 1.0
C      1  0.3885720000000  0.4895280000000  0.4911150000000 1.0
C      1  0.5761830000000  0.5055370000000  0.4073580000000 1.0
C      1  0.4784540000000  0.4682980000000  0.5477920000000 1.0
C      1  0.4900440000000  0.5363600000000  0.5321310000000 1.0
C      1  0.5239810000000  0.4486880000000  0.5084070000000 1.0
C      1  0.4136470000000  0.3921110000000  0.4869150000000 1.0
C      1  0.4940450000000  0.4843080000000  0.4530640000000 1.0
C      1  0.4789230000000  0.3943720000000  0.4749550000000 1.0
C      1  0.5323540000000  0.5488690000000  0.5062160000000 1.0
C      1  0.4943000000000  0.4853490000000  0.4248480000000 1.0
C      1  0.4266660000000  0.4943670000000  0.5327200000000 1.0
C      1  0.5248470000000  0.4981330000000  0.5139670000000 1.0
C      1  0.5330650000000  0.5865380000000  0.4713000000000 1.0
C      1  0.5093920000000  0.5466140000000  0.4369340000000 1.0
C      1  0.4598050000000  0.5199490000000  0.4222020000000 1.0
C      1  0.4759870000000  0.4482470000000  0.5074200000000 1.0
C      1  0.4460850000000  0.4870960000000  0.5123580000000 1.0
C      1  0.5873770000000  0.4897590000000  0.4748530000000 1.0
C      1  0.4877070000000  0.5653120000000  0.4413040000000 1.0
C      1  0.4504710000000  0.3828540000000  0.5234070000000 1.0
C      1  0.5324690000000  0.5639900000000  0.5829480000000 1.0
C      1  0.4679090000000  0.4708640000000  0.5218130000000 1.0
C      1  0.5429680000000  0.6179250000000  0.5268420000000 1.0
C      1  0.4046610000000  0.4174150000000  0.4771930000000 1.0
C      1  0.5913000000000  0.5124750000000  0.4560170000000 1.0
C      1  0.5833300000000  0.5025440000000  0.5006870000000 1.0
C      1  0.5016450000000  0.4851900000000  0.5852020000000 1.0
C      1  0.3910540000000  0.4627640000000  0.4956020000000 1.0
C      1  0.5152670000000  0.4592120000000  0.5899480000000 1.0
C      1  0.5305030000000  0.5201080000000  0.4002600000000 1.0
C      1  0.5399280000000  0.4733160000000  0.4127540000000 1.0
C      1  0.4943120000000  0.4053020000000  0.5190110000000 1.0
C      1  0.4955110000000  0.3884920000000  0.4958810000000 1.0
C      1  0.5842970000000  0.4763290000000  0.5495290000000 1.0
C      1  0.4967490000000  0.6256900000000  0.5046710000000 1.0
C      1  0.5713580000000  0.4516570000000  0.4510090000000 1.0
C      1  0.4596210000000  0.4227230000000  0.5497600000000 1.0
C      1  0.5436070000000  0.4571850000000  0.5830400000000 1.0
C      1  0.5918080000000  0.5107380000000  0.4283350000000 1.0
C      1  0.4271500000000  0.4844460000000  0.5590300000000 1.0
C      1  0.4855780000000  0.5106600000000  0.4146150000000 1.0
C      1  0.4933200000000  0.5405920000000  0.5607730000000 1.0
C      1  0.4784660000000  0.5291350000000  0.5827830000000 1.0
C      1  0.5764060000000  0.5490290000000  0.5342550000000 1.0
C      1  0.5962480000000  0.5031090000000  0.5514240000000 1.0
C      1  0.5406150000000  0.4893300000000  0.4703540000000 1.0
C      1  0.4221810000000  0.4536440000000  0.4496300000000 1.0
C      1  0.5560140000000  0.5351240000000  0.5194110000000 1.0
C      1  0.5756620000000  0.5769200000000  0.5241820000000 1.0
C      1  0.5837740000000  0.5781370000000  0.4965030000000 1.0
C      1  0.4307400000000  0.4352050000000  0.5103110000000 1.0
C      1  0.4758480000000  0.6140160000000  0.4927030000000 1.0
C      1  0.4899460000000  0.4385270000000  0.4618830000000 1.0
C      1  0.5581380000000  0.5083330000000  0.5118780000000 1.0
C      1  0.5204870000000  0.6289490000000  0.5167170000000 1.0
C      1  0.4407840000000  0.5574950000000  0.5177730000000 1.0
C      1  0.4220170000000  0.5579590000000  0.5387790000000 1.0
C      1  0.4482780000000  0.5719660000000  0.4728700000000 1.0
C      1  0.5445120000000  0.4973140000000  0.5608930000000 1.0
C      1  0.4304370000000  0.3810600000000  0.5051780000000 1.0
C      1  0.4696090000000  0.4211090000000  0.4718140000000 1.0
C      1  0.4597470000000  0.5457500000000  0.5945580000000 1.0
C      1  0.4107490000000  0.4290820000000  0.4520160000000 1.0
C      1  0.5933000000000  0.5303620000000  0.5483120000000 1.0
C      1  0.4703870000000  0.4002100000000  0.5351340000000 1.0
C      1  0.5233660000000  0.4742190000000  0.4909210000000 1.0
C      1  0.5416170000000  0.5575930000000  0.4769940000000 1.0
C      1  0.5491910000000  0.4990460000000  0.4035550000000 1.0
C      1  0.6009250000000  0.5260380000000  0.4978110000000 1.0
C      1  0.4551170000000  0.4337720000000  0.4940380000000 1.0
C      1  0.5299390000000  0.5394900000000  0.4559960000000 1.0
C      1  0.5504540000000  0.5908610000000  0.5285990000000 1.0
C      1  0.5601680000000  0.4734890000000  0.5656770000000 1.0
C      1  0.4925230000000  0.4274740000000  0.3807790000000 1.0
C      1  0.5737390000000  0.5592280000000  0.4766610000000 1.0
C      1  0.4355840000000  0.4837690000000  0.5843540000000 1.0
C      1  0.4993150000000  0.4848380000000  0.5562020000000 1.0
C      1  0.4582320000000  0.5125890000000  0.4700770000000 1.0
C      1  0.4308840000000  0.5572860000000  0.4907080000000 1.0
C      1  0.4562000000000  0.4903400000000  0.6002730000000 1.0
C      1  0.5564730000000  0.4570490000000  0.4291770000000 1.0
C      1  0.5880340000000  0.4603810000000  0.5258570000000 1.0
C      1  0.3986630000000  0.5149370000000  0.4995340000000 1.0
C      1  0.5021200000000  0.4474200000000  0.3945320000000 1.0
C      1  0.4667920000000  0.5481420000000  0.5217050000000 1.0
C      1  0.5118210000000  0.4681710000000  0.4103370000000 1.0
C      1  0.4097430000000  0.5379500000000  0.4857700000000 1.0
C      1  0.4428820000000  0.4923780000000  0.4832730000000 1.0
C      1  0.5285670000000  0.5735130000000  0.5225910000000 1.0
C      1  0.5497580000000  0.5188900000000  0.5777680000000 1.0
C      1  0.4766390000000  0.4423710000000  0.5616340000000 1.0
C      1  0.4312140000000  0.4740410000000  0.4647250000000 1.0
C      1  0.4535340000000  0.5305900000000  0.4479850000000 1.0
C      1  0.5002730000000  0.4334550000000  0.5137970000000 1.0
END
