TITL C-612605-9286-1486 -6.37325765785359 125000 -611.383706771009 0 0 101 (C1) n - 1
REM
REM in /home/nfs/bkarasulu/CARBON/AIRSS/Generating-Clusters/TERSOFF/Only-C1/FIRE-HFTN
REM
REM
REM
REM
REM
REM ./C.cell (11c1c37f851c82e70ff6c80c92926a4b)
REM AIRSS Version 0.9.1 bugfix July 2018 build 013d7b7c2542+ Fri, 06 Jul 2018 19:26:36 +0100
REM compiler GCC version 9.2.1 20190827 (Red Hat 9.2.1-1)
REM options -cpp -mtune=generic -march=x86-64 -g -O0 -fpre-include=/usr/include/finclude/math-vector-fortran.h
REM seed -199461268 214602278 946832345 565492970 1047754099 -1446831987 -2000259718 -1139553515 -897218564 1285007113 -691584740 472923314 948178632 -100115727 -881264407 -230416158 2061315776 -1993834883 1085491172 -1322450809 -414708422 1295280721 -619232743 -819994456 -317770490 -834728061 -48743715 1911312631 408468061 1890913864 984903229 484818950 1996991003
REM
CELL 1.54180   50.00000   50.00000   50.00000   90.00000   90.00000   90.00000
LATT -1
SFAC C  
C      1  0.4470300000000  0.4921560000000  0.4710470000000 1.0
C      1  0.4686070000000  0.4527090000000  0.5684000000000 1.0
C      1  0.4321550000000  0.5485080000000  0.5155690000000 1.0
C      1  0.5117440000000  0.5336650000000  0.5168430000000 1.0
C      1  0.4078770000000  0.5056520000000  0.5220930000000 1.0
C      1  0.4571320000000  0.4529340000000  0.5172510000000 1.0
C      1  0.5385290000000  0.5254790000000  0.4248320000000 1.0
C      1  0.5450170000000  0.5592270000000  0.4589690000000 1.0
C      1  0.5656820000000  0.5143030000000  0.5576230000000 1.0
C      1  0.4954060000000  0.4711470000000  0.4152000000000 1.0
C      1  0.4024500000000  0.4867960000000  0.4117350000000 1.0
C      1  0.5844820000000  0.5368090000000  0.4954090000000 1.0
C      1  0.4912040000000  0.4106290000000  0.4922130000000 1.0
C      1  0.5028820000000  0.4734340000000  0.5039720000000 1.0
C      1  0.4723700000000  0.5216830000000  0.5937700000000 1.0
C      1  0.4600110000000  0.5280680000000  0.6181610000000 1.0
C      1  0.4986710000000  0.5577130000000  0.4768710000000 1.0
C      1  0.4482530000000  0.5338010000000  0.6407010000000 1.0
C      1  0.5432690000000  0.4911920000000  0.4733780000000 1.0
C      1  0.4865210000000  0.4349140000000  0.5556130000000 1.0
C      1  0.5774240000000  0.4734540000000  0.4493010000000 1.0
C      1  0.5581800000000  0.5149820000000  0.4661950000000 1.0
C      1  0.4018350000000  0.4845730000000  0.5064920000000 1.0
C      1  0.4346420000000  0.4384080000000  0.4557160000000 1.0
C      1  0.5160130000000  0.4872650000000  0.4815790000000 1.0
C      1  0.5924410000000  0.4877020000000  0.4717170000000 1.0
C      1  0.4698290000000  0.5196760000000  0.3946120000000 1.0
C      1  0.6039890000000  0.4467290000000  0.4931910000000 1.0
C      1  0.5036690000000  0.4912510000000  0.4556900000000 1.0
C      1  0.4638600000000  0.4695000000000  0.4747170000000 1.0
C      1  0.4221300000000  0.4921280000000  0.4279610000000 1.0
C      1  0.4757900000000  0.4531950000000  0.4279220000000 1.0
C      1  0.4813690000000  0.4230910000000  0.4685160000000 1.0
C      1  0.5309900000000  0.5639420000000  0.5750140000000 1.0
C      1  0.4436560000000  0.4983870000000  0.4441330000000 1.0
C      1  0.5021260000000  0.5153490000000  0.5365880000000 1.0
C      1  0.5686670000000  0.5067260000000  0.5299620000000 1.0
C      1  0.4379700000000  0.5197710000000  0.5577550000000 1.0
C      1  0.5714890000000  0.5850510000000  0.5054270000000 1.0
C      1  0.5366660000000  0.5416900000000  0.5055760000000 1.0
C      1  0.5618710000000  0.5285790000000  0.5121840000000 1.0
C      1  0.5190030000000  0.4074400000000  0.5019650000000 1.0
C      1  0.5675070000000  0.4146640000000  0.4829180000000 1.0
C      1  0.4577040000000  0.5592310000000  0.4438450000000 1.0
C      1  0.4366380000000  0.5556630000000  0.4630520000000 1.0
C      1  0.5876270000000  0.5649520000000  0.4966720000000 1.0
C      1  0.5854910000000  0.5156210000000  0.4753890000000 1.0
C      1  0.4837740000000  0.4939420000000  0.3975350000000 1.0
C      1  0.4566510000000  0.5062780000000  0.5749220000000 1.0
C      1  0.5820560000000  0.4513180000000  0.5583810000000 1.0
C      1  0.5037420000000  0.5780970000000  0.4127580000000 1.0
C      1  0.5260020000000  0.5376210000000  0.5827810000000 1.0
C      1  0.4753120000000  0.4658610000000  0.5000250000000 1.0
C      1  0.5516830000000  0.5344880000000  0.4474480000000 1.0
C      1  0.5255610000000  0.4735070000000  0.5916460000000 1.0
C      1  0.4901920000000  0.5390380000000  0.4968360000000 1.0
C      1  0.5281740000000  0.5582750000000  0.4815320000000 1.0
C      1  0.5522860000000  0.4352000000000  0.5242390000000 1.0
C      1  0.5431830000000  0.5158050000000  0.5750440000000 1.0
C      1  0.4605300000000  0.5346770000000  0.4191610000000 1.0
C      1  0.5116530000000  0.4468800000000  0.5471750000000 1.0
C      1  0.4657690000000  0.5139960000000  0.4375010000000 1.0
C      1  0.4496750000000  0.4257070000000  0.5167560000000 1.0
C      1  0.5186370000000  0.4748840000000  0.4349670000000 1.0
C      1  0.5477700000000  0.4739220000000  0.4483600000000 1.0
C      1  0.4961670000000  0.5871970000000  0.4371080000000 1.0
C      1  0.4699630000000  0.5200630000000  0.5030320000000 1.0
C      1  0.4972970000000  0.5981630000000  0.5209690000000 1.0
C      1  0.4241500000000  0.5263130000000  0.5334940000000 1.0
C      1  0.4239340000000  0.4159920000000  0.5199540000000 1.0
C      1  0.4330260000000  0.5405000000000  0.4869170000000 1.0
C      1  0.5155940000000  0.4046290000000  0.5322930000000 1.0
C      1  0.4936250000000  0.5137650000000  0.4419840000000 1.0
C      1  0.4644370000000  0.4452350000000  0.4554030000000 1.0
C      1  0.4738210000000  0.5825070000000  0.5261090000000 1.0
C      1  0.5700600000000  0.4555710000000  0.5339050000000 1.0
C      1  0.5945040000000  0.4732630000000  0.4963700000000 1.0
C      1  0.4031920000000  0.4648490000000  0.4882320000000 1.0
C      1  0.5316060000000  0.4272020000000  0.5423210000000 1.0
C      1  0.4503740000000  0.5691030000000  0.5238620000000 1.0
C      1  0.5269640000000  0.5830710000000  0.5570310000000 1.0
C      1  0.5120600000000  0.4701460000000  0.5313210000000 1.0
C      1  0.5926650000000  0.4242280000000  0.4836970000000 1.0
C      1  0.4875270000000  0.4092660000000  0.5402010000000 1.0
C      1  0.4004260000000  0.4057160000000  0.5245310000000 1.0
C      1  0.4474910000000  0.5152240000000  0.4873550000000 1.0
C      1  0.4941380000000  0.6208090000000  0.5056050000000 1.0
C      1  0.4599950000000  0.4778400000000  0.5736150000000 1.0
C      1  0.4990280000000  0.5308160000000  0.5900000000000 1.0
C      1  0.5456290000000  0.4200340000000  0.4995900000000 1.0
C      1  0.5239170000000  0.5924050000000  0.5307280000000 1.0
C      1  0.5107320000000  0.5289020000000  0.4229550000000 1.0
C      1  0.5148460000000  0.4930270000000  0.5469910000000 1.0
C      1  0.4725990000000  0.4092060000000  0.5153810000000 1.0
C      1  0.5776680000000  0.4797620000000  0.5197320000000 1.0
C      1  0.4830860000000  0.5694950000000  0.4551000000000 1.0
C      1  0.4136430000000  0.4479840000000  0.4699780000000 1.0
C      1  0.5276130000000  0.4922250000000  0.5720530000000 1.0
C      1  0.5480450000000  0.5941300000000  0.5154420000000 1.0
C      1  0.5046510000000  0.5517160000000  0.4071080000000 1.0
C      1  0.4750100000000  0.5103150000000  0.5288290000000 1.0
END
