TITL C-612605-9286-835 0.0951850845260695 125000 -367.114447470386 0 0 62 (C1) n - 1
REM
REM in /home/nfs/bkarasulu/CARBON/AIRSS/Generating-Clusters/TERSOFF/Only-C1/FIRE-HFTN
REM
REM
REM
REM
REM
REM ./C.cell (11c1c37f851c82e70ff6c80c92926a4b)
REM AIRSS Version 0.9.1 bugfix July 2018 build 013d7b7c2542+ Fri, 06 Jul 2018 19:26:36 +0100
REM compiler GCC version 9.2.1 20190827 (Red Hat 9.2.1-1)
REM options -cpp -mtune=generic -march=x86-64 -g -O0 -fpre-include=/usr/include/finclude/math-vector-fortran.h
REM seed 291219239 -1505313853 -1224528046 -1882976446 -241374406 1263052068 -811806680 -1063377754 1214031627 -1882359576 1157079781 1279816233 1986814581 1155486849 -294557951 1073203409 110366650 1750761026 -1376728872 -1588177737 610283458 -1872591091 -401979726 -1015629785 1097588757 -31286987 -1041236366 -1721361952 -2014774770 206275555 -1163365228 1041643158 -1565693683
REM
CELL 1.54180   50.00000   50.00000   50.00000   90.00000   90.00000   90.00000
LATT -1
SFAC C  
C      1  0.4462040000000  0.4654790000000  0.4597090000000 1.0
C      1  0.5168820000000  0.4761780000000  0.5535250000000 1.0
C      1  0.4768640000000  0.4962620000000  0.5743260000000 1.0
C      1  0.3731490000000  0.5287910000000  0.5833640000000 1.0
C      1  0.4613550000000  0.5426570000000  0.4408280000000 1.0
C      1  0.5701470000000  0.5081790000000  0.5243850000000 1.0
C      1  0.4264830000000  0.5125870000000  0.4576030000000 1.0
C      1  0.5936900000000  0.4816580000000  0.6186550000000 1.0
C      1  0.5175510000000  0.4055880000000  0.4867540000000 1.0
C      1  0.4561610000000  0.4929430000000  0.5905170000000 1.0
C      1  0.5378850000000  0.4466730000000  0.4397860000000 1.0
C      1  0.5316320000000  0.3831510000000  0.4867240000000 1.0
C      1  0.4334570000000  0.5586420000000  0.4756260000000 1.0
C      1  0.4979000000000  0.5808240000000  0.4586760000000 1.0
C      1  0.5869260000000  0.5012500000000  0.5025160000000 1.0
C      1  0.5203270000000  0.6068250000000  0.4950710000000 1.0
C      1  0.5173320000000  0.5353440000000  0.4738370000000 1.0
C      1  0.5045160000000  0.4302940000000  0.4856820000000 1.0
C      1  0.5660590000000  0.4880360000000  0.5728000000000 1.0
C      1  0.5767600000000  0.5031080000000  0.5513170000000 1.0
C      1  0.5193000000000  0.5223550000000  0.5205600000000 1.0
C      1  0.4821980000000  0.4660440000000  0.5019060000000 1.0
C      1  0.5006930000000  0.5905130000000  0.4857870000000 1.0
C      1  0.4590590000000  0.5706670000000  0.4810330000000 1.0
C      1  0.4929970000000  0.4404080000000  0.4597350000000 1.0
C      1  0.5033460000000  0.5311590000000  0.4981110000000 1.0
C      1  0.5348070000000  0.4746770000000  0.4837030000000 1.0
C      1  0.5261530000000  0.4916610000000  0.4149890000000 1.0
C      1  0.4782790000000  0.5796090000000  0.5016060000000 1.0
C      1  0.4801100000000  0.4941970000000  0.4229930000000 1.0
C      1  0.4825100000000  0.5697320000000  0.5281920000000 1.0
C      1  0.3926210000000  0.5294960000000  0.5660450000000 1.0
C      1  0.4745240000000  0.5246310000000  0.4973670000000 1.0
C      1  0.4648650000000  0.4458740000000  0.4577480000000 1.0
C      1  0.5423270000000  0.5053210000000  0.5188760000000 1.0
C      1  0.5368700000000  0.4782570000000  0.5111580000000 1.0
C      1  0.5803450000000  0.4847360000000  0.5964820000000 1.0
C      1  0.5097360000000  0.4523720000000  0.4386680000000 1.0
C      1  0.5195630000000  0.4625270000000  0.5276610000000 1.0
C      1  0.5145350000000  0.4888630000000  0.4705680000000 1.0
C      1  0.4337420000000  0.5295580000000  0.5326360000000 1.0
C      1  0.4910830000000  0.5503870000000  0.5457240000000 1.0
C      1  0.5016490000000  0.4470500000000  0.5100740000000 1.0
C      1  0.5803220000000  0.4687410000000  0.4615920000000 1.0
C      1  0.4742070000000  0.5648800000000  0.4549450000000 1.0
C      1  0.5889180000000  0.4859160000000  0.4804360000000 1.0
C      1  0.5028540000000  0.4764370000000  0.4225450000000 1.0
C      1  0.4991350000000  0.4992080000000  0.5577070000000 1.0
C      1  0.4550100000000  0.5297220000000  0.5168090000000 1.0
C      1  0.5231860000000  0.5132090000000  0.4578590000000 1.0
C      1  0.4348890000000  0.5392900000000  0.4542200000000 1.0
C      1  0.4680530000000  0.5034760000000  0.4794050000000 1.0
C      1  0.4717730000000  0.5199340000000  0.4269130000000 1.0
C      1  0.4883590000000  0.4845800000000  0.4814710000000 1.0
C      1  0.5044290000000  0.5247400000000  0.5448700000000 1.0
C      1  0.4128350000000  0.5298080000000  0.5489040000000 1.0
C      1  0.5457390000000  0.3612290000000  0.4865280000000 1.0
C      1  0.5625990000000  0.4540570000000  0.4476260000000 1.0
C      1  0.5343460000000  0.5111430000000  0.4321360000000 1.0
C      1  0.4358320000000  0.4896060000000  0.6064920000000 1.0
C      1  0.4444830000000  0.4930130000000  0.4667110000000 1.0
C      1  0.5404430000000  0.4764520000000  0.5695080000000 1.0
END
