TITL C-612600-6631-11 -0.000111071251229343 125000 -720.192979876378 0 0 119 (C1) n - 1
REM
REM in /home/nfs/bkarasulu/CARBON/AIRSS/Generating-Clusters/TERSOFF/Only-C1/FIRE-HFTN
REM
REM
REM
REM
REM
REM ./C.cell (11c1c37f851c82e70ff6c80c92926a4b)
REM AIRSS Version 0.9.1 bugfix July 2018 build 013d7b7c2542+ Fri, 06 Jul 2018 19:26:36 +0100
REM compiler GCC version 9.2.1 20190827 (Red Hat 9.2.1-1)
REM options -cpp -mtune=generic -march=x86-64 -g -O0 -fpre-include=/usr/include/finclude/math-vector-fortran.h
REM seed 710502082 -1864137537 -9313977 -1693242685 -365744232 -1232100127 287354483 1381614389 -1547031977 251777085 -1732171310 1259813137 -1706103012 -507535855 1832087794 -661609511 -692431103 706796669 141878938 -1264052018 589734009 -306412667 -1850433212 1460385310 522882956 1688551926 -54362076 -248000964 594240905 67699377 -2072935101 1125746721 674404963
REM
CELL 1.54180   50.00000   50.00000   50.00000   90.00000   90.00000   90.00000
LATT -1
SFAC C  
C      1  0.5546180000000  0.4824350000000  0.4236220000000 1.0
C      1  0.4531010000000  0.5919680000000  0.5203070000000 1.0
C      1  0.4134380000000  0.5092660000000  0.4965950000000 1.0
C      1  0.5238400000000  0.4361140000000  0.5698180000000 1.0
C      1  0.3956510000000  0.4936400000000  0.4786340000000 1.0
C      1  0.4569900000000  0.5983630000000  0.4935330000000 1.0
C      1  0.4357710000000  0.4423560000000  0.4526050000000 1.0
C      1  0.5778800000000  0.5444520000000  0.4409920000000 1.0
C      1  0.5383690000000  0.5853250000000  0.5138150000000 1.0
C      1  0.3856370000000  0.4748170000000  0.5487660000000 1.0
C      1  0.5267390000000  0.5346590000000  0.5814120000000 1.0
C      1  0.4685950000000  0.4465010000000  0.5176150000000 1.0
C      1  0.5570550000000  0.5416880000000  0.4598850000000 1.0
C      1  0.6112530000000  0.5234120000000  0.5344640000000 1.0
C      1  0.4878940000000  0.5153040000000  0.4550940000000 1.0
C      1  0.3996460000000  0.4315600000000  0.5673100000000 1.0
C      1  0.4495490000000  0.5080090000000  0.5846730000000 1.0
C      1  0.4300140000000  0.5059040000000  0.6032000000000 1.0
C      1  0.4850160000000  0.4705420000000  0.5685000000000 1.0
C      1  0.4678770000000  0.4423700000000  0.4904900000000 1.0
C      1  0.5438890000000  0.4058270000000  0.4549370000000 1.0
C      1  0.5804290000000  0.4484840000000  0.5105010000000 1.0
C      1  0.4842500000000  0.5456580000000  0.5064790000000 1.0
C      1  0.4207470000000  0.4508690000000  0.5269640000000 1.0
C      1  0.5277780000000  0.5857200000000  0.4271020000000 1.0
C      1  0.5433970000000  0.6079490000000  0.4236380000000 1.0
C      1  0.5286660000000  0.4106630000000  0.5573290000000 1.0
C      1  0.4958110000000  0.4603150000000  0.4537920000000 1.0
C      1  0.5289210000000  0.4260190000000  0.4668690000000 1.0
C      1  0.3934000000000  0.5038110000000  0.4527220000000 1.0
C      1  0.5740410000000  0.6247180000000  0.5222660000000 1.0
C      1  0.4373300000000  0.5536960000000  0.4901820000000 1.0
C      1  0.4225830000000  0.5657060000000  0.4682970000000 1.0
C      1  0.4549170000000  0.4194470000000  0.4547200000000 1.0
C      1  0.4473560000000  0.3893440000000  0.5422490000000 1.0
C      1  0.4715260000000  0.4020440000000  0.5433340000000 1.0
C      1  0.4596180000000  0.4870710000000  0.4816870000000 1.0
C      1  0.4837580000000  0.5202510000000  0.5197090000000 1.0
C      1  0.6145830000000  0.4169720000000  0.4539550000000 1.0
C      1  0.5460520000000  0.4536880000000  0.5721900000000 1.0
C      1  0.4530080000000  0.5464410000000  0.4400220000000 1.0
C      1  0.4022320000000  0.5513900000000  0.4549900000000 1.0
C      1  0.4933820000000  0.5870690000000  0.4611870000000 1.0
C      1  0.4180430000000  0.4420860000000  0.4752600000000 1.0
C      1  0.4909860000000  0.5679150000000  0.5225630000000 1.0
C      1  0.5196010000000  0.5782520000000  0.4535170000000 1.0
C      1  0.4804140000000  0.5442880000000  0.5801340000000 1.0
C      1  0.4754720000000  0.4643030000000  0.4746960000000 1.0
C      1  0.5034140000000  0.5059720000000  0.4775270000000 1.0
C      1  0.5198840000000  0.5704170000000  0.4057950000000 1.0
C      1  0.4898350000000  0.4745240000000  0.4301090000000 1.0
C      1  0.4404210000000  0.5021400000000  0.4928680000000 1.0
C      1  0.5545420000000  0.5383160000000  0.5059140000000 1.0
C      1  0.5996210000000  0.5614010000000  0.4491010000000 1.0
C      1  0.4936530000000  0.4054780000000  0.4959530000000 1.0
C      1  0.4376010000000  0.4684430000000  0.4378500000000 1.0
C      1  0.4767780000000  0.5163590000000  0.5887910000000 1.0
C      1  0.4451270000000  0.5737480000000  0.4508590000000 1.0
C      1  0.4017470000000  0.4514590000000  0.5488390000000 1.0
C      1  0.4482840000000  0.4570920000000  0.5335230000000 1.0
C      1  0.5782910000000  0.4945690000000  0.3836250000000 1.0
C      1  0.5551060000000  0.3854530000000  0.4431790000000 1.0
C      1  0.5616910000000  0.4601190000000  0.5276150000000 1.0
C      1  0.4668000000000  0.5733250000000  0.5380490000000 1.0
C      1  0.4474790000000  0.4964970000000  0.4326210000000 1.0
C      1  0.5130320000000  0.5842850000000  0.5250710000000 1.0
C      1  0.5214780000000  0.5096520000000  0.5681980000000 1.0
C      1  0.5641110000000  0.5240450000000  0.4824260000000 1.0
C      1  0.5385370000000  0.5628570000000  0.4685340000000 1.0
C      1  0.5173980000000  0.4228590000000  0.4923410000000 1.0
C      1  0.4726350000000  0.5383010000000  0.4597690000000 1.0
C      1  0.5564490000000  0.6058560000000  0.5185380000000 1.0
C      1  0.5653430000000  0.4661410000000  0.5553580000000 1.0
C      1  0.4968960000000  0.4964800000000  0.5777410000000 1.0
C      1  0.6045950000000  0.5659320000000  0.4767960000000 1.0
C      1  0.5069170000000  0.5530920000000  0.5847940000000 1.0
C      1  0.5179990000000  0.3947000000000  0.5381020000000 1.0
C      1  0.4085010000000  0.4518340000000  0.4999270000000 1.0
C      1  0.4927300000000  0.3962580000000  0.5242980000000 1.0
C      1  0.4651560000000  0.5899860000000  0.4663680000000 1.0
C      1  0.5499120000000  0.5276110000000  0.5312870000000 1.0
C      1  0.4949260000000  0.4466880000000  0.5263360000000 1.0
C      1  0.5995920000000  0.4329680000000  0.4680490000000 1.0
C      1  0.5777190000000  0.4766560000000  0.4726860000000 1.0
C      1  0.4504830000000  0.5014910000000  0.5563690000000 1.0
C      1  0.5187110000000  0.4440110000000  0.5117300000000 1.0
C      1  0.4652510000000  0.5466160000000  0.4860610000000 1.0
C      1  0.6096300000000  0.5066020000000  0.4888610000000 1.0
C      1  0.5229550000000  0.4906160000000  0.5215750000000 1.0
C      1  0.5224530000000  0.4500480000000  0.4534520000000 1.0
C      1  0.3903660000000  0.4985040000000  0.5648230000000 1.0
C      1  0.5858260000000  0.4517830000000  0.4831410000000 1.0
C      1  0.3981530000000  0.5198300000000  0.5488240000000 1.0
C      1  0.4074730000000  0.5261760000000  0.4425350000000 1.0
C      1  0.5413630000000  0.4640700000000  0.4377800000000 1.0
C      1  0.4347970000000  0.5232060000000  0.4335020000000 1.0
C      1  0.5437060000000  0.5636460000000  0.4970820000000 1.0
C      1  0.5834110000000  0.4870060000000  0.5616180000000 1.0
C      1  0.5982700000000  0.5083720000000  0.5545860000000 1.0
C      1  0.3822910000000  0.4859620000000  0.5218080000000 1.0
C      1  0.4638130000000  0.5224510000000  0.5411040000000 1.0
C      1  0.5358890000000  0.4655520000000  0.5169770000000 1.0
C      1  0.4653960000000  0.5494750000000  0.5553380000000 1.0
C      1  0.6078610000000  0.5506540000000  0.5271050000000 1.0
C      1  0.4593340000000  0.4745840000000  0.5533740000000 1.0
C      1  0.4764600000000  0.4985180000000  0.4343800000000 1.0
C      1  0.3980170000000  0.5123000000000  0.5210390000000 1.0
C      1  0.3881520000000  0.4721960000000  0.4969750000000 1.0
C      1  0.6067990000000  0.5639620000000  0.5035400000000 1.0
C      1  0.4709380000000  0.4160100000000  0.4792790000000 1.0
C      1  0.5780510000000  0.5254360000000  0.4203980000000 1.0
C      1  0.6153810000000  0.5734790000000  0.4302440000000 1.0
C      1  0.5328920000000  0.5077550000000  0.5420240000000 1.0
C      1  0.4955160000000  0.4434090000000  0.5711050000000 1.0
C      1  0.5703610000000  0.5007930000000  0.4090890000000 1.0
C      1  0.5021010000000  0.5023600000000  0.5062100000000 1.0
C      1  0.6215990000000  0.5084420000000  0.5127840000000 1.0
C      1  0.4778370000000  0.4213260000000  0.5639570000000 1.0
C      1  0.5831410000000  0.5031680000000  0.4798790000000 1.0
END
