TITL C-612606-7351-1111 0.0334438359919572 125000 -868.129186514054 0 0 141 (C1) n - 1
REM
REM in /home/nfs/bkarasulu/CARBON/AIRSS/Generating-Clusters/TERSOFF/Only-C1/FIRE-HFTN
REM
REM
REM
REM
REM
REM ./C.cell (11c1c37f851c82e70ff6c80c92926a4b)
REM AIRSS Version 0.9.1 bugfix July 2018 build 013d7b7c2542+ Fri, 06 Jul 2018 19:26:36 +0100
REM compiler GCC version 9.2.1 20190827 (Red Hat 9.2.1-1)
REM options -cpp -mtune=generic -march=x86-64 -g -O0 -fpre-include=/usr/include/finclude/math-vector-fortran.h
REM seed -1512323336 1972836462 -1593128552 -1680471805 1570575615 1406808815 -1018040486 -201955628 1645797493 -2102705430 -2145301257 1705802123 1300026192 772977684 -140455971 -2034329185 682985998 -1141139104 1177694422 -1719968895 -975217370 1720636844 1423498028 -770011850 1723427030 1362124109 1384302225 -685562763 -641537432 -802577846 1305047841 1706822032 -220693137
REM
CELL 1.54180   50.00000   50.00000   50.00000   90.00000   90.00000   90.00000
LATT -1
SFAC C  
C      1  0.4318200000000  0.4916900000000  0.4229290000000 1.0
C      1  0.5108050000000  0.4373010000000  0.4010760000000 1.0
C      1  0.5634360000000  0.4788670000000  0.4702670000000 1.0
C      1  0.5139690000000  0.5498680000000  0.5188150000000 1.0
C      1  0.4572990000000  0.5056130000000  0.4135510000000 1.0
C      1  0.5864890000000  0.4677840000000  0.4578690000000 1.0
C      1  0.5107330000000  0.5463150000000  0.4148120000000 1.0
C      1  0.5636920000000  0.5694570000000  0.4430820000000 1.0
C      1  0.5625000000000  0.4010570000000  0.5218160000000 1.0
C      1  0.4408710000000  0.4871760000000  0.5685620000000 1.0
C      1  0.4973580000000  0.4461970000000  0.4606660000000 1.0
C      1  0.4698210000000  0.4885770000000  0.5265960000000 1.0
C      1  0.4734340000000  0.5925230000000  0.5707160000000 1.0
C      1  0.3841410000000  0.5111030000000  0.5119470000000 1.0
C      1  0.4963490000000  0.4886220000000  0.4366170000000 1.0
C      1  0.4862940000000  0.5012270000000  0.4121650000000 1.0
C      1  0.5736820000000  0.4814490000000  0.5423120000000 1.0
C      1  0.4824110000000  0.4849380000000  0.6280020000000 1.0
C      1  0.4355760000000  0.4764210000000  0.4721400000000 1.0
C      1  0.4794990000000  0.4100580000000  0.4314400000000 1.0
C      1  0.5423490000000  0.4187720000000  0.5312180000000 1.0
C      1  0.5302850000000  0.4977780000000  0.5501020000000 1.0
C      1  0.4785900000000  0.5091070000000  0.5064050000000 1.0
C      1  0.4767250000000  0.5004720000000  0.4580940000000 1.0
C      1  0.4241690000000  0.5225910000000  0.5373980000000 1.0
C      1  0.5593360000000  0.5946220000000  0.4513020000000 1.0
C      1  0.4585180000000  0.5493130000000  0.4840290000000 1.0
C      1  0.4918000000000  0.3951320000000  0.3867220000000 1.0
C      1  0.4163670000000  0.4769250000000  0.5208740000000 1.0
C      1  0.4624590000000  0.6010760000000  0.4671780000000 1.0
C      1  0.5194560000000  0.5918390000000  0.5761260000000 1.0
C      1  0.4475470000000  0.5510990000000  0.5696970000000 1.0
C      1  0.5182140000000  0.4233320000000  0.5724650000000 1.0
C      1  0.5550250000000  0.4802880000000  0.4969090000000 1.0
C      1  0.4743970000000  0.4115430000000  0.4821290000000 1.0
C      1  0.4855330000000  0.5610930000000  0.4768990000000 1.0
C      1  0.5957520000000  0.4987210000000  0.5331430000000 1.0
C      1  0.4351310000000  0.4618350000000  0.5007520000000 1.0
C      1  0.4456360000000  0.4600560000000  0.5778480000000 1.0
C      1  0.4900700000000  0.4495190000000  0.5095620000000 1.0
C      1  0.4468010000000  0.4123940000000  0.4881270000000 1.0
C      1  0.4972420000000  0.5731950000000  0.4154820000000 1.0
C      1  0.5417750000000  0.4333190000000  0.4716710000000 1.0
C      1  0.4918220000000  0.4937310000000  0.4833340000000 1.0
C      1  0.4943350000000  0.5946050000000  0.5904800000000 1.0
C      1  0.4870140000000  0.5913520000000  0.5443850000000 1.0
C      1  0.5991000000000  0.5251820000000  0.5452280000000 1.0
C      1  0.5546770000000  0.4893220000000  0.5620650000000 1.0
C      1  0.4832630000000  0.4221890000000  0.4565630000000 1.0
C      1  0.4875870000000  0.6003070000000  0.6433990000000 1.0
C      1  0.4003980000000  0.5294290000000  0.5235510000000 1.0
C      1  0.4296890000000  0.4323940000000  0.4942080000000 1.0
C      1  0.4598360000000  0.3893800000000  0.4290910000000 1.0
C      1  0.5700120000000  0.3789290000000  0.5359610000000 1.0
C      1  0.5081810000000  0.4806420000000  0.5488710000000 1.0
C      1  0.4544900000000  0.5216450000000  0.4911640000000 1.0
C      1  0.5386560000000  0.6035510000000  0.4685440000000 1.0
C      1  0.4889150000000  0.5896280000000  0.4726200000000 1.0
C      1  0.5121720000000  0.5932540000000  0.4301310000000 1.0
C      1  0.5720050000000  0.5332200000000  0.5515490000000 1.0
C      1  0.4296960000000  0.4714950000000  0.4438860000000 1.0
C      1  0.4696600000000  0.5822420000000  0.4188590000000 1.0
C      1  0.5978480000000  0.4852520000000  0.4393060000000 1.0
C      1  0.5527650000000  0.5435290000000  0.4481800000000 1.0
C      1  0.5287670000000  0.5729600000000  0.5277250000000 1.0
C      1  0.5255920000000  0.4528550000000  0.4555360000000 1.0
C      1  0.5352710000000  0.5000320000000  0.4999330000000 1.0
C      1  0.4607210000000  0.5300920000000  0.5849830000000 1.0
C      1  0.4555200000000  0.5320890000000  0.4288150000000 1.0
C      1  0.4716850000000  0.4505650000000  0.5894590000000 1.0
C      1  0.3716260000000  0.4640910000000  0.5029740000000 1.0
C      1  0.4825660000000  0.4925940000000  0.5523410000000 1.0
C      1  0.5199510000000  0.4984290000000  0.4766570000000 1.0
C      1  0.4912260000000  0.5981660000000  0.6176830000000 1.0
C      1  0.4353400000000  0.4414760000000  0.5590650000000 1.0
C      1  0.6026530000000  0.4622410000000  0.5020950000000 1.0
C      1  0.4135860000000  0.5146440000000  0.4268030000000 1.0
C      1  0.5596630000000  0.4660830000000  0.5210500000000 1.0
C      1  0.4690050000000  0.5305220000000  0.6117820000000 1.0
C      1  0.4276790000000  0.5385630000000  0.4349530000000 1.0
C      1  0.3897610000000  0.4833250000000  0.5114080000000 1.0
C      1  0.5738550000000  0.5249850000000  0.4583550000000 1.0
C      1  0.4258830000000  0.4938420000000  0.5437490000000 1.0
C      1  0.4950390000000  0.4149490000000  0.4071560000000 1.0
C      1  0.4355580000000  0.5656490000000  0.4779300000000 1.0
C      1  0.4325110000000  0.5926360000000  0.5438850000000 1.0
C      1  0.5227990000000  0.4174200000000  0.4882670000000 1.0
C      1  0.5929690000000  0.4479250000000  0.4775290000000 1.0
C      1  0.4897850000000  0.5346880000000  0.5191250000000 1.0
C      1  0.5901620000000  0.5112990000000  0.4392740000000 1.0
C      1  0.5988870000000  0.4941640000000  0.5037470000000 1.0
C      1  0.5291440000000  0.4821360000000  0.3806300000000 1.0
C      1  0.5517270000000  0.5834160000000  0.5134620000000 1.0
C      1  0.4952250000000  0.4184940000000  0.5036590000000 1.0
C      1  0.4545890000000  0.4361780000000  0.5392870000000 1.0
C      1  0.4771840000000  0.5289030000000  0.4477600000000 1.0
C      1  0.5156550000000  0.5879650000000  0.5477680000000 1.0
C      1  0.4779480000000  0.5113350000000  0.6283160000000 1.0
C      1  0.5907880000000  0.4383540000000  0.5512710000000 1.0
C      1  0.3556570000000  0.4453820000000  0.4943650000000 1.0
C      1  0.5818130000000  0.5209210000000  0.4868170000000 1.0
C      1  0.4905120000000  0.4631290000000  0.4831610000000 1.0
C      1  0.4451300000000  0.5409280000000  0.5425910000000 1.0
C      1  0.4461500000000  0.5927770000000  0.5171770000000 1.0
C      1  0.5234910000000  0.5423970000000  0.4422910000000 1.0
C      1  0.4675790000000  0.5507190000000  0.5277470000000 1.0
C      1  0.5740970000000  0.4070380000000  0.4969580000000 1.0
C      1  0.4471230000000  0.5807340000000  0.5679470000000 1.0
C      1  0.6027980000000  0.4470060000000  0.5278320000000 1.0
C      1  0.5355500000000  0.5122180000000  0.5256550000000 1.0
C      1  0.5204110000000  0.4088640000000  0.5463720000000 1.0
C      1  0.4803990000000  0.4627020000000  0.6133360000000 1.0
C      1  0.5707010000000  0.4348240000000  0.5699500000000 1.0
C      1  0.6017460000000  0.5690720000000  0.5221320000000 1.0
C      1  0.5392470000000  0.4471610000000  0.5270730000000 1.0
C      1  0.5695320000000  0.5399150000000  0.5046860000000 1.0
C      1  0.5758360000000  0.5676490000000  0.5098830000000 1.0
C      1  0.4619230000000  0.4590310000000  0.5192560000000 1.0
C      1  0.4952790000000  0.4079550000000  0.5321870000000 1.0
C      1  0.5556340000000  0.5312930000000  0.5284450000000 1.0
C      1  0.6135620000000  0.5478800000000  0.5353830000000 1.0
C      1  0.4735200000000  0.3750050000000  0.3866940000000 1.0
C      1  0.4643820000000  0.5043300000000  0.5715010000000 1.0
C      1  0.5450180000000  0.4319360000000  0.5799500000000 1.0
C      1  0.4993210000000  0.5438760000000  0.4587720000000 1.0
C      1  0.4421640000000  0.5924420000000  0.4878470000000 1.0
C      1  0.5234100000000  0.4572130000000  0.3885240000000 1.0
C      1  0.5705570000000  0.4286110000000  0.4790050000000 1.0
C      1  0.4574870000000  0.5974810000000  0.4385510000000 1.0
C      1  0.5124390000000  0.5988010000000  0.4583640000000 1.0
C      1  0.4492180000000  0.5011870000000  0.4714720000000 1.0
C      1  0.4888160000000  0.4314500000000  0.5745980000000 1.0
C      1  0.5050700000000  0.5209760000000  0.4008400000000 1.0
C      1  0.4570460000000  0.3722430000000  0.4081710000000 1.0
C      1  0.4762530000000  0.4208630000000  0.5495070000000 1.0
C      1  0.5120420000000  0.4585200000000  0.5297980000000 1.0
C      1  0.4708260000000  0.5791660000000  0.5247310000000 1.0
C      1  0.5234990000000  0.5083380000000  0.3834420000000 1.0
C      1  0.5221800000000  0.4821360000000  0.4507680000000 1.0
C      1  0.5456210000000  0.6043100000000  0.4956030000000 1.0
C      1  0.4211630000000  0.5569070000000  0.4553010000000 1.0
END
