TITL C-612604-1799-1143 198643.720154379 125000 -846.512574746745 0 0 140 (C1) n - 1
REM
REM in /home/nfs/bkarasulu/CARBON/AIRSS/Generating-Clusters/TERSOFF/Only-C1/FIRE-HFTN
REM
REM
REM
REM
REM
REM ./C.cell (11c1c37f851c82e70ff6c80c92926a4b)
REM AIRSS Version 0.9.1 bugfix July 2018 build 013d7b7c2542+ Fri, 06 Jul 2018 19:26:36 +0100
REM compiler GCC version 9.2.1 20190827 (Red Hat 9.2.1-1)
REM options -cpp -mtune=generic -march=x86-64 -g -O0 -fpre-include=/usr/include/finclude/math-vector-fortran.h
REM seed 1480446270 1033754835 -244903038 276573593 941936791 -308875590 1780286860 92149194 2027372834 -2103979493 625254212 1061356443 1465557474 -1056330954 1360136282 2070960154 -1158909957 446893183 -1040170963 -1509771824 1589211132 307438162 879006714 1756351778 562625907 -1760329767 -79093997 106394012 812993419 -1511508737 -610047868 -1557838038 1022196202
REM
CELL 1.54180   50.00000   50.00000   50.00000   90.00000   90.00000   90.00000
LATT -1
SFAC C  
C      1  0.5565580000000  0.5337760000000  0.4264040000000 1.0
C      1  0.4984090000000  0.4741420000000  0.5402480000000 1.0
C      1  0.5290700000000  0.4019060000000  0.4359040000000 1.0
C      1  0.3924100000000  0.5149630000000  0.4639200000000 1.0
C      1  0.5204110000000  0.3972910000000  0.4811960000000 1.0
C      1  0.4821640000000  0.6486230000000  0.5316840000000 1.0
C      1  0.4264630000000  0.4836670000000  0.5316770000000 1.0
C      1  0.4294730000000  0.4045260000000  0.4609410000000 1.0
C      1  0.5503980000000  0.4166200000000  0.4512250000000 1.0
C      1  0.5517190000000  0.5632090000000  0.5401570000000 1.0
C      1  0.4952130000000  0.4263470000000  0.5580380000000 1.0
C      1  0.4236880000000  0.5679900000000  0.4750140000000 1.0
C      1  0.4540800000000  0.4599970000000  0.3844580000000 1.0
C      1  0.4931500000000  0.4455510000000  0.4713240000000 1.0
C      1  0.4793520000000  0.3940610000000  0.4525940000000 1.0
C      1  0.4038870000000  0.4661110000000  0.5240980000000 1.0
C      1  0.4726930000000  0.4035700000000  0.4266700000000 1.0
C      1  0.4602430000000  0.5842530000000  0.5573030000000 1.0
C      1  0.5220770000000  0.4013200000000  0.5892990000000 1.0
C      1  0.5724820000000  0.5799940000000  0.5312890000000 1.0
C      1  0.4730630000000  0.6242370000000  0.5304720000000 1.0
C      1  0.4283050000000  0.4248430000000  0.5246280000000 1.0
C      1  0.5168560000000  0.4452360000000  0.4154970000000 1.0
C      1  0.4217110000000  0.5341830000000  0.4244540000000 1.0
C      1  0.5031850000000  0.5129710000000  0.4968810000000 1.0
C      1  0.5357050000000  0.5535000000000  0.4953980000000 1.0
C      1  0.4515420000000  0.4757200000000  0.5446900000000 1.0
C      1  0.5787470000000  0.5479680000000  0.5743210000000 1.0
C      1  0.5168250000000  0.6057930000000  0.4358210000000 1.0
C      1  0.5193840000000  0.4807050000000  0.5572360000000 1.0
C      1  0.4357230000000  0.5338430000000  0.5766350000000 1.0
C      1  0.3852950000000  0.5391830000000  0.4768540000000 1.0
C      1  0.5924340000000  0.5940830000000  0.6327210000000 1.0
C      1  0.5109110000000  0.5139840000000  0.4247880000000 1.0
C      1  0.5480850000000  0.4319730000000  0.5623940000000 1.0
C      1  0.5590000000000  0.4659090000000  0.4329060000000 1.0
C      1  0.5436960000000  0.3851220000000  0.5920580000000 1.0
C      1  0.4484470000000  0.4379370000000  0.4013180000000 1.0
C      1  0.4829660000000  0.5520490000000  0.5155550000000 1.0
C      1  0.4450270000000  0.5477670000000  0.4176050000000 1.0
C      1  0.4751240000000  0.4899100000000  0.5409850000000 1.0
C      1  0.4057920000000  0.5186830000000  0.4393690000000 1.0
C      1  0.5689170000000  0.4851470000000  0.4525750000000 1.0
C      1  0.4161580000000  0.4800460000000  0.5781730000000 1.0
C      1  0.5300920000000  0.4705090000000  0.4807660000000 1.0
C      1  0.5104330000000  0.4840700000000  0.4953450000000 1.0
C      1  0.5758030000000  0.5334280000000  0.4477130000000 1.0
C      1  0.4841800000000  0.5766300000000  0.4148330000000 1.0
C      1  0.5328000000000  0.5228500000000  0.5011600000000 1.0
C      1  0.4309930000000  0.5603540000000  0.5307960000000 1.0
C      1  0.5287290000000  0.5631310000000  0.5234340000000 1.0
C      1  0.4821910000000  0.5792340000000  0.5772870000000 1.0
C      1  0.4012320000000  0.4663400000000  0.4925920000000 1.0
C      1  0.7051410000000  0.4779930000000  0.5269060000000 1.0
C      1  0.5365090000000  0.4208420000000  0.4765780000000 1.0
C      1  0.5038890000000  0.5543250000000  0.5345820000000 1.0
C      1  0.5345100000000  0.5151870000000  0.5290480000000 1.0
C      1  0.3897810000000  0.4393360000000  0.4798740000000 1.0
C      1  0.5536900000000  0.5394330000000  0.5604830000000 1.0
C      1  0.5680050000000  0.4111480000000  0.5588160000000 1.0
C      1  0.5061140000000  0.5808460000000  0.4324410000000 1.0
C      1  0.4897350000000  0.4487940000000  0.4240950000000 1.0
C      1  0.5648140000000  0.4382050000000  0.4394500000000 1.0
C      1  0.5582290000000  0.4587210000000  0.5634230000000 1.0
C      1  0.4518290000000  0.5662650000000  0.4793790000000 1.0
C      1  0.5337410000000  0.4689770000000  0.4174190000000 1.0
C      1  0.5209010000000  0.4222940000000  0.5697200000000 1.0
C      1  0.4103830000000  0.4422230000000  0.5406320000000 1.0
C      1  0.5852640000000  0.5090320000000  0.4590040000000 1.0
C      1  0.4556740000000  0.5747850000000  0.4220370000000 1.0
C      1  0.4826210000000  0.5496470000000  0.5784650000000 1.0
C      1  0.4664640000000  0.4840010000000  0.4598640000000 1.0
C      1  0.4692170000000  0.5333150000000  0.4086980000000 1.0
C      1  0.4715450000000  0.4290950000000  0.4151490000000 1.0
C      1  0.5801850000000  0.5835550000000  0.6117160000000 1.0
C      1  0.5080450000000  0.3909040000000  0.4555100000000 1.0
C      1  0.4026470000000  0.5254260000000  0.5240780000000 1.0
C      1  0.4837440000000  0.4616400000000  0.4484700000000 1.0
C      1  0.4549940000000  0.4133630000000  0.5288180000000 1.0
C      1  0.4748300000000  0.5071390000000  0.5192400000000 1.0
C      1  0.5660380000000  0.5687020000000  0.5930250000000 1.0
C      1  0.5564640000000  0.5119820000000  0.5476990000000 1.0
C      1  0.5097720000000  0.5867650000000  0.5876800000000 1.0
C      1  0.4213370000000  0.5079080000000  0.5782580000000 1.0
C      1  0.5756750000000  0.5562560000000  0.4637750000000 1.0
C      1  0.6264180000000  0.5359670000000  0.5568220000000 1.0
C      1  0.5759860000000  0.5822400000000  0.5045910000000 1.0
C      1  0.5987600000000  0.5351210000000  0.5548610000000 1.0
C      1  0.4256160000000  0.5093640000000  0.5218170000000 1.0
C      1  0.4783310000000  0.4539130000000  0.4951690000000 1.0
C      1  0.4823960000000  0.5176640000000  0.4284510000000 1.0
C      1  0.4508210000000  0.5203100000000  0.5159030000000 1.0
C      1  0.5521650000000  0.4850530000000  0.4754180000000 1.0
C      1  0.5044960000000  0.5433520000000  0.5616950000000 1.0
C      1  0.4233480000000  0.4086390000000  0.4333270000000 1.0
C      1  0.5291220000000  0.5445560000000  0.5757470000000 1.0
C      1  0.5658460000000  0.3894330000000  0.5769910000000 1.0
C      1  0.5170910000000  0.5582170000000  0.4466020000000 1.0
C      1  0.4975570000000  0.4654620000000  0.5130720000000 1.0
C      1  0.4677870000000  0.4285430000000  0.5505060000000 1.0
C      1  0.4687740000000  0.5130510000000  0.4537380000000 1.0
C      1  0.5480120000000  0.4849070000000  0.5596810000000 1.0
C      1  0.4310500000000  0.4596520000000  0.4878790000000 1.0
C      1  0.5846720000000  0.5176160000000  0.5325140000000 1.0
C      1  0.4642870000000  0.5972410000000  0.5295020000000 1.0
C      1  0.4221400000000  0.4519090000000  0.5670270000000 1.0
C      1  0.4626010000000  0.3999850000000  0.5026110000000 1.0
C      1  0.6906890000000  0.4970020000000  0.5373730000000 1.0
C      1  0.4994230000000  0.4863110000000  0.3870070000000 1.0
C      1  0.4865310000000  0.5536080000000  0.3967520000000 1.0
C      1  0.5347380000000  0.5700470000000  0.5901740000000 1.0
C      1  0.5285180000000  0.5353190000000  0.4326700000000 1.0
C      1  0.5138630000000  0.5561960000000  0.4748040000000 1.0
C      1  0.6732070000000  0.5145740000000  0.5467900000000 1.0
C      1  0.5621570000000  0.5655090000000  0.4863270000000 1.0
C      1  0.4297210000000  0.4319130000000  0.4970540000000 1.0
C      1  0.5215290000000  0.4445520000000  0.4756680000000 1.0
C      1  0.4067440000000  0.5528380000000  0.5177190000000 1.0
C      1  0.4917340000000  0.5404100000000  0.4876790000000 1.0
C      1  0.4019080000000  0.5580030000000  0.4899560000000 1.0
C      1  0.4607250000000  0.5862260000000  0.5011450000000 1.0
C      1  0.5816420000000  0.5132770000000  0.4981840000000 1.0
C      1  0.4666550000000  0.5389780000000  0.4707120000000 1.0
C      1  0.5183230000000  0.4918180000000  0.4082170000000 1.0
C      1  0.5560470000000  0.5077050000000  0.4913190000000 1.0
C      1  0.5649630000000  0.5336440000000  0.4003310000000 1.0
C      1  0.4509610000000  0.4511680000000  0.5597500000000 1.0
C      1  0.4563380000000  0.4703750000000  0.4838970000000 1.0
C      1  0.4573670000000  0.3973130000000  0.4726570000000 1.0
C      1  0.6036830000000  0.6024430000000  0.6547040000000 1.0
C      1  0.4369840000000  0.5644580000000  0.5584320000000 1.0
C      1  0.4255540000000  0.4247480000000  0.4115180000000 1.0
C      1  0.3919510000000  0.4905820000000  0.4781880000000 1.0
C      1  0.5868520000000  0.4121180000000  0.5391140000000 1.0
C      1  0.4752690000000  0.4763380000000  0.3799690000000 1.0
C      1  0.4546310000000  0.5476420000000  0.5201290000000 1.0
C      1  0.5240030000000  0.4178580000000  0.4127680000000 1.0
C      1  0.4616380000000  0.5340480000000  0.5876910000000 1.0
C      1  0.6516120000000  0.5283210000000  0.5537010000000 1.0
C      1  0.4116840000000  0.4191100000000  0.4786450000000 1.0
END
