TITL C-612601-4209-193 9.86681261145236 125000 -137.396272257436 0 0 25 (C1) n - 1
REM
REM in /home/nfs/bkarasulu/CARBON/AIRSS/Generating-Clusters/TERSOFF/Only-C1/FIRE-HFTN
REM
REM
REM
REM
REM
REM ./C.cell (11c1c37f851c82e70ff6c80c92926a4b)
REM AIRSS Version 0.9.1 bugfix July 2018 build 013d7b7c2542+ Fri, 06 Jul 2018 19:26:36 +0100
REM compiler GCC version 9.2.1 20190827 (Red Hat 9.2.1-1)
REM options -cpp -mtune=generic -march=x86-64 -g -O0 -fpre-include=/usr/include/finclude/math-vector-fortran.h
REM seed 943624085 -726655953 699606078 847087348 740547815 1245908381 1306066462 -1030957001 -1670085690 -1573218866 1888549187 389502191 2056424813 683757159 1077379510 853803483 1853776992 758360201 -2040798527 1890355969 1422843707 505134447 834716023 -1504508277 1537776546 1216836938 881313182 -185429692 177710401 2040168146 1668099525 1820263771 -259065517
REM
CELL 1.54180   50.00000   50.00000   50.00000   90.00000   90.00000   90.00000
LATT -1
SFAC C  
C      1  0.4977460000000  0.4744910000000  0.5296610000000 1.0
C      1  0.5063410000000  0.4652660000000  0.5763580000000 1.0
C      1  0.5104560000000  0.5510590000000  0.5068300000000 1.0
C      1  0.5354000000000  0.6140020000000  0.4395490000000 1.0
C      1  0.5113200000000  0.6428970000000  0.5269250000000 1.0
C      1  0.5188720000000  0.6026560000000  0.4917210000000 1.0
C      1  0.4085360000000  0.4669340000000  0.5684310000000 1.0
C      1  0.5145360000000  0.5761940000000  0.4995350000000 1.0
C      1  0.5143420000000  0.3918130000000  0.4631440000000 1.0
C      1  0.5022770000000  0.5007970000000  0.5214680000000 1.0
C      1  0.4347610000000  0.4676520000000  0.5646530000000 1.0
C      1  0.5022270000000  0.4532610000000  0.5120860000000 1.0
C      1  0.3827410000000  0.4662280000000  0.5721460000000 1.0
C      1  0.5103090000000  0.4123110000000  0.4794470000000 1.0
C      1  0.5271280000000  0.6083340000000  0.4656660000000 1.0
C      1  0.5391910000000  0.5934990000000  0.4218030000000 1.0
C      1  0.5063740000000  0.5259140000000  0.5141250000000 1.0
C      1  0.5396140000000  0.6399890000000  0.4320250000000 1.0
C      1  0.5183750000000  0.3713150000000  0.4468410000000 1.0
C      1  0.5149520000000  0.6234400000000  0.5099690000000 1.0
C      1  0.4884830000000  0.4692970000000  0.5560270000000 1.0
C      1  0.5224090000000  0.3508120000000  0.4305330000000 1.0
C      1  0.5263770000000  0.3306460000000  0.4144940000000 1.0
C      1  0.4609590000000  0.4683820000000  0.5608150000000 1.0
C      1  0.5062750000000  0.4328090000000  0.4957510000000 1.0
END
