TITL C-612602-9376-1039 0.0443750219267254 125000 -643.720473425333 0 0 104 (C1) n - 1
REM
REM in /home/nfs/bkarasulu/CARBON/AIRSS/Generating-Clusters/TERSOFF/Only-C1/FIRE-HFTN
REM
REM
REM
REM
REM
REM ./C.cell (11c1c37f851c82e70ff6c80c92926a4b)
REM AIRSS Version 0.9.1 bugfix July 2018 build 013d7b7c2542+ Fri, 06 Jul 2018 19:26:36 +0100
REM compiler GCC version 9.2.1 20190827 (Red Hat 9.2.1-1)
REM options -cpp -mtune=generic -march=x86-64 -g -O0 -fpre-include=/usr/include/finclude/math-vector-fortran.h
REM seed 1199446814 -516235455 711325314 130003320 -1985449620 1165124196 132564842 1860323922 221151662 584864449 787632222 -1137047148 1783417668 824927053 481153360 829321241 1879755320 -2121994596 -1487368999 1400760190 1745865164 -428650816 -1133404738 1368574270 -746388816 -1960565373 -2089145710 671002083 -1543169918 -361548663 -631133111 -1576891844 1985330571
REM
CELL 1.54180   50.00000   50.00000   50.00000   90.00000   90.00000   90.00000
LATT -1
SFAC C  
C      1  0.5177110000000  0.3967710000000  0.4976080000000 1.0
C      1  0.5437020000000  0.5018720000000  0.4199980000000 1.0
C      1  0.5614300000000  0.5316810000000  0.4610260000000 1.0
C      1  0.4293970000000  0.5114260000000  0.4606100000000 1.0
C      1  0.5467750000000  0.5548570000000  0.5287340000000 1.0
C      1  0.4268570000000  0.4469400000000  0.4603460000000 1.0
C      1  0.5669560000000  0.4915390000000  0.5129050000000 1.0
C      1  0.3965590000000  0.5231870000000  0.4956760000000 1.0
C      1  0.4877110000000  0.4901070000000  0.5533080000000 1.0
C      1  0.5095170000000  0.4327400000000  0.4209060000000 1.0
C      1  0.4871350000000  0.5283150000000  0.4920610000000 1.0
C      1  0.5133570000000  0.4621460000000  0.4964240000000 1.0
C      1  0.5747970000000  0.4691950000000  0.5608240000000 1.0
C      1  0.5789170000000  0.4464020000000  0.4778180000000 1.0
C      1  0.5105840000000  0.5185280000000  0.5847710000000 1.0
C      1  0.4541870000000  0.5296660000000  0.5420790000000 1.0
C      1  0.5457500000000  0.3989430000000  0.4980430000000 1.0
C      1  0.5974790000000  0.5337210000000  0.4983260000000 1.0
C      1  0.4884910000000  0.5092260000000  0.4502830000000 1.0
C      1  0.5058840000000  0.5310710000000  0.4449570000000 1.0
C      1  0.5539600000000  0.4376700000000  0.4370210000000 1.0
C      1  0.5868700000000  0.5320010000000  0.4736330000000 1.0
C      1  0.5910940000000  0.5349940000000  0.5244830000000 1.0
C      1  0.5424980000000  0.5505320000000  0.4722380000000 1.0
C      1  0.4992050000000  0.5122930000000  0.5392770000000 1.0
C      1  0.4743940000000  0.5114930000000  0.4745550000000 1.0
C      1  0.4866130000000  0.4530610000000  0.4965520000000 1.0
C      1  0.3868950000000  0.5191410000000  0.5734280000000 1.0
C      1  0.5834370000000  0.4466340000000  0.5061180000000 1.0
C      1  0.5159730000000  0.6294640000000  0.5426480000000 1.0
C      1  0.5178830000000  0.5536560000000  0.4577020000000 1.0
C      1  0.4117870000000  0.5115180000000  0.5849240000000 1.0
C      1  0.5661530000000  0.4272220000000  0.4608000000000 1.0
C      1  0.4506770000000  0.4510260000000  0.4455670000000 1.0
C      1  0.4947550000000  0.4067460000000  0.4880300000000 1.0
C      1  0.5712090000000  0.4301880000000  0.5268740000000 1.0
C      1  0.5521370000000  0.5080080000000  0.4468610000000 1.0
C      1  0.5004030000000  0.5747610000000  0.4638000000000 1.0
C      1  0.5755430000000  0.4722820000000  0.4673400000000 1.0
C      1  0.5028860000000  0.6079260000000  0.5345070000000 1.0
C      1  0.5673250000000  0.3828690000000  0.5390240000000 1.0
C      1  0.4826440000000  0.4868450000000  0.4338060000000 1.0
C      1  0.4654530000000  0.5159600000000  0.3938030000000 1.0
C      1  0.5207510000000  0.5122150000000  0.5212800000000 1.0
C      1  0.4724540000000  0.5868300000000  0.5034500000000 1.0
C      1  0.3968520000000  0.5122050000000  0.5219830000000 1.0
C      1  0.5396510000000  0.4918930000000  0.5201330000000 1.0
C      1  0.4433940000000  0.5155940000000  0.4100310000000 1.0
C      1  0.4517880000000  0.5653030000000  0.4659260000000 1.0
C      1  0.4248560000000  0.4584760000000  0.4847610000000 1.0
C      1  0.5778910000000  0.3438810000000  0.5726550000000 1.0
C      1  0.5567330000000  0.5215020000000  0.5626820000000 1.0
C      1  0.4277620000000  0.5579040000000  0.4798310000000 1.0
C      1  0.4198300000000  0.4973710000000  0.5284740000000 1.0
C      1  0.5319700000000  0.4497720000000  0.4233670000000 1.0
C      1  0.3825330000000  0.5192300000000  0.5452740000000 1.0
C      1  0.5678450000000  0.5374310000000  0.5401990000000 1.0
C      1  0.5270440000000  0.4776460000000  0.4165400000000 1.0
C      1  0.4992440000000  0.4853290000000  0.4109900000000 1.0
C      1  0.4451340000000  0.5933950000000  0.5080450000000 1.0
C      1  0.5272130000000  0.4730530000000  0.4740500000000 1.0
C      1  0.4449420000000  0.4763220000000  0.4934700000000 1.0
C      1  0.4147140000000  0.5321830000000  0.4751540000000 1.0
C      1  0.4339080000000  0.5487100000000  0.5452240000000 1.0
C      1  0.4369470000000  0.5007280000000  0.4338180000000 1.0
C      1  0.4662880000000  0.4676620000000  0.5107810000000 1.0
C      1  0.5888930000000  0.4733510000000  0.5165710000000 1.0
C      1  0.4492180000000  0.5001250000000  0.4786030000000 1.0
C      1  0.5582480000000  0.4034180000000  0.4731280000000 1.0
C      1  0.4819310000000  0.4304200000000  0.4794010000000 1.0
C      1  0.4757680000000  0.5770800000000  0.4766390000000 1.0
C      1  0.4660410000000  0.4815210000000  0.5363790000000 1.0
C      1  0.4771980000000  0.3969520000000  0.4206870000000 1.0
C      1  0.4725660000000  0.4335470000000  0.4522330000000 1.0
C      1  0.4633020000000  0.5017740000000  0.5939610000000 1.0
C      1  0.4367160000000  0.5060590000000  0.5934060000000 1.0
C      1  0.4925900000000  0.5067470000000  0.3922350000000 1.0
C      1  0.3465980000000  0.5341630000000  0.6061120000000 1.0
C      1  0.4973890000000  0.5599870000000  0.5395060000000 1.0
C      1  0.4247640000000  0.5735690000000  0.5043720000000 1.0
C      1  0.4458210000000  0.5023090000000  0.5371620000000 1.0
C      1  0.5390510000000  0.5207550000000  0.3991460000000 1.0
C      1  0.5637810000000  0.4944600000000  0.5695580000000 1.0
C      1  0.5614220000000  0.4037970000000  0.5215540000000 1.0
C      1  0.5455260000000  0.5591810000000  0.5001130000000 1.0
C      1  0.5424610000000  0.6718920000000  0.5588460000000 1.0
C      1  0.5726620000000  0.3632120000000  0.5559650000000 1.0
C      1  0.4906360000000  0.5842900000000  0.5255620000000 1.0
C      1  0.5321250000000  0.4509710000000  0.5435460000000 1.0
C      1  0.4863690000000  0.4205710000000  0.4309300000000 1.0
C      1  0.4173210000000  0.5620930000000  0.5288610000000 1.0
C      1  0.3660150000000  0.5268850000000  0.5903250000000 1.0
C      1  0.5245780000000  0.5546100000000  0.5483740000000 1.0
C      1  0.4883860000000  0.4999450000000  0.5808850000000 1.0
C      1  0.5128110000000  0.5265280000000  0.4990720000000 1.0
C      1  0.5595960000000  0.4460590000000  0.5493990000000 1.0
C      1  0.4819540000000  0.5359660000000  0.5403010000000 1.0
C      1  0.5302510000000  0.5333800000000  0.5695830000000 1.0
C      1  0.4555430000000  0.4773640000000  0.4354510000000 1.0
C      1  0.5265730000000  0.4664630000000  0.5208480000000 1.0
C      1  0.5976170000000  0.4730800000000  0.5436280000000 1.0
C      1  0.5154180000000  0.5223230000000  0.3854740000000 1.0
C      1  0.5508040000000  0.4850380000000  0.4635590000000 1.0
C      1  0.5293240000000  0.6508560000000  0.5508130000000 1.0
END
