TITL C-612607-4507-1283 -0.00309300551951503 125000 -849.719679411513 0 0 140 (C1) n - 1
REM
REM in /home/nfs/bkarasulu/CARBON/AIRSS/Generating-Clusters/TERSOFF/Only-C1/FIRE-HFTN
REM
REM
REM
REM
REM
REM ./C.cell (11c1c37f851c82e70ff6c80c92926a4b)
REM AIRSS Version 0.9.1 bugfix July 2018 build 013d7b7c2542+ Fri, 06 Jul 2018 19:26:36 +0100
REM compiler GCC version 9.2.1 20190827 (Red Hat 9.2.1-1)
REM options -cpp -mtune=generic -march=x86-64 -g -O0 -fpre-include=/usr/include/finclude/math-vector-fortran.h
REM seed 2087214364 -698450155 -262740330 2025228534 -650743758 684325669 505272954 -1442322426 -1792653987 -2078682973 -888408523 1956294396 -633522063 -1496007326 2075940221 -399788223 -222000727 1464764357 -836973698 1612223679 -933777071 -635018458 2081500528 -1206485133 -576586575 2088245767 -797014050 470283902 -687093741 1913238063 650300090 477447189 1519108373
REM
CELL 1.54180   50.00000   50.00000   50.00000   90.00000   90.00000   90.00000
LATT -1
SFAC C  
C      1  0.5179860000000  0.5620220000000  0.5089320000000 1.0
C      1  0.5810030000000  0.5578330000000  0.4330060000000 1.0
C      1  0.4581330000000  0.5444430000000  0.5849400000000 1.0
C      1  0.4677400000000  0.4801280000000  0.5029880000000 1.0
C      1  0.4731910000000  0.5857770000000  0.5662970000000 1.0
C      1  0.5150490000000  0.4774360000000  0.5864050000000 1.0
C      1  0.5049440000000  0.4881970000000  0.4545480000000 1.0
C      1  0.5011310000000  0.5826730000000  0.5742240000000 1.0
C      1  0.6002610000000  0.4942720000000  0.5355230000000 1.0
C      1  0.5777680000000  0.4570230000000  0.5697900000000 1.0
C      1  0.4445060000000  0.4154580000000  0.4497150000000 1.0
C      1  0.5509910000000  0.5501910000000  0.4727370000000 1.0
C      1  0.4524840000000  0.5713140000000  0.5787600000000 1.0
C      1  0.5946060000000  0.4485700000000  0.5252910000000 1.0
C      1  0.5752730000000  0.6406110000000  0.5459310000000 1.0
C      1  0.5167570000000  0.5143720000000  0.5519310000000 1.0
C      1  0.5674370000000  0.4075090000000  0.5671290000000 1.0
C      1  0.4687700000000  0.4114020000000  0.4630120000000 1.0
C      1  0.4748870000000  0.5004030000000  0.5994540000000 1.0
C      1  0.4987940000000  0.4696640000000  0.5423060000000 1.0
C      1  0.4716940000000  0.4570980000000  0.4634500000000 1.0
C      1  0.5287920000000  0.5887520000000  0.5079470000000 1.0
C      1  0.4935400000000  0.5621470000000  0.3828210000000 1.0
C      1  0.4906360000000  0.4945060000000  0.6471760000000 1.0
C      1  0.5705560000000  0.4142580000000  0.4736190000000 1.0
C      1  0.6026860000000  0.5170110000000  0.4582040000000 1.0
C      1  0.3920470000000  0.4572440000000  0.4401550000000 1.0
C      1  0.4183340000000  0.4174640000000  0.4460120000000 1.0
C      1  0.4329500000000  0.4837680000000  0.4380610000000 1.0
C      1  0.5565570000000  0.5722600000000  0.4315880000000 1.0
C      1  0.5204370000000  0.4858870000000  0.5580140000000 1.0
C      1  0.3905070000000  0.5113350000000  0.4817410000000 1.0
C      1  0.4913950000000  0.3647980000000  0.5138320000000 1.0
C      1  0.4854140000000  0.4773280000000  0.5866110000000 1.0
C      1  0.4426980000000  0.3913230000000  0.5155230000000 1.0
C      1  0.5384190000000  0.4745880000000  0.6030060000000 1.0
C      1  0.5547350000000  0.5969240000000  0.5016980000000 1.0
C      1  0.5598680000000  0.5818940000000  0.5721460000000 1.0
C      1  0.4863600000000  0.6009500000000  0.4947360000000 1.0
C      1  0.3702270000000  0.4743710000000  0.4464550000000 1.0
C      1  0.5189460000000  0.3847620000000  0.4422440000000 1.0
C      1  0.5884590000000  0.5203010000000  0.5371150000000 1.0
C      1  0.5092090000000  0.5735070000000  0.4512400000000 1.0
C      1  0.4926560000000  0.5509740000000  0.5006110000000 1.0
C      1  0.5814310000000  0.5320200000000  0.5117490000000 1.0
C      1  0.4087970000000  0.4824800000000  0.5248480000000 1.0
C      1  0.5081500000000  0.3657860000000  0.4906040000000 1.0
C      1  0.3749090000000  0.4954730000000  0.4644650000000 1.0
C      1  0.4678490000000  0.5884670000000  0.5150370000000 1.0
C      1  0.5401220000000  0.5135650000000  0.4015300000000 1.0
C      1  0.4596450000000  0.4802130000000  0.4262140000000 1.0
C      1  0.6133170000000  0.4909280000000  0.5096830000000 1.0
C      1  0.5009510000000  0.6126830000000  0.5394300000000 1.0
C      1  0.5197760000000  0.5299410000000  0.4064330000000 1.0
C      1  0.5247480000000  0.5183050000000  0.5247640000000 1.0
C      1  0.3974420000000  0.4336520000000  0.4553680000000 1.0
C      1  0.5584850000000  0.5410970000000  0.4984760000000 1.0
C      1  0.4734850000000  0.6001640000000  0.5412450000000 1.0
C      1  0.4136910000000  0.4668600000000  0.4244630000000 1.0
C      1  0.5208200000000  0.4638980000000  0.4508720000000 1.0
C      1  0.4916540000000  0.5623210000000  0.4309740000000 1.0
C      1  0.5996710000000  0.4890420000000  0.4621650000000 1.0
C      1  0.5930850000000  0.4679910000000  0.5472110000000 1.0
C      1  0.5888030000000  0.4527070000000  0.4975350000000 1.0
C      1  0.3919340000000  0.4307450000000  0.4827500000000 1.0
C      1  0.5965470000000  0.5393250000000  0.4446450000000 1.0
C      1  0.4329240000000  0.4897450000000  0.5390110000000 1.0
C      1  0.5179250000000  0.4441380000000  0.4721430000000 1.0
C      1  0.5026670000000  0.5307230000000  0.5708180000000 1.0
C      1  0.4050090000000  0.4307160000000  0.5078130000000 1.0
C      1  0.4764050000000  0.4339360000000  0.5067600000000 1.0
C      1  0.5016270000000  0.5512850000000  0.4066850000000 1.0
C      1  0.5447880000000  0.6053580000000  0.5673120000000 1.0
C      1  0.5346010000000  0.4775930000000  0.6306850000000 1.0
C      1  0.5782350000000  0.3917720000000  0.4629160000000 1.0
C      1  0.4443440000000  0.5471430000000  0.4441760000000 1.0
C      1  0.4580760000000  0.4583150000000  0.4063570000000 1.0
C      1  0.5914000000000  0.4755360000000  0.4389090000000 1.0
C      1  0.4034520000000  0.5341290000000  0.4711430000000 1.0
C      1  0.5390330000000  0.4763870000000  0.4996140000000 1.0
C      1  0.4514470000000  0.4672070000000  0.5430990000000 1.0
C      1  0.4590370000000  0.4555430000000  0.5163670000000 1.0
C      1  0.5378150000000  0.5657270000000  0.4524730000000 1.0
C      1  0.5158100000000  0.4852770000000  0.6481700000000 1.0
C      1  0.4521070000000  0.5402750000000  0.5271870000000 1.0
C      1  0.4835960000000  0.4340450000000  0.4771500000000 1.0
C      1  0.4962800000000  0.4196490000000  0.4095150000000 1.0
C      1  0.4733800000000  0.5005010000000  0.6274910000000 1.0
C      1  0.4512010000000  0.5916350000000  0.4298750000000 1.0
C      1  0.4283590000000  0.5826350000000  0.5845600000000 1.0
C      1  0.4934920000000  0.4839380000000  0.5156580000000 1.0
C      1  0.4954060000000  0.5914630000000  0.4692910000000 1.0
C      1  0.5403740000000  0.4436510000000  0.5457020000000 1.0
C      1  0.4685480000000  0.5596870000000  0.5141400000000 1.0
C      1  0.4421430000000  0.5169770000000  0.5369950000000 1.0
C      1  0.5338350000000  0.4576810000000  0.4277500000000 1.0
C      1  0.5786030000000  0.4817230000000  0.4162440000000 1.0
C      1  0.5645280000000  0.4703310000000  0.5915340000000 1.0
C      1  0.4227120000000  0.4094140000000  0.5144600000000 1.0
C      1  0.5441450000000  0.4728790000000  0.5466720000000 1.0
C      1  0.5827180000000  0.6337780000000  0.5210740000000 1.0
C      1  0.5114070000000  0.5567830000000  0.5767670000000 1.0
C      1  0.5620850000000  0.4333920000000  0.5610670000000 1.0
C      1  0.4099570000000  0.5789800000000  0.4508000000000 1.0
C      1  0.4789830000000  0.4787100000000  0.4466010000000 1.0
C      1  0.4031210000000  0.4548050000000  0.5224720000000 1.0
C      1  0.5081160000000  0.5077560000000  0.4766030000000 1.0
C      1  0.4331460000000  0.4875290000000  0.4660650000000 1.0
C      1  0.5726270000000  0.5585340000000  0.5699540000000 1.0
C      1  0.5665470000000  0.4387070000000  0.4864090000000 1.0
C      1  0.5404120000000  0.4499940000000  0.4890390000000 1.0
C      1  0.5005860000000  0.3519580000000  0.5362550000000 1.0
C      1  0.4183920000000  0.5521230000000  0.4556300000000 1.0
C      1  0.5089490000000  0.6087940000000  0.5121630000000 1.0
C      1  0.5609300000000  0.4971090000000  0.4035260000000 1.0
C      1  0.4896220000000  0.5295420000000  0.4818200000000 1.0
C      1  0.4630230000000  0.5211470000000  0.4793580000000 1.0
C      1  0.3963900000000  0.5009690000000  0.5074090000000 1.0
C      1  0.5744200000000  0.6147520000000  0.5041430000000 1.0
C      1  0.4782470000000  0.4387610000000  0.4033990000000 1.0
C      1  0.5360200000000  0.5417550000000  0.5153760000000 1.0
C      1  0.4633470000000  0.5660320000000  0.4339420000000 1.0
C      1  0.4743210000000  0.4690030000000  0.5607610000000 1.0
C      1  0.5171210000000  0.6034800000000  0.5619010000000 1.0
C      1  0.5123260000000  0.4417290000000  0.5392780000000 1.0
C      1  0.4777200000000  0.5242860000000  0.5843090000000 1.0
C      1  0.5039700000000  0.3758670000000  0.4646460000000 1.0
C      1  0.5121630000000  0.4017930000000  0.4221180000000 1.0
C      1  0.4777780000000  0.3853450000000  0.4625240000000 1.0
C      1  0.5828170000000  0.5360680000000  0.5596130000000 1.0
C      1  0.4522990000000  0.4959220000000  0.4849840000000 1.0
C      1  0.4259210000000  0.5972730000000  0.4383950000000 1.0
C      1  0.5518770000000  0.5913360000000  0.4126850000000 1.0
C      1  0.4962590000000  0.4241890000000  0.5245690000000 1.0
C      1  0.5180490000000  0.4968660000000  0.5035810000000 1.0
C      1  0.3456010000000  0.4704350000000  0.4353070000000 1.0
C      1  0.4292740000000  0.4541430000000  0.4034470000000 1.0
C      1  0.5587970000000  0.6294540000000  0.5638740000000 1.0
C      1  0.6017560000000  0.4766200000000  0.4876640000000 1.0
C      1  0.4654580000000  0.3768590000000  0.5144130000000 1.0
END
