TITL C-612603-7354-259 -0.0437022327800409 125000 -646.649412706443 0 0 106 (C1) n - 1
REM
REM in /home/nfs/bkarasulu/CARBON/AIRSS/Generating-Clusters/TERSOFF/Only-C1/FIRE-HFTN
REM
REM
REM
REM
REM
REM ./C.cell (11c1c37f851c82e70ff6c80c92926a4b)
REM AIRSS Version 0.9.1 bugfix July 2018 build 013d7b7c2542+ Fri, 06 Jul 2018 19:26:36 +0100
REM compiler GCC version 9.2.1 20190827 (Red Hat 9.2.1-1)
REM options -cpp -mtune=generic -march=x86-64 -g -O0 -fpre-include=/usr/include/finclude/math-vector-fortran.h
REM seed 2034716406 -1657817725 -1970688948 -60215585 1880302203 -1195874221 -1258454475 369294892 521691782 1531038046 -371054228 -295530445 1714868167 236784349 -2116702214 1649028386 -821420546 -24379731 -867361610 -2099507676 -237109604 -1990331216 588555871 1230792157 -737034977 249791049 896385023 -868765697 -720874210 -573716318 649127405 1021502166 198532922
REM
CELL 1.54180   50.00000   50.00000   50.00000   90.00000   90.00000   90.00000
LATT -1
SFAC C  
C      1  0.5006810000000  0.5478330000000  0.4446130000000 1.0
C      1  0.4588810000000  0.5086410000000  0.5037340000000 1.0
C      1  0.5689170000000  0.4359820000000  0.4479610000000 1.0
C      1  0.4672370000000  0.4020370000000  0.5024330000000 1.0
C      1  0.5239670000000  0.4485660000000  0.4447190000000 1.0
C      1  0.5788510000000  0.5616250000000  0.5566310000000 1.0
C      1  0.4776120000000  0.5654790000000  0.5819670000000 1.0
C      1  0.5248740000000  0.5009720000000  0.5345360000000 1.0
C      1  0.5837870000000  0.4811080000000  0.4613920000000 1.0
C      1  0.4721650000000  0.4912990000000  0.4855670000000 1.0
C      1  0.5428500000000  0.5802430000000  0.4908840000000 1.0
C      1  0.4768680000000  0.4659230000000  0.4013570000000 1.0
C      1  0.5879870000000  0.4841640000000  0.5386320000000 1.0
C      1  0.4353860000000  0.4516550000000  0.5188010000000 1.0
C      1  0.5402150000000  0.5701970000000  0.4637990000000 1.0
C      1  0.3606380000000  0.5043820000000  0.4937120000000 1.0
C      1  0.4652090000000  0.4967010000000  0.3587960000000 1.0
C      1  0.5654070000000  0.5750720000000  0.5073900000000 1.0
C      1  0.4972030000000  0.4998350000000  0.5312800000000 1.0
C      1  0.4243210000000  0.5615040000000  0.5057200000000 1.0
C      1  0.4313320000000  0.5138560000000  0.5038390000000 1.0
C      1  0.5464050000000  0.4026100000000  0.4809670000000 1.0
C      1  0.5346680000000  0.5100380000000  0.4627020000000 1.0
C      1  0.4432010000000  0.5803640000000  0.4639860000000 1.0
C      1  0.4665530000000  0.5926150000000  0.4580700000000 1.0
C      1  0.4766690000000  0.5469660000000  0.4843080000000 1.0
C      1  0.5577440000000  0.4331710000000  0.5161850000000 1.0
C      1  0.4871540000000  0.4735090000000  0.5267170000000 1.0
C      1  0.4926210000000  0.4073170000000  0.5098130000000 1.0
C      1  0.5278600000000  0.4068100000000  0.4587520000000 1.0
C      1  0.5420330000000  0.5273160000000  0.4415160000000 1.0
C      1  0.5131970000000  0.4924750000000  0.4614790000000 1.0
C      1  0.4146060000000  0.5090160000000  0.4789600000000 1.0
C      1  0.5300650000000  0.4682590000000  0.4042350000000 1.0
C      1  0.5166570000000  0.4648450000000  0.4656650000000 1.0
C      1  0.3355580000000  0.5025630000000  0.5020910000000 1.0
C      1  0.5037490000000  0.4529930000000  0.4878130000000 1.0
C      1  0.5132980000000  0.5725710000000  0.4517020000000 1.0
C      1  0.4362100000000  0.5803520000000  0.5233850000000 1.0
C      1  0.4801380000000  0.5933330000000  0.5367750000000 1.0
C      1  0.4858320000000  0.5324340000000  0.4628890000000 1.0
C      1  0.5473400000000  0.4071460000000  0.5084280000000 1.0
C      1  0.4776820000000  0.5185170000000  0.5232300000000 1.0
C      1  0.5755540000000  0.4254070000000  0.4728910000000 1.0
C      1  0.5030730000000  0.4562520000000  0.4067290000000 1.0
C      1  0.4840920000000  0.4691070000000  0.4992080000000 1.0
C      1  0.4544630000000  0.4186500000000  0.4837460000000 1.0
C      1  0.4871650000000  0.4670390000000  0.5729050000000 1.0
C      1  0.5298590000000  0.5235140000000  0.5997230000000 1.0
C      1  0.3108920000000  0.5007790000000  0.5103430000000 1.0
C      1  0.4431250000000  0.5659320000000  0.5487650000000 1.0
C      1  0.4672560000000  0.5150160000000  0.5806750000000 1.0
C      1  0.5426870000000  0.4493150000000  0.5339730000000 1.0
C      1  0.5758680000000  0.4429730000000  0.4952950000000 1.0
C      1  0.5273820000000  0.4396380000000  0.5559800000000 1.0
C      1  0.5025720000000  0.4378030000000  0.4287480000000 1.0
C      1  0.5827850000000  0.4892880000000  0.5112960000000 1.0
C      1  0.5203070000000  0.5918320000000  0.5044710000000 1.0
C      1  0.5424810000000  0.4273660000000  0.4439760000000 1.0
C      1  0.5155160000000  0.5001440000000  0.5931220000000 1.0
C      1  0.4738760000000  0.5405200000000  0.5911120000000 1.0
C      1  0.4444850000000  0.4646820000000  0.5431170000000 1.0
C      1  0.4576010000000  0.4582130000000  0.4209760000000 1.0
C      1  0.5696420000000  0.5514990000000  0.5798330000000 1.0
C      1  0.4681510000000  0.5768540000000  0.5583220000000 1.0
C      1  0.5838230000000  0.4702080000000  0.4896210000000 1.0
C      1  0.4268160000000  0.5610590000000  0.4769810000000 1.0
C      1  0.5146500000000  0.4563720000000  0.5749320000000 1.0
C      1  0.5545610000000  0.4713590000000  0.4174590000000 1.0
C      1  0.4705480000000  0.4815380000000  0.3793080000000 1.0
C      1  0.3857970000000  0.5063050000000  0.4857010000000 1.0
C      1  0.5834610000000  0.5361100000000  0.4566630000000 1.0
C      1  0.5672200000000  0.5118040000000  0.5045810000000 1.0
C      1  0.4238580000000  0.5357200000000  0.5201000000000 1.0
C      1  0.4935160000000  0.5929160000000  0.4546890000000 1.0
C      1  0.4873410000000  0.4945530000000  0.5846940000000 1.0
C      1  0.5374880000000  0.5244340000000  0.4148330000000 1.0
C      1  0.5593840000000  0.4787040000000  0.5795990000000 1.0
C      1  0.5467220000000  0.5149940000000  0.4876840000000 1.0
C      1  0.5388670000000  0.4770350000000  0.5295490000000 1.0
C      1  0.4522600000000  0.4462950000000  0.4460250000000 1.0
C      1  0.4384570000000  0.4422770000000  0.4917530000000 1.0
C      1  0.5723080000000  0.4638730000000  0.4401220000000 1.0
C      1  0.5900750000000  0.5092250000000  0.4571360000000 1.0
C      1  0.5845780000000  0.4818290000000  0.5667740000000 1.0
C      1  0.5513220000000  0.5392090000000  0.5952990000000 1.0
C      1  0.4240400000000  0.4838510000000  0.4656180000000 1.0
C      1  0.5219870000000  0.5751860000000  0.5484130000000 1.0
C      1  0.4876830000000  0.5041670000000  0.4654960000000 1.0
C      1  0.5072960000000  0.5900050000000  0.5296650000000 1.0
C      1  0.4578840000000  0.5986960000000  0.5191800000000 1.0
C      1  0.4938950000000  0.4164140000000  0.4467990000000 1.0
C      1  0.5771500000000  0.5693660000000  0.5309100000000 1.0
C      1  0.5577180000000  0.5492870000000  0.4523630000000 1.0
C      1  0.5067050000000  0.4282070000000  0.5003730000000 1.0
C      1  0.4190200000000  0.5360680000000  0.4647320000000 1.0
C      1  0.4336010000000  0.4883970000000  0.5548670000000 1.0
C      1  0.5292770000000  0.5498420000000  0.5506250000000 1.0
C      1  0.5349630000000  0.5250550000000  0.5434580000000 1.0
C      1  0.5319140000000  0.4770400000000  0.5861050000000 1.0
C      1  0.4670030000000  0.4223890000000  0.4571260000000 1.0
C      1  0.4438430000000  0.5142460000000  0.5625630000000 1.0
C      1  0.4349220000000  0.5378810000000  0.5475270000000 1.0
C      1  0.4727730000000  0.4628910000000  0.5484070000000 1.0
C      1  0.6070210000000  0.4827880000000  0.5825780000000 1.0
C      1  0.4357900000000  0.4582870000000  0.4670520000000 1.0
END
