TITL C-612607-4507-364 2.24547728009079 125000 -372.327307784816 0 0 62 (C1) n - 1
REM
REM in /home/nfs/bkarasulu/CARBON/AIRSS/Generating-Clusters/TERSOFF/Only-C1/FIRE-HFTN
REM
REM
REM
REM
REM
REM ./C.cell (11c1c37f851c82e70ff6c80c92926a4b)
REM AIRSS Version 0.9.1 bugfix July 2018 build 013d7b7c2542+ Fri, 06 Jul 2018 19:26:36 +0100
REM compiler GCC version 9.2.1 20190827 (Red Hat 9.2.1-1)
REM options -cpp -mtune=generic -march=x86-64 -g -O0 -fpre-include=/usr/include/finclude/math-vector-fortran.h
REM seed -1626500357 -1718494356 500887674 338298968 1325294331 -716127380 -2081482434 -12441833 947645192 -1365673146 879339110 -892144764 -134884641 -908787075 1484572724 1289929500 1245771118 1641105362 -224383142 -441100804 -115855149 -992802483 2021277742 -1917654072 955320663 2141542464 452709768 814893566 1381287164 -1194595469 601150072 -739615986 -1441550969
REM
CELL 1.54180   50.00000   50.00000   50.00000   90.00000   90.00000   90.00000
LATT -1
SFAC C  
C      1  0.5409960000000  0.4203570000000  0.4823020000000 1.0
C      1  0.5319730000000  0.5432850000000  0.4558060000000 1.0
C      1  0.5645150000000  0.4921420000000  0.5270300000000 1.0
C      1  0.4829540000000  0.5649580000000  0.4623230000000 1.0
C      1  0.4484800000000  0.4774550000000  0.5447620000000 1.0
C      1  0.4587700000000  0.4758180000000  0.5691560000000 1.0
C      1  0.4500960000000  0.4765360000000  0.4311500000000 1.0
C      1  0.4475130000000  0.4386270000000  0.4960680000000 1.0
C      1  0.4588700000000  0.4717810000000  0.3582560000000 1.0
C      1  0.4602780000000  0.4261370000000  0.4760820000000 1.0
C      1  0.5873740000000  0.5084850000000  0.5291640000000 1.0
C      1  0.4500900000000  0.5814670000000  0.4300380000000 1.0
C      1  0.4769000000000  0.4790570000000  0.5882430000000 1.0
C      1  0.4871650000000  0.5141800000000  0.5156010000000 1.0
C      1  0.4495960000000  0.5214130000000  0.4867600000000 1.0
C      1  0.4539030000000  0.5335260000000  0.4385270000000 1.0
C      1  0.4379600000000  0.4649670000000  0.4982920000000 1.0
C      1  0.4877090000000  0.5690780000000  0.5626190000000 1.0
C      1  0.5104690000000  0.5268030000000  0.5141410000000 1.0
C      1  0.5964000000000  0.5402250000000  0.4914870000000 1.0
C      1  0.5241060000000  0.4204360000000  0.4617950000000 1.0
C      1  0.5553880000000  0.4518770000000  0.5532140000000 1.0
C      1  0.4769220000000  0.5758130000000  0.4875150000000 1.0
C      1  0.4547750000000  0.4927940000000  0.4081040000000 1.0
C      1  0.5088520000000  0.4790310000000  0.6249150000000 1.0
C      1  0.5006100000000  0.4246030000000  0.4500600000000 1.0
C      1  0.4754030000000  0.5764830000000  0.5400810000000 1.0
C      1  0.4261280000000  0.4751980000000  0.4747260000000 1.0
C      1  0.5531060000000  0.4903350000000  0.5012670000000 1.0
C      1  0.5277090000000  0.4606560000000  0.6704020000000 1.0
C      1  0.4568830000000  0.5204630000000  0.4136600000000 1.0
C      1  0.5369350000000  0.4950090000000  0.5675850000000 1.0
C      1  0.4609580000000  0.4610710000000  0.3341000000000 1.0
C      1  0.4375000000000  0.4895610000000  0.4533740000000 1.0
C      1  0.5428580000000  0.5599220000000  0.5356010000000 1.0
C      1  0.5534140000000  0.5287180000000  0.4662270000000 1.0
C      1  0.5114380000000  0.5581370000000  0.5730600000000 1.0
C      1  0.4567960000000  0.4824040000000  0.3824310000000 1.0
C      1  0.4611910000000  0.5071360000000  0.5080600000000 1.0
C      1  0.5492990000000  0.5034900000000  0.4782490000000 1.0
C      1  0.5540680000000  0.4348670000000  0.5310220000000 1.0
C      1  0.4621430000000  0.5601560000000  0.4434140000000 1.0
C      1  0.5307170000000  0.5436230000000  0.5181880000000 1.0
C      1  0.4622360000000  0.4515080000000  0.4350520000000 1.0
C      1  0.5090170000000  0.5566770000000  0.4561510000000 1.0
C      1  0.4729900000000  0.5790910000000  0.5136550000000 1.0
C      1  0.4484160000000  0.4833020000000  0.5174850000000 1.0
C      1  0.5523330000000  0.4799730000000  0.5495700000000 1.0
C      1  0.4739020000000  0.4325420000000  0.4522480000000 1.0
C      1  0.5008950000000  0.4877380000000  0.5996570000000 1.0
C      1  0.5121390000000  0.5330980000000  0.5856010000000 1.0
C      1  0.5353350000000  0.5667500000000  0.5605410000000 1.0
C      1  0.5598160000000  0.4414490000000  0.5787330000000 1.0
C      1  0.5172960000000  0.5055220000000  0.5846880000000 1.0
C      1  0.4388180000000  0.6013870000000  0.4175770000000 1.0
C      1  0.5503850000000  0.4248410000000  0.5067300000000 1.0
C      1  0.5998870000000  0.5273130000000  0.5147350000000 1.0
C      1  0.5782870000000  0.5408600000000  0.4716960000000 1.0
C      1  0.4630120000000  0.4505360000000  0.3103420000000 1.0
C      1  0.5629200000000  0.4327990000000  0.6031200000000 1.0
C      1  0.5181030000000  0.4699390000000  0.6480160000000 1.0
C      1  0.4450040000000  0.5165980000000  0.4595400000000 1.0
END
