TITL C-612603-7354-1011 0.0205618000287888 125000 -950.319714028338 0 0 155 (C1) n - 1
REM
REM in /home/nfs/bkarasulu/CARBON/AIRSS/Generating-Clusters/TERSOFF/Only-C1/FIRE-HFTN
REM
REM
REM
REM
REM
REM ./C.cell (11c1c37f851c82e70ff6c80c92926a4b)
REM AIRSS Version 0.9.1 bugfix July 2018 build 013d7b7c2542+ Fri, 06 Jul 2018 19:26:36 +0100
REM compiler GCC version 9.2.1 20190827 (Red Hat 9.2.1-1)
REM options -cpp -mtune=generic -march=x86-64 -g -O0 -fpre-include=/usr/include/finclude/math-vector-fortran.h
REM seed -56898234 1721415983 -1338755986 938799931 -786068378 126454656 516464777 1394527233 -1617786946 1745619675 1959768918 1365017749 1872092043 -1346805798 -703445176 -974223584 -107350799 701052593 898779958 501218113 930148962 1085932407 -1708382173 -70492097 145698167 1931618778 1127667877 73422233 2130439585 1129118207 -1063798339 1113686145 -1531611854
REM
CELL 1.54180   50.00000   50.00000   50.00000   90.00000   90.00000   90.00000
LATT -1
SFAC C  
C      1  0.5266750000000  0.5465680000000  0.5786140000000 1.0
C      1  0.5053960000000  0.5652170000000  0.4227620000000 1.0
C      1  0.5188010000000  0.4023730000000  0.4588280000000 1.0
C      1  0.4531380000000  0.4897240000000  0.5225840000000 1.0
C      1  0.4925120000000  0.4866580000000  0.4027970000000 1.0
C      1  0.5610570000000  0.5811710000000  0.5412750000000 1.0
C      1  0.4887730000000  0.5866720000000  0.5399520000000 1.0
C      1  0.3795220000000  0.4970100000000  0.4890370000000 1.0
C      1  0.4739340000000  0.4677960000000  0.3928130000000 1.0
C      1  0.4722890000000  0.5375440000000  0.3498940000000 1.0
C      1  0.5501460000000  0.5336990000000  0.4231530000000 1.0
C      1  0.5363020000000  0.5396230000000  0.5088600000000 1.0
C      1  0.4885880000000  0.4431670000000  0.4839710000000 1.0
C      1  0.4456560000000  0.5305980000000  0.3899960000000 1.0
C      1  0.4435190000000  0.5069950000000  0.4539490000000 1.0
C      1  0.5814090000000  0.5374660000000  0.4239500000000 1.0
C      1  0.5382680000000  0.5549770000000  0.4641310000000 1.0
C      1  0.5740410000000  0.4643510000000  0.4515660000000 1.0
C      1  0.4005410000000  0.4746280000000  0.4487620000000 1.0
C      1  0.5397840000000  0.5879910000000  0.5624720000000 1.0
C      1  0.5801310000000  0.4004230000000  0.5725180000000 1.0
C      1  0.5860040000000  0.5741310000000  0.4658080000000 1.0
C      1  0.5440310000000  0.5753060000000  0.4446300000000 1.0
C      1  0.4934370000000  0.5480470000000  0.4865630000000 1.0
C      1  0.3977250000000  0.4177690000000  0.5222970000000 1.0
C      1  0.4848910000000  0.5243630000000  0.4707180000000 1.0
C      1  0.5094490000000  0.6027210000000  0.4557430000000 1.0
C      1  0.5541530000000  0.5179370000000  0.5030590000000 1.0
C      1  0.4937720000000  0.5304100000000  0.3930510000000 1.0
C      1  0.4490700000000  0.5127140000000  0.5050960000000 1.0
C      1  0.4465150000000  0.4573870000000  0.5672070000000 1.0
C      1  0.5742650000000  0.5838620000000  0.4890360000000 1.0
C      1  0.4033390000000  0.5339870000000  0.5473740000000 1.0
C      1  0.5171050000000  0.5734880000000  0.5767330000000 1.0
C      1  0.4151370000000  0.5362680000000  0.5735120000000 1.0
C      1  0.5480150000000  0.5296000000000  0.4549460000000 1.0
C      1  0.4871360000000  0.4927240000000  0.4304780000000 1.0
C      1  0.4779040000000  0.4956990000000  0.6279600000000 1.0
C      1  0.3916850000000  0.4982890000000  0.4637090000000 1.0
C      1  0.4619130000000  0.3977280000000  0.5025420000000 1.0
C      1  0.6077950000000  0.5018110000000  0.5108890000000 1.0
C      1  0.6167820000000  0.4337300000000  0.5634640000000 1.0
C      1  0.4461740000000  0.4440790000000  0.4993840000000 1.0
C      1  0.4719910000000  0.4553170000000  0.4619700000000 1.0
C      1  0.4197110000000  0.5699280000000  0.4578570000000 1.0
C      1  0.5223590000000  0.4340770000000  0.5255150000000 1.0
C      1  0.5050000000000  0.5043080000000  0.4808850000000 1.0
C      1  0.3974040000000  0.4085060000000  0.4962380000000 1.0
C      1  0.6014750000000  0.5471290000000  0.5321820000000 1.0
C      1  0.4296780000000  0.5265100000000  0.4110720000000 1.0
C      1  0.5264860000000  0.4809730000000  0.5178900000000 1.0
C      1  0.4069380000000  0.5487000000000  0.4721130000000 1.0
C      1  0.5386490000000  0.5092160000000  0.4069740000000 1.0
C      1  0.4404760000000  0.4005380000000  0.4585900000000 1.0
C      1  0.5482280000000  0.5254040000000  0.6141050000000 1.0
C      1  0.5159210000000  0.4492810000000  0.4801820000000 1.0
C      1  0.4542680000000  0.4105620000000  0.5496060000000 1.0
C      1  0.6252230000000  0.4580200000000  0.4995350000000 1.0
C      1  0.5527170000000  0.4955020000000  0.5209810000000 1.0
C      1  0.4817470000000  0.5036420000000  0.5688220000000 1.0
C      1  0.4665990000000  0.3913000000000  0.4739250000000 1.0
C      1  0.5205200000000  0.4386960000000  0.5534280000000 1.0
C      1  0.5538520000000  0.4848470000000  0.4122200000000 1.0
C      1  0.4797090000000  0.4122340000000  0.4330250000000 1.0
C      1  0.4599420000000  0.5343590000000  0.5196500000000 1.0
C      1  0.4898780000000  0.3971840000000  0.4575480000000 1.0
C      1  0.4625670000000  0.5884530000000  0.5001000000000 1.0
C      1  0.4771780000000  0.4763780000000  0.5153530000000 1.0
C      1  0.5524580000000  0.4008290000000  0.5729090000000 1.0
C      1  0.5673850000000  0.4435830000000  0.5639630000000 1.0
C      1  0.5908080000000  0.4266480000000  0.5663400000000 1.0
C      1  0.5497240000000  0.4421670000000  0.4351110000000 1.0
C      1  0.5921800000000  0.5101690000000  0.4262960000000 1.0
C      1  0.5454050000000  0.4578590000000  0.4114030000000 1.0
C      1  0.6112050000000  0.5240370000000  0.4919310000000 1.0
C      1  0.4834770000000  0.5730380000000  0.5643000000000 1.0
C      1  0.4667380000000  0.3956740000000  0.5303700000000 1.0
C      1  0.4677830000000  0.5979580000000  0.5249430000000 1.0
C      1  0.6037940000000  0.4756440000000  0.4970460000000 1.0
C      1  0.4611720000000  0.4791520000000  0.6144280000000 1.0
C      1  0.5270350000000  0.5159730000000  0.6280430000000 1.0
C      1  0.5259600000000  0.5926550000000  0.5057670000000 1.0
C      1  0.4914370000000  0.5410520000000  0.4196010000000 1.0
C      1  0.5818670000000  0.5124320000000  0.5559240000000 1.0
C      1  0.4158740000000  0.4560700000000  0.4354250000000 1.0
C      1  0.5228160000000  0.5499840000000  0.4863910000000 1.0
C      1  0.5253750000000  0.5511400000000  0.5320640000000 1.0
C      1  0.4843100000000  0.4391980000000  0.6039300000000 1.0
C      1  0.4705930000000  0.5329710000000  0.3767330000000 1.0
C      1  0.4669780000000  0.4604590000000  0.5907880000000 1.0
C      1  0.4926270000000  0.5878280000000  0.4365570000000 1.0
C      1  0.5646980000000  0.4913780000000  0.5482720000000 1.0
C      1  0.5115220000000  0.5072840000000  0.3940760000000 1.0
C      1  0.5244150000000  0.4930100000000  0.4639950000000 1.0
C      1  0.5364680000000  0.6019510000000  0.4477440000000 1.0
C      1  0.3978980000000  0.4594910000000  0.5476060000000 1.0
C      1  0.4451310000000  0.5533570000000  0.5342370000000 1.0
C      1  0.5288060000000  0.4216920000000  0.4387860000000 1.0
C      1  0.4530810000000  0.4533620000000  0.4025390000000 1.0
C      1  0.4840120000000  0.5763900000000  0.4864260000000 1.0
C      1  0.4403830000000  0.4170880000000  0.4997170000000 1.0
C      1  0.5921940000000  0.5209110000000  0.4719230000000 1.0
C      1  0.3801330000000  0.5038640000000  0.5148880000000 1.0
C      1  0.5483460000000  0.4739630000000  0.5935440000000 1.0
C      1  0.5202020000000  0.5343980000000  0.5544710000000 1.0
C      1  0.4397230000000  0.4857660000000  0.5516920000000 1.0
C      1  0.5015180000000  0.5134430000000  0.5482490000000 1.0
C      1  0.4098320000000  0.4341540000000  0.5427170000000 1.0
C      1  0.6132330000000  0.5489710000000  0.5060780000000 1.0
C      1  0.5087090000000  0.4641260000000  0.5608580000000 1.0
C      1  0.4538980000000  0.5085830000000  0.5681580000000 1.0
C      1  0.4027600000000  0.5242630000000  0.4561480000000 1.0
C      1  0.4166200000000  0.5508230000000  0.5278250000000 1.0
C      1  0.5018240000000  0.5074030000000  0.6318490000000 1.0
C      1  0.4882990000000  0.4762480000000  0.5764280000000 1.0
C      1  0.4244900000000  0.5198200000000  0.4375790000000 1.0
C      1  0.5556680000000  0.5889120000000  0.5113610000000 1.0
C      1  0.5316140000000  0.4595080000000  0.6092750000000 1.0
C      1  0.5722930000000  0.5372880000000  0.5685580000000 1.0
C      1  0.5766550000000  0.4863740000000  0.4308990000000 1.0
C      1  0.4733980000000  0.4498260000000  0.5076460000000 1.0
C      1  0.5618820000000  0.4709310000000  0.5684520000000 1.0
C      1  0.5644400000000  0.5181420000000  0.4755180000000 1.0
C      1  0.4366610000000  0.4324260000000  0.5548250000000 1.0
C      1  0.4644230000000  0.5893510000000  0.4373960000000 1.0
C      1  0.5346030000000  0.5612920000000  0.4205480000000 1.0
C      1  0.3951320000000  0.5081010000000  0.5383490000000 1.0
C      1  0.5798350000000  0.5591570000000  0.5484570000000 1.0
C      1  0.5165310000000  0.4864030000000  0.5448090000000 1.0
C      1  0.4072200000000  0.5513600000000  0.5006960000000 1.0
C      1  0.4902240000000  0.4699110000000  0.4464010000000 1.0
C      1  0.5171180000000  0.4668360000000  0.4575170000000 1.0
C      1  0.6022670000000  0.5170000000000  0.5363860000000 1.0
C      1  0.5065870000000  0.5950440000000  0.4831820000000 1.0
C      1  0.5007820000000  0.4890640000000  0.5039790000000 1.0
C      1  0.5516220000000  0.5378800000000  0.5889710000000 1.0
C      1  0.4458370000000  0.4565220000000  0.4733400000000 1.0
C      1  0.4504570000000  0.4168440000000  0.4354730000000 1.0
C      1  0.5099730000000  0.4435580000000  0.6122980000000 1.0
C      1  0.5325070000000  0.4530820000000  0.5047310000000 1.0
C      1  0.4381270000000  0.4409580000000  0.4238060000000 1.0
C      1  0.5426990000000  0.4270320000000  0.5663940000000 1.0
C      1  0.4571530000000  0.5138490000000  0.4773660000000 1.0
C      1  0.4438190000000  0.5345180000000  0.5755620000000 1.0
C      1  0.4211890000000  0.4075690000000  0.4802420000000 1.0
C      1  0.5808220000000  0.4648500000000  0.4807010000000 1.0
C      1  0.5611750000000  0.4517200000000  0.4969540000000 1.0
C      1  0.4870180000000  0.5209270000000  0.4398200000000 1.0
C      1  0.4398010000000  0.5825240000000  0.4454140000000 1.0
C      1  0.5896860000000  0.5595050000000  0.4423160000000 1.0
C      1  0.4861770000000  0.5321240000000  0.5211210000000 1.0
C      1  0.5131240000000  0.5777220000000  0.5276160000000 1.0
C      1  0.4575740000000  0.5569120000000  0.5619040000000 1.0
C      1  0.5041090000000  0.4235060000000  0.4214580000000 1.0
C      1  0.4093130000000  0.4854490000000  0.5483500000000 1.0
END
