TITL C-612600-6631-958 922.391888509211 125000 -1202.50581590871 0 0 197 (C1) n - 1
REM
REM in /home/nfs/bkarasulu/CARBON/AIRSS/Generating-Clusters/TERSOFF/Only-C1/FIRE-HFTN
REM
REM
REM
REM
REM
REM ./C.cell (11c1c37f851c82e70ff6c80c92926a4b)
REM AIRSS Version 0.9.1 bugfix July 2018 build 013d7b7c2542+ Fri, 06 Jul 2018 19:26:36 +0100
REM compiler GCC version 9.2.1 20190827 (Red Hat 9.2.1-1)
REM options -cpp -mtune=generic -march=x86-64 -g -O0 -fpre-include=/usr/include/finclude/math-vector-fortran.h
REM seed 1232773567 1180452425 -1131669903 -249206710 699203785 -474782838 654188311 1351248564 -2144250984 643676973 -1357490606 920260412 -476834027 -241927334 -2132985711 1783518292 -485481786 974994246 526711735 983370506 1933373236 -691616760 589124438 -1663748322 749172859 -838583321 1614429899 132634223 192012885 117025957 -1468483305 516986010 1527417444
REM
CELL 1.54180   50.00000   50.00000   50.00000   90.00000   90.00000   90.00000
LATT -1
SFAC C  
C      1  0.5727550000000  0.5776560000000  0.4588350000000 1.0
C      1  0.4629370000000  0.5314130000000  0.4655300000000 1.0
C      1  0.4505890000000  0.5598560000000  0.5955540000000 1.0
C      1  0.4537730000000  0.5002020000000  0.5654590000000 1.0
C      1  0.5599390000000  0.6007210000000  0.4776780000000 1.0
C      1  0.3893770000000  0.4294850000000  0.4240610000000 1.0
C      1  0.5306460000000  0.5601400000000  0.4345340000000 1.0
C      1  0.5672940000000  0.4389320000000  0.6027530000000 1.0
C      1  0.4924280000000  0.6003050000000  0.5644810000000 1.0
C      1  0.5203260000000  0.5244860000000  0.4045110000000 1.0
C      1  0.4336220000000  0.5692210000000  0.4226290000000 1.0
C      1  0.4606030000000  0.5005750000000  0.5212470000000 1.0
C      1  0.4421580000000  0.4068730000000  0.5121430000000 1.0
C      1  0.5134970000000  0.5954700000000  0.5462520000000 1.0
C      1  0.5202440000000  0.4895530000000  0.6575320000000 1.0
C      1  0.5370470000000  0.4281170000000  0.5408690000000 1.0
C      1  0.5196820000000  0.4913250000000  0.6296810000000 1.0
C      1  0.4109510000000  0.4256470000000  0.4811480000000 1.0
C      1  0.5071720000000  0.5052990000000  0.4627370000000 1.0
C      1  0.4737730000000  0.3396600000000  0.5276060000000 1.0
C      1  0.5529770000000  0.4300290000000  0.4297750000000 1.0
C      1  0.4367190000000  0.5849470000000  0.4717030000000 1.0
C      1  0.4511500000000  0.5247770000000  0.5109040000000 1.0
C      1  0.5602970000000  0.4071770000000  0.4804030000000 1.0
C      1  0.4698300000000  0.4396400000000  0.5732020000000 1.0
C      1  0.5679010000000  0.3899030000000  0.5348610000000 1.0
C      1  0.4982530000000  0.5476620000000  0.5436740000000 1.0
C      1  0.5607880000000  0.4633240000000  0.5125150000000 1.0
C      1  0.5891970000000  0.4592030000000  0.4426290000000 1.0
C      1  0.4453530000000  0.3895860000000  0.4684790000000 1.0
C      1  0.4144950000000  0.4252620000000  0.4122150000000 1.0
C      1  0.4291720000000  0.4730290000000  0.6014170000000 1.0
C      1  0.5447080000000  0.4789310000000  0.4040370000000 1.0
C      1  0.5012630000000  0.4542590000000  0.5225290000000 1.0
C      1  0.4944860000000  0.4835850000000  0.3967280000000 1.0
C      1  0.5805600000000  0.5421680000000  0.5625800000000 1.0
C      1  0.4603400000000  0.6026940000000  0.4639930000000 1.0
C      1  0.4895400000000  0.5284830000000  0.4503560000000 1.0
C      1  0.4624850000000  0.5423420000000  0.4918690000000 1.0
C      1  0.4175630000000  0.5223350000000  0.4416490000000 1.0
C      1  0.4681270000000  0.4586720000000  0.5543090000000 1.0
C      1  0.4303300000000  0.4058150000000  0.4861010000000 1.0
C      1  0.4566050000000  0.4467210000000  0.4237680000000 1.0
C      1  0.6253550000000  0.4390270000000  0.4941330000000 1.0
C      1  0.4311120000000  0.5428110000000  0.5243480000000 1.0
C      1  0.5335360000000  0.6130540000000  0.4765990000000 1.0
C      1  0.4690880000000  0.6001420000000  0.4359650000000 1.0
C      1  0.5453250000000  0.5627630000000  0.5377320000000 1.0
C      1  0.4227840000000  0.4572020000000  0.5785220000000 1.0
C      1  0.6016820000000  0.4998640000000  0.4847550000000 1.0
C      1  0.4868940000000  0.5339060000000  0.3728150000000 1.0
C      1  0.5121960000000  0.3844760000000  0.4962750000000 1.0
C      1  0.4318840000000  0.5599190000000  0.5710120000000 1.0
C      1  0.5447690000000  0.4046340000000  0.5271040000000 1.0
C      1  0.5769910000000  0.4626920000000  0.5950380000000 1.0
C      1  0.3767190000000  0.4476490000000  0.4395110000000 1.0
C      1  0.5230610000000  0.3793810000000  0.4185870000000 1.0
C      1  0.5216140000000  0.4519430000000  0.5427450000000 1.0
C      1  0.5209920000000  0.4952900000000  0.3980830000000 1.0
C      1  0.4728360000000  0.5440590000000  0.5559920000000 1.0
C      1  0.4695830000000  0.5218250000000  0.5765990000000 1.0
C      1  0.5309920000000  0.6078400000000  0.5272320000000 1.0
C      1  0.4952990000000  0.4197320000000  0.4401500000000 1.0
C      1  0.4935250000000  0.4745290000000  0.5031640000000 1.0
C      1  0.5978930000000  0.4715840000000  0.5423140000000 1.0
C      1  0.5416080000000  0.4559370000000  0.4225240000000 1.0
C      1  0.5374880000000  0.3990340000000  0.4987240000000 1.0
C      1  0.3985460000000  0.5531680000000  0.4839170000000 1.0
C      1  0.4234390000000  0.4702570000000  0.5257450000000 1.0
C      1  0.4598730000000  0.5804140000000  0.5295080000000 1.0
C      1  0.4552260000000  0.4782990000000  0.6146790000000 1.0
C      1  0.5181700000000  0.5671210000000  0.5457560000000 1.0
C      1  0.5884350000000  0.3908100000000  0.5169140000000 1.0
C      1  0.4090740000000  0.4963060000000  0.5216890000000 1.0
C      1  0.4837390000000  0.6171910000000  0.4750430000000 1.0
C      1  0.4566120000000  0.5850120000000  0.4161100000000 1.0
C      1  0.3924120000000  0.4765150000000  0.4758890000000 1.0
C      1  0.5691360000000  0.5361840000000  0.4943150000000 1.0
C      1  0.5782450000000  0.4924340000000  0.4709930000000 1.0
C      1  0.5105510000000  0.5647700000000  0.4769740000000 1.0
C      1  0.5368510000000  0.5632110000000  0.4830950000000 1.0
C      1  0.5857010000000  0.4107520000000  0.4963040000000 1.0
C      1  0.5314600000000  0.4953500000000  0.4518110000000 1.0
C      1  0.4797160000000  0.4909040000000  0.4201800000000 1.0
C      1  0.3979600000000  0.5607620000000  0.4559990000000 1.0
C      1  0.4788350000000  0.5200960000000  0.4227310000000 1.0
C      1  0.5613700000000  0.5517870000000  0.4710100000000 1.0
C      1  0.5898330000000  0.4756930000000  0.4207020000000 1.0
C      1  0.4068370000000  0.4871690000000  0.4023590000000 1.0
C      1  0.4683060000000  0.4661920000000  0.4902050000000 1.0
C      1  0.4789400000000  0.4619280000000  0.6140770000000 1.0
C      1  0.4285620000000  0.4006550000000  0.4110070000000 1.0
C      1  0.4621620000000  0.4844190000000  0.5446460000000 1.0
C      1  0.3840040000000  0.4742920000000  0.4476020000000 1.0
C      1  0.4688100000000  0.6008240000000  0.5477550000000 1.0
C      1  0.4004810000000  0.4502090000000  0.4846060000000 1.0
C      1  0.5534600000000  0.5887520000000  0.5253320000000 1.0
C      1  0.6072190000000  0.5292980000000  0.5230420000000 1.0
C      1  0.5526390000000  0.4848410000000  0.5295340000000 1.0
C      1  0.4690650000000  0.5404510000000  0.3985590000000 1.0
C      1  0.5221890000000  0.6208070000000  0.5034610000000 1.0
C      1  0.4960830000000  0.3781840000000  0.4739080000000 1.0
C      1  0.5335520000000  0.5641070000000  0.6197840000000 1.0
C      1  0.4986990000000  0.5869180000000  0.5901100000000 1.0
C      1  0.6191510000000  0.5174150000000  0.4987400000000 1.0
C      1  0.4694320000000  0.5683090000000  0.5041590000000 1.0
C      1  0.4321490000000  0.4476960000000  0.4091350000000 1.0
C      1  0.4212110000000  0.5758760000000  0.4482100000000 1.0
C      1  0.4766870000000  0.4769540000000  0.3756490000000 1.0
C      1  0.5997430000000  0.4352500000000  0.5032710000000 1.0
C      1  0.5941630000000  0.5758400000000  0.5008650000000 1.0
C      1  0.4552780000000  0.3996180000000  0.4162830000000 1.0
C      1  0.5522030000000  0.4554580000000  0.4849900000000 1.0
C      1  0.4457960000000  0.4575240000000  0.5084460000000 1.0
C      1  0.5080620000000  0.5525250000000  0.4520800000000 1.0
C      1  0.5333480000000  0.5133000000000  0.6163830000000 1.0
C      1  0.4139380000000  0.5346790000000  0.5683200000000 1.0
C      1  0.4660730000000  0.4705440000000  0.4392610000000 1.0
C      1  0.4933780000000  0.5771810000000  0.4939200000000 1.0
C      1  0.4733240000000  0.3666500000000  0.5242580000000 1.0
C      1  0.5568910000000  0.5068220000000  0.5995760000000 1.0
C      1  0.5055060000000  0.4976460000000  0.4903380000000 1.0
C      1  0.4473380000000  0.5583640000000  0.5452560000000 1.0
C      1  0.5701830000000  0.4926860000000  0.4085890000000 1.0
C      1  0.4122130000000  0.4961660000000  0.6030110000000 1.0
C      1  0.5266210000000  0.4504890000000  0.4688490000000 1.0
C      1  0.5204530000000  0.5390630000000  0.6200900000000 1.0
C      1  0.5192370000000  0.5169240000000  0.5050390000000 1.0
C      1  0.5934260000000  0.4944080000000  0.5605720000000 1.0
C      1  0.4184410000000  0.4581260000000  0.5517160000000 1.0
C      1  0.5537980000000  0.5130310000000  0.5324500000000 1.0
C      1  0.5550140000000  0.5821970000000  0.5843660000000 1.0
C      1  0.5599820000000  0.5358570000000  0.3880450000000 1.0
C      1  0.5576850000000  0.5059560000000  0.4562570000000 1.0
C      1  0.4278730000000  0.4707320000000  0.3930040000000 1.0
C      1  0.4494230000000  0.4766020000000  0.3753870000000 1.0
C      1  0.5288430000000  0.5822350000000  0.5975700000000 1.0
C      1  0.3916160000000  0.4892760000000  0.4247020000000 1.0
C      1  0.5230390000000  0.4120700000000  0.6097800000000 1.0
C      1  0.6322950000000  0.5362360000000  0.4812620000000 1.0
C      1  0.4760660000000  0.5703990000000  0.4007930000000 1.0
C      1  0.5023910000000  0.5769440000000  0.4060480000000 1.0
C      1  0.5401790000000  0.5383370000000  0.3685500000000 1.0
C      1  0.4511790000000  0.5286830000000  0.6007400000000 1.0
C      1  0.5718110000000  0.5935550000000  0.5043910000000 1.0
C      1  0.5039280000000  0.5290900000000  0.5242170000000 1.0
C      1  0.5750570000000  0.4639920000000  0.4672230000000 1.0
C      1  0.4974010000000  0.5118370000000  0.5783980000000 1.0
C      1  0.5214210000000  0.4611510000000  0.5922460000000 1.0
C      1  0.4455320000000  0.4875930000000  0.4521880000000 1.0
C      1  0.5128820000000  0.5366120000000  0.3631500000000 1.0
C      1  0.4944390000000  0.6277190000000  0.4995490000000 1.0
C      1  0.4555950000000  0.4312930000000  0.5174300000000 1.0
C      1  0.4987450000000  0.6003950000000  0.4324720000000 1.0
C      1  0.4778950000000  0.4365950000000  0.5999750000000 1.0
C      1  0.5474190000000  0.5216140000000  0.5056190000000 1.0
C      1  0.4703530000000  0.4217150000000  0.4260660000000 1.0
C      1  0.5212570000000  0.4691790000000  0.5653680000000 1.0
C      1  0.5484370000000  0.4206020000000  0.6080560000000 1.0
C      1  0.4927400000000  0.5467620000000  0.6176640000000 1.0
C      1  0.5542990000000  0.5775620000000  0.4348250000000 1.0
C      1  0.6016970000000  0.5754360000000  0.4717960000000 1.0
C      1  0.5762510000000  0.5653590000000  0.5788780000000 1.0
C      1  0.5135920000000  0.4961240000000  0.5639100000000 1.0
C      1  0.3953910000000  0.4993090000000  0.4952260000000 1.0
C      1  0.5126890000000  0.3998670000000  0.4310020000000 1.0
C      1  0.4835630000000  0.4310460000000  0.5237630000000 1.0
C      1  0.5764130000000  0.4896730000000  0.5852660000000 1.0
C      1  0.5897480000000  0.5489160000000  0.5103160000000 1.0
C      1  0.5095250000000  0.6116330000000  0.4577460000000 1.0
C      1  0.5199020000000  0.5539430000000  0.4091830000000 1.0
C      1  0.5063410000000  0.4715560000000  0.6142560000000 1.0
C      1  0.4410870000000  0.5150170000000  0.4547770000000 1.0
C      1  0.4966610000000  0.4167340000000  0.6073350000000 1.0
C      1  0.4943480000000  0.4073100000000  0.5339930000000 1.0
C      1  0.5571610000000  0.5381310000000  0.5463470000000 1.0
C      1  0.4790230000000  0.5678050000000  0.6024030000000 1.0
C      1  0.4209360000000  0.5639880000000  0.4974240000000 1.0
C      1  0.5583920000000  0.4144680000000  0.4522150000000 1.0
C      1  0.4126580000000  0.5226660000000  0.5395850000000 1.0
C      1  0.3890760000000  0.5267050000000  0.4895530000000 1.0
C      1  0.5000100000000  0.4388390000000  0.4616340000000 1.0
C      1  0.4582640000000  0.5066740000000  0.6207100000000 1.0
C      1  0.5645560000000  0.5287400000000  0.4420820000000 1.0
C      1  0.5993660000000  0.5221640000000  0.5511240000000 1.0
C      1  0.5307190000000  0.4680310000000  0.4459550000000 1.0
C      1  0.4775660000000  0.4570970000000  0.4643900000000 1.0
C      1  0.5207630000000  0.4880220000000  0.6835400000000 1.0
C      1  0.5875820000000  0.4550180000000  0.5204840000000 1.0
C      1  0.4494920000000  0.3822280000000  0.5240460000000 1.0
C      1  0.5682080000000  0.5222640000000  0.4128930000000 1.0
C      1  0.4966900000000  0.3827180000000  0.5207940000000 1.0
C      1  0.4702020000000  0.3792320000000  0.4661890000000 1.0
C      1  0.4385450000000  0.5443070000000  0.4063530000000 1.0
C      1  0.4209000000000  0.5207760000000  0.5929110000000 1.0
C      1  0.6236330000000  0.5579880000000  0.4671560000000 1.0
C      1  0.3958420000000  0.5380180000000  0.4397620000000 1.0
END
