TITL C-612603-7354-588 1204.8618191126 125000 -793.927126683813 0 0 131 (C1) n - 1
REM
REM in /home/nfs/bkarasulu/CARBON/AIRSS/Generating-Clusters/TERSOFF/Only-C1/FIRE-HFTN
REM
REM
REM
REM
REM
REM ./C.cell (11c1c37f851c82e70ff6c80c92926a4b)
REM AIRSS Version 0.9.1 bugfix July 2018 build 013d7b7c2542+ Fri, 06 Jul 2018 19:26:36 +0100
REM compiler GCC version 9.2.1 20190827 (Red Hat 9.2.1-1)
REM options -cpp -mtune=generic -march=x86-64 -g -O0 -fpre-include=/usr/include/finclude/math-vector-fortran.h
REM seed 1348464600 1071447700 369381112 43107959 -2111921909 -1010144215 -5323629 416970462 -561071513 959533241 -2099487064 161285524 -648466704 665004518 -1960542836 1469198546 412332045 -658595460 1273599432 -1036606492 437610330 1097344794 111006764 -1267765783 -1058560690 -590714860 -2089341848 802535182 -345697279 -1075893594 -1666120609 -859688789 2127363674
REM
CELL 1.54180   50.00000   50.00000   50.00000   90.00000   90.00000   90.00000
LATT -1
SFAC C  
C      1  0.5723270000000  0.4957110000000  0.4797940000000 1.0
C      1  0.5869440000000  0.4370550000000  0.5124830000000 1.0
C      1  0.4285230000000  0.4299880000000  0.4878190000000 1.0
C      1  0.4956880000000  0.5589920000000  0.5816140000000 1.0
C      1  0.4077030000000  0.5435900000000  0.5032690000000 1.0
C      1  0.4383640000000  0.5718640000000  0.5529480000000 1.0
C      1  0.4973640000000  0.4522410000000  0.5866420000000 1.0
C      1  0.5501360000000  0.4162370000000  0.5449280000000 1.0
C      1  0.4332430000000  0.4647910000000  0.5642630000000 1.0
C      1  0.4131640000000  0.4635450000000  0.5434360000000 1.0
C      1  0.5345010000000  0.4675490000000  0.4020890000000 1.0
C      1  0.4368090000000  0.5092200000000  0.4379000000000 1.0
C      1  0.5460150000000  0.4309420000000  0.4533040000000 1.0
C      1  0.4542350000000  0.5273710000000  0.5316160000000 1.0
C      1  0.4333470000000  0.4613110000000  0.4267240000000 1.0
C      1  0.5612810000000  0.5580700000000  0.4947590000000 1.0
C      1  0.5288490000000  0.5932460000000  0.4900150000000 1.0
C      1  0.4504880000000  0.4798080000000  0.5215120000000 1.0
C      1  0.4338190000000  0.4928830000000  0.5758280000000 1.0
C      1  0.5124090000000  0.5929490000000  0.5144920000000 1.0
C      1  0.4758810000000  0.4295420000000  0.4794870000000 1.0
C      1  0.4821030000000  0.4504290000000  0.5626230000000 1.0
C      1  0.5157770000000  0.4050270000000  0.4250210000000 1.0
C      1  0.4388170000000  0.5574290000000  0.6003660000000 1.0
C      1  0.5602990000000  0.5394240000000  0.5710850000000 1.0
C      1  0.4975790000000  0.5382300000000  0.4739470000000 1.0
C      1  0.4640240000000  0.5849930000000  0.5462490000000 1.0
C      1  0.4244280000000  0.4966740000000  0.3704960000000 1.0
C      1  0.6077970000000  0.5483300000000  0.5206060000000 1.0
C      1  0.5515810000000  0.5705390000000  0.4484050000000 1.0
C      1  0.5455910000000  0.4820820000000  0.4828230000000 1.0
C      1  0.4498160000000  0.5178900000000  0.4823070000000 1.0
C      1  0.5877520000000  0.5028520000000  0.5040130000000 1.0
C      1  0.5368750000000  0.5266850000000  0.5298410000000 1.0
C      1  0.4984530000000  0.4971050000000  0.3874480000000 1.0
C      1  0.5482470000000  0.5018070000000  0.5367860000000 1.0
C      1  0.5793660000000  0.5032970000000  0.4531840000000 1.0
C      1  0.4617220000000  0.5890890000000  0.4889300000000 1.0
C      1  0.4916700000000  0.5026560000000  0.4982120000000 1.0
C      1  0.5710300000000  0.4923070000000  0.5240170000000 1.0
C      1  0.5951950000000  0.4924070000000  0.5686270000000 1.0
C      1  0.4874300000000  0.4602060000000  0.4163700000000 1.0
C      1  0.5644470000000  0.4245630000000  0.4735190000000 1.0
C      1  0.4705790000000  0.5011160000000  0.3852480000000 1.0
C      1  0.4230840000000  0.5208310000000  0.5717210000000 1.0
C      1  0.4182600000000  0.5787810000000  0.5341640000000 1.0
C      1  0.5206920000000  0.4659290000000  0.5303820000000 1.0
C      1  0.4580960000000  0.4202560000000  0.5292020000000 1.0
C      1  0.5570400000000  0.4068190000000  0.4955770000000 1.0
C      1  0.4326080000000  0.5387160000000  0.4398430000000 1.0
C      1  0.5580120000000  0.4740930000000  0.4133930000000 1.0
C      1  0.4825020000000  0.4762080000000  0.4391980000000 1.0
C      1  0.5186860000000  0.5048240000000  0.4466160000000 1.0
C      1  0.3812770000000  0.5229990000000  0.5413080000000 1.0
C      1  0.4350190000000  0.4889910000000  0.4175450000000 1.0
C      1  0.3956980000000  0.5202370000000  0.5635970000000 1.0
C      1  0.4984660000000  0.4316310000000  0.4617080000000 1.0
C      1  0.4239030000000  0.4697460000000  0.5179130000000 1.0
C      1  0.4337660000000  0.5492670000000  0.5733890000000 1.0
C      1  0.4697640000000  0.4800440000000  0.4634950000000 1.0
C      1  0.4165140000000  0.5710870000000  0.5073050000000 1.0
C      1  0.4771650000000  0.5243100000000  0.4866610000000 1.0
C      1  0.4308960000000  0.5549050000000  0.4647580000000 1.0
C      1  0.5066600000000  0.4718140000000  0.3988420000000 1.0
C      1  0.5283150000000  0.5855370000000  0.5389680000000 1.0
C      1  0.5076330000000  0.5348490000000  0.5718520000000 1.0
C      1  0.4756790000000  0.4009400000000  0.5425350000000 1.0
C      1  0.5949230000000  0.5607880000000  0.5432440000000 1.0
C      1  0.5504210000000  0.5778720000000  0.4767180000000 1.0
C      1  0.4926080000000  0.4675530000000  0.5396560000000 1.0
C      1  0.4349550000000  0.5779560000000  0.4850090000000 1.0
C      1  0.4167890000000  0.4550290000000  0.4949040000000 1.0
C      1  0.5060580000000  0.5318460000000  0.4472440000000 1.0
C      1  0.5827740000000  0.5307770000000  0.4479370000000 1.0
C      1  0.5420020000000  0.5402320000000  0.5054500000000 1.0
C      1  0.5147290000000  0.4696620000000  0.5984660000000 1.0
C      1  0.4065220000000  0.4975140000000  0.3515800000000 1.0
C      1  0.5860960000000  0.4401320000000  0.4849060000000 1.0
C      1  0.5550210000000  0.4641480000000  0.5670010000000 1.0
C      1  0.6055200000000  0.5191040000000  0.5210370000000 1.0
C      1  0.5041650000000  0.5586180000000  0.4345890000000 1.0
C      1  0.5012280000000  0.5076940000000  0.5742370000000 1.0
C      1  0.5497200000000  0.5722210000000  0.5538180000000 1.0
C      1  0.5755160000000  0.5808160000000  0.5460180000000 1.0
C      1  0.5409510000000  0.4124460000000  0.4321920000000 1.0
C      1  0.4854500000000  0.4953780000000  0.5523820000000 1.0
C      1  0.4754860000000  0.5896200000000  0.4640110000000 1.0
C      1  0.5179390000000  0.5175060000000  0.3854440000000 1.0
C      1  0.4486900000000  0.4391360000000  0.4376210000000 1.0
C      1  0.4338690000000  0.4138080000000  0.5121040000000 1.0
C      1  0.4601570000000  0.5013150000000  0.5384080000000 1.0
C      1  0.5741540000000  0.4858430000000  0.4313880000000 1.0
C      1  0.5501900000000  0.5085160000000  0.5853850000000 1.0
C      1  0.4481710000000  0.4985210000000  0.4621320000000 1.0
C      1  0.5329420000000  0.3765380000000  0.5229660000000 1.0
C      1  0.5327000000000  0.4676360000000  0.5044970000000 1.0
C      1  0.5378440000000  0.4779940000000  0.5485500000000 1.0
C      1  0.5873600000000  0.5385740000000  0.5609000000000 1.0
C      1  0.5579420000000  0.5429140000000  0.4089160000000 1.0
C      1  0.4433900000000  0.4956110000000  0.3909670000000 1.0
C      1  0.5014250000000  0.3988750000000  0.5504730000000 1.0
C      1  0.5545510000000  0.4360650000000  0.5648380000000 1.0
C      1  0.5280760000000  0.4790310000000  0.4592590000000 1.0
C      1  0.5674860000000  0.5503600000000  0.4349780000000 1.0
C      1  0.5156900000000  0.5381490000000  0.5442840000000 1.0
C      1  0.5185200000000  0.5441960000000  0.4907060000000 1.0
C      1  0.6005230000000  0.5141670000000  0.5513440000000 1.0
C      1  0.4865310000000  0.5725360000000  0.5578390000000 1.0
C      1  0.4603250000000  0.5634400000000  0.6152200000000 1.0
C      1  0.5695710000000  0.4860790000000  0.5796370000000 1.0
C      1  0.4829860000000  0.4777410000000  0.4890130000000 1.0
C      1  0.4547390000000  0.4447320000000  0.5585410000000 1.0
C      1  0.5395020000000  0.5316370000000  0.3929370000000 1.0
C      1  0.5663890000000  0.4187260000000  0.5213380000000 1.0
C      1  0.4743790000000  0.4348980000000  0.4228330000000 1.0
C      1  0.4718180000000  0.5453640000000  0.5229580000000 1.0
C      1  0.4931820000000  0.4178100000000  0.4359930000000 1.0
C      1  0.4742280000000  0.4350120000000  0.5078450000000 1.0
C      1  0.5434340000000  0.3825250000000  0.4987060000000 1.0
C      1  0.5229350000000  0.4486120000000  0.4587410000000 1.0
C      1  0.3867970000000  0.5313900000000  0.5165940000000 1.0
C      1  0.4489240000000  0.4304720000000  0.4665110000000 1.0
C      1  0.5277900000000  0.5740500000000  0.4335050000000 1.0
C      1  0.4264240000000  0.5332170000000  0.4847870000000 1.0
C      1  0.4821340000000  0.5748600000000  0.4424440000000 1.0
C      1  0.5285410000000  0.3964660000000  0.5430620000000 1.0
C      1  0.5223550000000  0.4959110000000  0.5900390000000 1.0
C      1  0.4946770000000  0.5548510000000  0.5354780000000 1.0
C      1  0.4771990000000  0.5930200000000  0.5143560000000 1.0
C      1  0.4859340000000  0.5641710000000  0.6071140000000 1.0
C      1  0.4752460000000  0.4634650000000  0.5139290000000 1.0
END
