TITL C-612602-9376-244 0.000115209088148399 125000 -893.461208921948 0 0 144 (C1) n - 1
REM
REM in /home/nfs/bkarasulu/CARBON/AIRSS/Generating-Clusters/TERSOFF/Only-C1/FIRE-HFTN
REM
REM
REM
REM
REM
REM ./C.cell (11c1c37f851c82e70ff6c80c92926a4b)
REM AIRSS Version 0.9.1 bugfix July 2018 build 013d7b7c2542+ Fri, 06 Jul 2018 19:26:36 +0100
REM compiler GCC version 9.2.1 20190827 (Red Hat 9.2.1-1)
REM options -cpp -mtune=generic -march=x86-64 -g -O0 -fpre-include=/usr/include/finclude/math-vector-fortran.h
REM seed -1009372543 -34234744 -591005370 1614381047 -2050477897 451796986 -2031256553 316788501 981544992 -1024159491 -1894077845 -768456476 -1780026987 1163814225 -2128496605 -1999329070 -919101578 1348088103 1144786887 1555143521 393808768 -1305081982 -825086739 -1336719929 716792070 -1130310931 1333402427 391579497 -2040235029 -1741316043 16859611 -1048126426 -1561232464
REM
CELL 1.54180   50.00000   50.00000   50.00000   90.00000   90.00000   90.00000
LATT -1
SFAC C  
C      1  0.5579050000000  0.4792050000000  0.5865340000000 1.0
C      1  0.4490340000000  0.5475240000000  0.4383220000000 1.0
C      1  0.5356680000000  0.5214150000000  0.6034340000000 1.0
C      1  0.4580160000000  0.5424820000000  0.5481690000000 1.0
C      1  0.5102400000000  0.5592420000000  0.3961460000000 1.0
C      1  0.4801440000000  0.4911460000000  0.4674800000000 1.0
C      1  0.4744690000000  0.4619380000000  0.5389840000000 1.0
C      1  0.3958140000000  0.5158740000000  0.4902280000000 1.0
C      1  0.5165710000000  0.4640130000000  0.4557240000000 1.0
C      1  0.4048490000000  0.4742660000000  0.5196080000000 1.0
C      1  0.5355660000000  0.5848210000000  0.5609200000000 1.0
C      1  0.4680890000000  0.6008410000000  0.5442490000000 1.0
C      1  0.5127070000000  0.4471140000000  0.4299240000000 1.0
C      1  0.5099080000000  0.5765020000000  0.5694270000000 1.0
C      1  0.5436850000000  0.6083610000000  0.4631130000000 1.0
C      1  0.4870410000000  0.5921880000000  0.5618920000000 1.0
C      1  0.5756090000000  0.4713580000000  0.4329980000000 1.0
C      1  0.5084350000000  0.5483250000000  0.5753010000000 1.0
C      1  0.4297340000000  0.4244670000000  0.5555300000000 1.0
C      1  0.4833160000000  0.5431950000000  0.5365730000000 1.0
C      1  0.4806000000000  0.4896700000000  0.5395260000000 1.0
C      1  0.5912250000000  0.4419400000000  0.5275210000000 1.0
C      1  0.4415160000000  0.5157130000000  0.4858170000000 1.0
C      1  0.5853950000000  0.5206040000000  0.5277150000000 1.0
C      1  0.4374490000000  0.5455880000000  0.5297230000000 1.0
C      1  0.4965510000000  0.4453750000000  0.5464910000000 1.0
C      1  0.4733090000000  0.5019900000000  0.5159340000000 1.0
C      1  0.4218060000000  0.4721950000000  0.4727690000000 1.0
C      1  0.4929340000000  0.5607800000000  0.4411950000000 1.0
C      1  0.5296100000000  0.5287050000000  0.4875840000000 1.0
C      1  0.5750860000000  0.5374950000000  0.5744680000000 1.0
C      1  0.5359110000000  0.4377440000000  0.5170140000000 1.0
C      1  0.4452630000000  0.4593930000000  0.5838450000000 1.0
C      1  0.4182040000000  0.5012380000000  0.4754320000000 1.0
C      1  0.4949110000000  0.4649790000000  0.4755440000000 1.0
C      1  0.4213700000000  0.5688610000000  0.5368590000000 1.0
C      1  0.5036460000000  0.5081350000000  0.4543490000000 1.0
C      1  0.4577560000000  0.4857410000000  0.4470090000000 1.0
C      1  0.5580010000000  0.5872230000000  0.4538240000000 1.0
C      1  0.5279250000000  0.4907050000000  0.5462710000000 1.0
C      1  0.4949040000000  0.5359260000000  0.3860050000000 1.0
C      1  0.4605390000000  0.5271970000000  0.5964060000000 1.0
C      1  0.4808780000000  0.4773730000000  0.4088260000000 1.0
C      1  0.4582650000000  0.5953680000000  0.5169070000000 1.0
C      1  0.5522610000000  0.5634950000000  0.5172880000000 1.0
C      1  0.4425580000000  0.4622530000000  0.4533750000000 1.0
C      1  0.4166610000000  0.5130570000000  0.5818050000000 1.0
C      1  0.5328270000000  0.4560450000000  0.4093170000000 1.0
C      1  0.4611110000000  0.4986160000000  0.4199630000000 1.0
C      1  0.5624210000000  0.5109250000000  0.4067570000000 1.0
C      1  0.4898170000000  0.4434170000000  0.4966950000000 1.0
C      1  0.4828010000000  0.5839710000000  0.5035140000000 1.0
C      1  0.5893330000000  0.5186320000000  0.4471710000000 1.0
C      1  0.5530750000000  0.5767770000000  0.5421980000000 1.0
C      1  0.5384010000000  0.5522760000000  0.3936160000000 1.0
C      1  0.4680610000000  0.4173580000000  0.4588730000000 1.0
C      1  0.5032120000000  0.5028680000000  0.5518340000000 1.0
C      1  0.4336820000000  0.5364900000000  0.5035850000000 1.0
C      1  0.4408610000000  0.5047430000000  0.5965100000000 1.0
C      1  0.4862690000000  0.5178080000000  0.6041830000000 1.0
C      1  0.4977070000000  0.4083860000000  0.5764520000000 1.0
C      1  0.5306290000000  0.5738090000000  0.4990920000000 1.0
C      1  0.4451110000000  0.4028280000000  0.5514250000000 1.0
C      1  0.4107730000000  0.5742490000000  0.4927810000000 1.0
C      1  0.4269220000000  0.4993820000000  0.3816710000000 1.0
C      1  0.3868710000000  0.5106060000000  0.5414350000000 1.0
C      1  0.4084930000000  0.5633310000000  0.5615360000000 1.0
C      1  0.5526760000000  0.4955790000000  0.4691580000000 1.0
C      1  0.4995520000000  0.6201200000000  0.3994600000000 1.0
C      1  0.5016480000000  0.4881160000000  0.3925840000000 1.0
C      1  0.5138740000000  0.5130860000000  0.3884350000000 1.0
C      1  0.5668360000000  0.4336400000000  0.5713590000000 1.0
C      1  0.5038330000000  0.4354400000000  0.5717980000000 1.0
C      1  0.4499970000000  0.5084650000000  0.3926920000000 1.0
C      1  0.3903480000000  0.5003260000000  0.5145530000000 1.0
C      1  0.5645160000000  0.4277810000000  0.4587510000000 1.0
C      1  0.5782670000000  0.5003450000000  0.4279720000000 1.0
C      1  0.5404560000000  0.5232800000000  0.3945240000000 1.0
C      1  0.5492410000000  0.4516930000000  0.5833390000000 1.0
C      1  0.4647190000000  0.4499830000000  0.5134080000000 1.0
C      1  0.4715030000000  0.3855310000000  0.5141070000000 1.0
C      1  0.4285590000000  0.5866170000000  0.5142320000000 1.0
C      1  0.5757310000000  0.4913730000000  0.5681760000000 1.0
C      1  0.4619740000000  0.4413390000000  0.4436150000000 1.0
C      1  0.4941270000000  0.3942290000000  0.4993480000000 1.0
C      1  0.4934950000000  0.3892190000000  0.5562440000000 1.0
C      1  0.5787210000000  0.4545700000000  0.4581500000000 1.0
C      1  0.4071190000000  0.5444320000000  0.4931040000000 1.0
C      1  0.4530690000000  0.3946910000000  0.4551870000000 1.0
C      1  0.4123360000000  0.4720770000000  0.5488290000000 1.0
C      1  0.4500160000000  0.5437300000000  0.5756190000000 1.0
C      1  0.5892540000000  0.4661460000000  0.4833050000000 1.0
C      1  0.5118270000000  0.4760310000000  0.6007910000000 1.0
C      1  0.5503780000000  0.4619820000000  0.5136330000000 1.0
C      1  0.6091500000000  0.5072170000000  0.4640900000000 1.0
C      1  0.5231000000000  0.4197860000000  0.4362810000000 1.0
C      1  0.4664720000000  0.5045790000000  0.4896680000000 1.0
C      1  0.5005490000000  0.6035450000000  0.4211060000000 1.0
C      1  0.5588720000000  0.5697550000000  0.3899430000000 1.0
C      1  0.4677380000000  0.5285950000000  0.3815720000000 1.0
C      1  0.4388990000000  0.4431170000000  0.5062950000000 1.0
C      1  0.5158810000000  0.6095350000000  0.4704540000000 1.0
C      1  0.4994190000000  0.6135650000000  0.4478180000000 1.0
C      1  0.5024300000000  0.5315310000000  0.5529900000000 1.0
C      1  0.4574370000000  0.4807910000000  0.5971030000000 1.0
C      1  0.5204910000000  0.4509500000000  0.5882650000000 1.0
C      1  0.5306610000000  0.5551290000000  0.4773410000000 1.0
C      1  0.5164460000000  0.3828460000000  0.5400240000000 1.0
C      1  0.5532980000000  0.5598530000000  0.4586990000000 1.0
C      1  0.5221050000000  0.5059580000000  0.5029700000000 1.0
C      1  0.5089950000000  0.5935950000000  0.4938660000000 1.0
C      1  0.5201040000000  0.3924670000000  0.5133910000000 1.0
C      1  0.4178940000000  0.4597220000000  0.4984720000000 1.0
C      1  0.5278970000000  0.4906630000000  0.4552830000000 1.0
C      1  0.6028040000000  0.5037760000000  0.5123460000000 1.0
C      1  0.5807690000000  0.5166900000000  0.5559580000000 1.0
C      1  0.5185550000000  0.4134130000000  0.4638250000000 1.0
C      1  0.4036500000000  0.4976930000000  0.5615920000000 1.0
C      1  0.5682620000000  0.5371890000000  0.5108870000000 1.0
C      1  0.5589080000000  0.5219150000000  0.4839480000000 1.0
C      1  0.5099300000000  0.5330490000000  0.5991570000000 1.0
C      1  0.4859400000000  0.4880910000000  0.6030630000000 1.0
C      1  0.5584770000000  0.5365510000000  0.5958760000000 1.0
C      1  0.5364830000000  0.4930930000000  0.6008680000000 1.0
C      1  0.4916400000000  0.4167250000000  0.4788420000000 1.0
C      1  0.5027520000000  0.5751710000000  0.4185870000000 1.0
C      1  0.5847320000000  0.4316920000000  0.5514930000000 1.0
C      1  0.5090390000000  0.4412080000000  0.5209680000000 1.0
C      1  0.4202470000000  0.5424790000000  0.5771680000000 1.0
C      1  0.5356970000000  0.4863710000000  0.5194420000000 1.0
C      1  0.6042320000000  0.4908580000000  0.4866800000000 1.0
C      1  0.5524580000000  0.4183500000000  0.4335100000000 1.0
C      1  0.4934620000000  0.5311780000000  0.4412490000000 1.0
C      1  0.4276270000000  0.4517690000000  0.5627850000000 1.0
C      1  0.5713490000000  0.5372940000000  0.4602830000000 1.0
C      1  0.4858760000000  0.5568350000000  0.5124480000000 1.0
C      1  0.5593780000000  0.4597850000000  0.4124390000000 1.0
C      1  0.4664140000000  0.5259500000000  0.4309210000000 1.0
C      1  0.5778660000000  0.4572250000000  0.5079340000000 1.0
C      1  0.4681850000000  0.3896070000000  0.5420580000000 1.0
C      1  0.4830650000000  0.4521150000000  0.4238600000000 1.0
C      1  0.4652210000000  0.5679320000000  0.4477710000000 1.0
C      1  0.5406270000000  0.4121740000000  0.5055440000000 1.0
C      1  0.5447350000000  0.4152670000000  0.4778300000000 1.0
END
