TITL C-612607-4507-123 -0.00112530150860276 125000 -422.488479890552 0 0 71 (C1) n - 1
REM
REM in /home/nfs/bkarasulu/CARBON/AIRSS/Generating-Clusters/TERSOFF/Only-C1/FIRE-HFTN
REM
REM
REM
REM
REM
REM ./C.cell (11c1c37f851c82e70ff6c80c92926a4b)
REM AIRSS Version 0.9.1 bugfix July 2018 build 013d7b7c2542+ Fri, 06 Jul 2018 19:26:36 +0100
REM compiler GCC version 9.2.1 20190827 (Red Hat 9.2.1-1)
REM options -cpp -mtune=generic -march=x86-64 -g -O0 -fpre-include=/usr/include/finclude/math-vector-fortran.h
REM seed 632040245 946519627 -1618904515 -918311539 1184357421 33634034 1045193852 -915105450 705546969 83641109 -1240990561 -1889251007 -1771880921 1965217674 -1049412900 -1929214325 640870049 -1210276221 -1767286915 2071224846 -1810673228 1077298823 1252068704 -293937370 -744075961 -2067522686 -1165085568 509403433 -159828018 -1904598878 38424964 -1651925624 -188990071
REM
CELL 1.54180   50.00000   50.00000   50.00000   90.00000   90.00000   90.00000
LATT -1
SFAC C  
C      1  0.4938210000000  0.4782440000000  0.4562740000000 1.0
C      1  0.4948020000000  0.4996540000000  0.5549000000000 1.0
C      1  0.4388310000000  0.5263340000000  0.4837800000000 1.0
C      1  0.5369260000000  0.5553250000000  0.5460820000000 1.0
C      1  0.4524060000000  0.4991510000000  0.4453260000000 1.0
C      1  0.5143230000000  0.5864920000000  0.5074730000000 1.0
C      1  0.5347820000000  0.4201800000000  0.5326900000000 1.0
C      1  0.4587500000000  0.4475700000000  0.4471300000000 1.0
C      1  0.4425870000000  0.4718910000000  0.4507930000000 1.0
C      1  0.4953600000000  0.4302990000000  0.5117610000000 1.0
C      1  0.4800210000000  0.5705060000000  0.4640730000000 1.0
C      1  0.3972400000000  0.4590210000000  0.4640570000000 1.0
C      1  0.5441400000000  0.4599430000000  0.5683280000000 1.0
C      1  0.4275720000000  0.4811540000000  0.4955670000000 1.0
C      1  0.5548120000000  0.4383530000000  0.4754110000000 1.0
C      1  0.5730920000000  0.4781800000000  0.5028900000000 1.0
C      1  0.5604840000000  0.5246290000000  0.5155950000000 1.0
C      1  0.4674470000000  0.5029140000000  0.5516830000000 1.0
C      1  0.5366390000000  0.5120530000000  0.5722550000000 1.0
C      1  0.4704030000000  0.5457180000000  0.4508150000000 1.0
C      1  0.4538330000000  0.4237150000000  0.5427590000000 1.0
C      1  0.5103860000000  0.5460210000000  0.3902240000000 1.0
C      1  0.5409320000000  0.6251290000000  0.5623160000000 1.0
C      1  0.5353320000000  0.4339730000000  0.5569890000000 1.0
C      1  0.5039910000000  0.5769490000000  0.4809630000000 1.0
C      1  0.5351750000000  0.6040340000000  0.5481400000000 1.0
C      1  0.4214390000000  0.4700800000000  0.4700500000000 1.0
C      1  0.4294450000000  0.4683460000000  0.5447640000000 1.0
C      1  0.4171520000000  0.4721440000000  0.5198050000000 1.0
C      1  0.5031500000000  0.5365190000000  0.4986460000000 1.0
C      1  0.5617330000000  0.4652180000000  0.4790200000000 1.0
C      1  0.4412550000000  0.5618520000000  0.5192250000000 1.0
C      1  0.5625100000000  0.4688350000000  0.5487280000000 1.0
C      1  0.4474990000000  0.5271530000000  0.4567210000000 1.0
C      1  0.5023210000000  0.4821860000000  0.5767980000000 1.0
C      1  0.5366830000000  0.5309240000000  0.5295850000000 1.0
C      1  0.4752080000000  0.4962030000000  0.4949800000000 1.0
C      1  0.5529970000000  0.4713430000000  0.5226940000000 1.0
C      1  0.4842490000000  0.4709140000000  0.4841470000000 1.0
C      1  0.5199190000000  0.5123170000000  0.5457980000000 1.0
C      1  0.5148780000000  0.4624950000000  0.4441620000000 1.0
C      1  0.4441240000000  0.4902150000000  0.5544570000000 1.0
C      1  0.4881640000000  0.5275620000000  0.4355440000000 1.0
C      1  0.4743850000000  0.4196660000000  0.5263010000000 1.0
C      1  0.5423210000000  0.5418360000000  0.5731800000000 1.0
C      1  0.5622720000000  0.5096480000000  0.4697810000000 1.0
C      1  0.4809450000000  0.4315710000000  0.4516850000000 1.0
C      1  0.5012450000000  0.5361520000000  0.4125510000000 1.0
C      1  0.5504730000000  0.5235390000000  0.4480270000000 1.0
C      1  0.5285810000000  0.5808550000000  0.5333280000000 1.0
C      1  0.4366950000000  0.4421590000000  0.5517120000000 1.0
C      1  0.4473420000000  0.5019360000000  0.4959510000000 1.0
C      1  0.5310470000000  0.4828980000000  0.5808360000000 1.0
C      1  0.5246710000000  0.4716880000000  0.5121180000000 1.0
C      1  0.5178860000000  0.5513780000000  0.4790350000000 1.0
C      1  0.4699360000000  0.5739400000000  0.5562440000000 1.0
C      1  0.5347070000000  0.5449630000000  0.4575030000000 1.0
C      1  0.5233680000000  0.4926480000000  0.4917310000000 1.0
C      1  0.5290100000000  0.4259620000000  0.4778200000000 1.0
C      1  0.5737580000000  0.5080140000000  0.4967470000000 1.0
C      1  0.4303500000000  0.5478200000000  0.4992480000000 1.0
C      1  0.5434310000000  0.4868840000000  0.4720270000000 1.0
C      1  0.4991620000000  0.4574680000000  0.5053710000000 1.0
C      1  0.4870450000000  0.5487240000000  0.5184640000000 1.0
C      1  0.5322960000000  0.4785630000000  0.4279450000000 1.0
C      1  0.5213990000000  0.4189320000000  0.5061540000000 1.0
C      1  0.4662830000000  0.5620840000000  0.5319620000000 1.0
C      1  0.5099890000000  0.4351590000000  0.4560390000000 1.0
C      1  0.5006070000000  0.5096700000000  0.4953240000000 1.0
C      1  0.4815740000000  0.4998340000000  0.4417940000000 1.0
C      1  0.5424080000000  0.5042720000000  0.4277240000000 1.0
END
