TITL C-612602-9376-1188 691.120159397401 125000 -1140.7446263661 0 0 187 (C1) n - 1
REM
REM in /home/nfs/bkarasulu/CARBON/AIRSS/Generating-Clusters/TERSOFF/Only-C1/FIRE-HFTN
REM
REM
REM
REM
REM
REM ./C.cell (11c1c37f851c82e70ff6c80c92926a4b)
REM AIRSS Version 0.9.1 bugfix July 2018 build 013d7b7c2542+ Fri, 06 Jul 2018 19:26:36 +0100
REM compiler GCC version 9.2.1 20190827 (Red Hat 9.2.1-1)
REM options -cpp -mtune=generic -march=x86-64 -g -O0 -fpre-include=/usr/include/finclude/math-vector-fortran.h
REM seed 1270297901 16989073 -822819734 801051933 115271605 -305156280 575278688 1513157393 574298592 -98081312 -764239296 -1478088673 -989404286 1048465001 -1225676728 -331346043 1431852235 -1839707403 -552357391 -1628569434 1950492038 44357411 1938549309 -1202269991 1236586226 322383833 -1948896080 1654934571 -1909764459 -1023092486 161644547 -439107639 -2030254806
REM
CELL 1.54180   50.00000   50.00000   50.00000   90.00000   90.00000   90.00000
LATT -1
SFAC C  
C      1  0.2598620000000  0.4233190000000  0.4149410000000 1.0
C      1  0.5966670000000  0.4331510000000  0.4785710000000 1.0
C      1  0.5818670000000  0.4494720000000  0.5776310000000 1.0
C      1  0.4193760000000  0.4534030000000  0.5348070000000 1.0
C      1  0.4336270000000  0.4431440000000  0.6968900000000 1.0
C      1  0.5654410000000  0.4922710000000  0.4453970000000 1.0
C      1  0.4886480000000  0.4955020000000  0.3882840000000 1.0
C      1  0.5055030000000  0.4712880000000  0.3888310000000 1.0
C      1  0.4769410000000  0.4082070000000  0.5692060000000 1.0
C      1  0.4916280000000  0.4447740000000  0.5233570000000 1.0
C      1  0.4726590000000  0.4328250000000  0.5788570000000 1.0
C      1  0.6368650000000  0.5380460000000  0.4559000000000 1.0
C      1  0.4607700000000  0.4328050000000  0.4892040000000 1.0
C      1  0.4906280000000  0.5498580000000  0.4933770000000 1.0
C      1  0.5453170000000  0.5029340000000  0.3967750000000 1.0
C      1  0.4293340000000  0.4787060000000  0.6264100000000 1.0
C      1  0.4237720000000  0.4482530000000  0.4000590000000 1.0
C      1  0.3997570000000  0.4467250000000  0.5116180000000 1.0
C      1  0.5358210000000  0.4126150000000  0.5600070000000 1.0
C      1  0.5730300000000  0.5782930000000  0.5005070000000 1.0
C      1  0.5177200000000  0.4762680000000  0.5943480000000 1.0
C      1  0.5576560000000  0.6084670000000  0.5435570000000 1.0
C      1  0.6252090000000  0.5360380000000  0.4816110000000 1.0
C      1  0.4307630000000  0.4668720000000  0.6500610000000 1.0
C      1  0.4409800000000  0.5747420000000  0.5545330000000 1.0
C      1  0.5846570000000  0.4379700000000  0.5490260000000 1.0
C      1  0.5514110000000  0.5869700000000  0.4843440000000 1.0
C      1  0.6192660000000  0.5120530000000  0.5616590000000 1.0
C      1  0.5611990000000  0.4908010000000  0.5378150000000 1.0
C      1  0.6344450000000  0.5187240000000  0.5016020000000 1.0
C      1  0.4808860000000  0.3932640000000  0.5472510000000 1.0
C      1  0.5298290000000  0.4164650000000  0.4648570000000 1.0
C      1  0.6002280000000  0.4600040000000  0.4264740000000 1.0
C      1  0.5126560000000  0.5828340000000  0.5692960000000 1.0
C      1  0.4546610000000  0.5979490000000  0.5164390000000 1.0
C      1  0.5669990000000  0.5560750000000  0.4446620000000 1.0
C      1  0.5288430000000  0.4792300000000  0.4030270000000 1.0
C      1  0.5826890000000  0.5346630000000  0.4595810000000 1.0
C      1  0.3874470000000  0.4551710000000  0.4403090000000 1.0
C      1  0.4677900000000  0.5292420000000  0.5003180000000 1.0
C      1  0.4973810000000  0.4710410000000  0.4406570000000 1.0
C      1  0.4995680000000  0.4685850000000  0.4856430000000 1.0
C      1  0.5869200000000  0.4756820000000  0.4068740000000 1.0
C      1  0.4369910000000  0.5112780000000  0.4568180000000 1.0
C      1  0.4098610000000  0.4783320000000  0.5819130000000 1.0
C      1  0.5387560000000  0.4330570000000  0.5791840000000 1.0
C      1  0.4461470000000  0.5122140000000  0.5954540000000 1.0
C      1  0.3611160000000  0.4472180000000  0.4351460000000 1.0
C      1  0.3897440000000  0.5619650000000  0.5211800000000 1.0
C      1  0.5591940000000  0.5336180000000  0.5120970000000 1.0
C      1  0.4141240000000  0.4774720000000  0.5539620000000 1.0
C      1  0.2348750000000  0.4179410000000  0.4097990000000 1.0
C      1  0.4269280000000  0.4262040000000  0.5431020000000 1.0
C      1  0.4322070000000  0.4549050000000  0.6736660000000 1.0
C      1  0.4772820000000  0.5942920000000  0.4711520000000 1.0
C      1  0.4971220000000  0.5579450000000  0.4434130000000 1.0
C      1  0.5743890000000  0.5000810000000  0.3978120000000 1.0
C      1  0.5500950000000  0.3835670000000  0.4933540000000 1.0
C      1  0.3858810000000  0.4676790000000  0.5917860000000 1.0
C      1  0.5703140000000  0.4182720000000  0.6158110000000 1.0
C      1  0.5073050000000  0.3977560000000  0.5064640000000 1.0
C      1  0.6117600000000  0.4699340000000  0.4510880000000 1.0
C      1  0.5205330000000  0.4477410000000  0.5276330000000 1.0
C      1  0.4905300000000  0.5758760000000  0.4201350000000 1.0
C      1  0.4357780000000  0.4080360000000  0.5250150000000 1.0
C      1  0.3983290000000  0.5587730000000  0.5698660000000 1.0
C      1  0.4382980000000  0.5305960000000  0.5742110000000 1.0
C      1  0.4552680000000  0.5523920000000  0.4585420000000 1.0
C      1  0.5458420000000  0.5680230000000  0.4623040000000 1.0
C      1  0.4171290000000  0.5262990000000  0.4743370000000 1.0
C      1  0.4879680000000  0.5714190000000  0.5783780000000 1.0
C      1  0.5207720000000  0.4284670000000  0.4108240000000 1.0
C      1  0.5649620000000  0.4759910000000  0.5136410000000 1.0
C      1  0.4062880000000  0.4539810000000  0.4194190000000 1.0
C      1  0.4055450000000  0.5060180000000  0.4911840000000 1.0
C      1  0.4467250000000  0.5015410000000  0.3548830000000 1.0
C      1  0.5109590000000  0.5727640000000  0.4002280000000 1.0
C      1  0.4938690000000  0.5429730000000  0.5852830000000 1.0
C      1  0.6602600000000  0.4531690000000  0.5653530000000 1.0
C      1  0.5983460000000  0.4197100000000  0.4529810000000 1.0
C      1  0.5013900000000  0.5574060000000  0.5275480000000 1.0
C      1  0.4668130000000  0.5031080000000  0.4893110000000 1.0
C      1  0.4476200000000  0.4408850000000  0.3901580000000 1.0
C      1  0.5978840000000  0.5433560000000  0.4826150000000 1.0
C      1  0.4320220000000  0.5688410000000  0.4578790000000 1.0
C      1  0.6472660000000  0.4732940000000  0.5550920000000 1.0
C      1  0.5508770000000  0.4764990000000  0.5600310000000 1.0
C      1  0.5144780000000  0.6167170000000  0.4438230000000 1.0
C      1  0.5003340000000  0.6147560000000  0.5268640000000 1.0
C      1  0.4671400000000  0.4980320000000  0.3706980000000 1.0
C      1  0.3834030000000  0.5597670000000  0.5473330000000 1.0
C      1  0.4568780000000  0.5278910000000  0.4435550000000 1.0
C      1  0.3637710000000  0.4572040000000  0.6007600000000 1.0
C      1  0.4817550000000  0.3959820000000  0.5189690000000 1.0
C      1  0.5308640000000  0.6232680000000  0.5995320000000 1.0
C      1  0.4483330000000  0.4892650000000  0.4717180000000 1.0
C      1  0.5334800000000  0.3896280000000  0.5157560000000 1.0
C      1  0.4392400000000  0.5213000000000  0.5466550000000 1.0
C      1  0.3106010000000  0.4345860000000  0.4253520000000 1.0
C      1  0.4763750000000  0.6021990000000  0.5362740000000 1.0
C      1  0.5751030000000  0.4235330000000  0.4952010000000 1.0
C      1  0.5000590000000  0.4430510000000  0.3939590000000 1.0
C      1  0.4827580000000  0.4849070000000  0.5022220000000 1.0
C      1  0.5575380000000  0.5672820000000  0.4180120000000 1.0
C      1  0.5642030000000  0.4320130000000  0.5932720000000 1.0
C      1  0.5972990000000  0.4317270000000  0.4285030000000 1.0
C      1  0.5792990000000  0.5057650000000  0.4655700000000 1.0
C      1  0.4726270000000  0.4300940000000  0.4291810000000 1.0
C      1  0.5397350000000  0.4598830000000  0.5101390000000 1.0
C      1  0.6291090000000  0.4948090000000  0.5155160000000 1.0
C      1  0.5310100000000  0.5246280000000  0.4388130000000 1.0
C      1  0.5922440000000  0.5220370000000  0.3976080000000 1.0
C      1  0.5365780000000  0.6129580000000  0.4288830000000 1.0
C      1  0.3871940000000  0.4892960000000  0.4772810000000 1.0
C      1  0.4801420000000  0.5647830000000  0.4680190000000 1.0
C      1  0.5238570000000  0.6039000000000  0.5835500000000 1.0
C      1  0.4993130000000  0.6113210000000  0.4670440000000 1.0
C      1  0.5382670000000  0.4975980000000  0.4437120000000 1.0
C      1  0.4806400000000  0.5274650000000  0.4286140000000 1.0
C      1  0.5552880000000  0.5961180000000  0.4188550000000 1.0
C      1  0.4265590000000  0.5569820000000  0.5719070000000 1.0
C      1  0.4579490000000  0.6034230000000  0.4893830000000 1.0
C      1  0.4761040000000  0.4547850000000  0.4425050000000 1.0
C      1  0.5163050000000  0.5396870000000  0.4837610000000 1.0
C      1  0.4631120000000  0.5862590000000  0.4208970000000 1.0
C      1  0.4728910000000  0.4348660000000  0.4005810000000 1.0
C      1  0.4405210000000  0.4574090000000  0.4862010000000 1.0
C      1  0.4578930000000  0.4088660000000  0.5072740000000 1.0
C      1  0.5476190000000  0.4060710000000  0.5351130000000 1.0
C      1  0.5226050000000  0.4784250000000  0.4312370000000 1.0
C      1  0.5713850000000  0.4224790000000  0.5261860000000 1.0
C      1  0.4678510000000  0.5849800000000  0.5606240000000 1.0
C      1  0.6102730000000  0.4587480000000  0.4778840000000 1.0
C      1  0.4388420000000  0.5859230000000  0.4350100000000 1.0
C      1  0.5365140000000  0.5255360000000  0.4961480000000 1.0
C      1  0.4143730000000  0.5666580000000  0.5074760000000 1.0
C      1  0.2852500000000  0.4288600000000  0.4201730000000 1.0
C      1  0.4816730000000  0.5424810000000  0.5404860000000 1.0
C      1  0.4221820000000  0.4955690000000  0.5121230000000 1.0
C      1  0.4904420000000  0.4405680000000  0.4918090000000 1.0
C      1  0.5273250000000  0.5265680000000  0.4077950000000 1.0
C      1  0.5111190000000  0.6169580000000  0.4912400000000 1.0
C      1  0.5183670000000  0.4157140000000  0.4377140000000 1.0
C      1  0.5801690000000  0.5514460000000  0.5030770000000 1.0
C      1  0.3359080000000  0.4406430000000  0.4303630000000 1.0
C      1  0.4710830000000  0.4690330000000  0.5257750000000 1.0
C      1  0.5732680000000  0.5253960000000  0.5825250000000 1.0
C      1  0.4940720000000  0.5004210000000  0.5550970000000 1.0
C      1  0.4200590000000  0.5022570000000  0.5393040000000 1.0
C      1  0.4897110000000  0.4092920000000  0.4383000000000 1.0
C      1  0.4758890000000  0.4785740000000  0.5538580000000 1.0
C      1  0.5301390000000  0.4604990000000  0.5739680000000 1.0
C      1  0.3941000000000  0.4640190000000  0.4663540000000 1.0
C      1  0.6208590000000  0.4724980000000  0.5000510000000 1.0
C      1  0.4959500000000  0.5177700000000  0.4065840000000 1.0
C      1  0.4721300000000  0.5117670000000  0.6094460000000 1.0
C      1  0.5395400000000  0.4993980000000  0.4863710000000 1.0
C      1  0.5264030000000  0.4745830000000  0.4887420000000 1.0
C      1  0.5706510000000  0.4774690000000  0.5817300000000 1.0
C      1  0.4107930000000  0.4498700000000  0.4845180000000 1.0
C      1  0.4998260000000  0.5218010000000  0.6049480000000 1.0
C      1  0.5224200000000  0.5673470000000  0.5460880000000 1.0
C      1  0.5684520000000  0.4929780000000  0.4899100000000 1.0
C      1  0.6316460000000  0.4937520000000  0.5440160000000 1.0
C      1  0.4585180000000  0.5322060000000  0.5277670000000 1.0
C      1  0.5157740000000  0.4980280000000  0.5388050000000 1.0
C      1  0.5500480000000  0.5616930000000  0.5535430000000 1.0
C      1  0.4713030000000  0.4590990000000  0.5737460000000 1.0
C      1  0.5246070000000  0.5034110000000  0.6019080000000 1.0
C      1  0.5601220000000  0.5361130000000  0.5595210000000 1.0
C      1  0.5617690000000  0.5193980000000  0.5366360000000 1.0
C      1  0.5548540000000  0.4081020000000  0.4786790000000 1.0
C      1  0.5344190000000  0.5556580000000  0.4031390000000 1.0
C      1  0.5367260000000  0.6125910000000  0.5259550000000 1.0
C      1  0.6014440000000  0.5227990000000  0.5787030000000 1.0
C      1  0.4344180000000  0.5793160000000  0.5254210000000 1.0
C      1  0.6307250000000  0.5370280000000  0.4297680000000 1.0
C      1  0.5224250000000  0.5483860000000  0.4559610000000 1.0
C      1  0.5600620000000  0.5029160000000  0.5955250000000 1.0
C      1  0.4410610000000  0.4677650000000  0.5162760000000 1.0
C      1  0.4283560000000  0.4900090000000  0.6007060000000 1.0
C      1  0.5376610000000  0.6086760000000  0.4967840000000 1.0
C      1  0.5086560000000  0.4178890000000  0.4853890000000 1.0
C      1  0.4892740000000  0.5271200000000  0.5620220000000 1.0
C      1  0.5659430000000  0.5851090000000  0.5543290000000 1.0
C      1  0.4167930000000  0.5559650000000  0.4795840000000 1.0
C      1  0.6138260000000  0.5327480000000  0.4094230000000 1.0
END
