TITL C-612602-9376-1132 0.499223928888222 125000 -519.106539208276 0 0 86 (C1) n - 1
REM
REM in /home/nfs/bkarasulu/CARBON/AIRSS/Generating-Clusters/TERSOFF/Only-C1/FIRE-HFTN
REM
REM
REM
REM
REM
REM ./C.cell (11c1c37f851c82e70ff6c80c92926a4b)
REM AIRSS Version 0.9.1 bugfix July 2018 build 013d7b7c2542+ Fri, 06 Jul 2018 19:26:36 +0100
REM compiler GCC version 9.2.1 20190827 (Red Hat 9.2.1-1)
REM options -cpp -mtune=generic -march=x86-64 -g -O0 -fpre-include=/usr/include/finclude/math-vector-fortran.h
REM seed 651475213 -1886559240 -925006147 1764033049 -2069837505 -224285307 -996476377 -2095027878 -269106648 294611116 -1706667993 -899162968 -2138766279 809701610 782834492 892448185 -580213876 -221139767 -344809974 -1915248250 820402949 1034490474 -491408452 1730141558 1780657155 1299105739 -627494617 -1838958662 -1189243692 -85624602 1309437441 566032090 -1667434193
REM
CELL 1.54180   50.00000   50.00000   50.00000   90.00000   90.00000   90.00000
LATT -1
SFAC C  
C      1  0.5750540000000  0.4654230000000  0.5579920000000 1.0
C      1  0.5482840000000  0.4788820000000  0.4138060000000 1.0
C      1  0.5865990000000  0.5128070000000  0.5400830000000 1.0
C      1  0.5214840000000  0.5043810000000  0.4691700000000 1.0
C      1  0.5854150000000  0.5318270000000  0.4839330000000 1.0
C      1  0.5636530000000  0.5734230000000  0.4796480000000 1.0
C      1  0.4833310000000  0.4524420000000  0.5860060000000 1.0
C      1  0.5499060000000  0.5053080000000  0.4248010000000 1.0
C      1  0.5345690000000  0.5732810000000  0.4409070000000 1.0
C      1  0.5602780000000  0.5241170000000  0.5367190000000 1.0
C      1  0.4123550000000  0.5401300000000  0.4564750000000 1.0
C      1  0.5211160000000  0.5932290000000  0.4845780000000 1.0
C      1  0.4242820000000  0.4582150000000  0.4311110000000 1.0
C      1  0.4465130000000  0.4449340000000  0.5232720000000 1.0
C      1  0.5867390000000  0.5193480000000  0.4603180000000 1.0
C      1  0.3653440000000  0.4371430000000  0.6218090000000 1.0
C      1  0.4909370000000  0.4958880000000  0.6136490000000 1.0
C      1  0.5497550000000  0.4678550000000  0.5702740000000 1.0
C      1  0.5444080000000  0.4557220000000  0.4301770000000 1.0
C      1  0.5383380000000  0.5096580000000  0.5482340000000 1.0
C      1  0.5026640000000  0.4817230000000  0.5282650000000 1.0
C      1  0.4975880000000  0.5380180000000  0.5879680000000 1.0
C      1  0.5333070000000  0.5074870000000  0.5963760000000 1.0
C      1  0.4867970000000  0.4701510000000  0.6074460000000 1.0
C      1  0.4223410000000  0.4635560000000  0.4828110000000 1.0
C      1  0.5702390000000  0.5518550000000  0.4965830000000 1.0
C      1  0.4887430000000  0.4927050000000  0.4327510000000 1.0
C      1  0.5305170000000  0.5515100000000  0.4258960000000 1.0
C      1  0.5418420000000  0.4952060000000  0.5727760000000 1.0
C      1  0.4937210000000  0.5286550000000  0.5400620000000 1.0
C      1  0.5012470000000  0.5465690000000  0.5613180000000 1.0
C      1  0.5155180000000  0.4422170000000  0.4960390000000 1.0
C      1  0.4565170000000  0.5570270000000  0.5266190000000 1.0
C      1  0.5122770000000  0.5071530000000  0.5368740000000 1.0
C      1  0.5433470000000  0.4790640000000  0.5043860000000 1.0
C      1  0.4634330000000  0.5159600000000  0.5013340000000 1.0
C      1  0.5072000000000  0.5161150000000  0.6029890000000 1.0
C      1  0.4588680000000  0.4886960000000  0.5078670000000 1.0
C      1  0.5186090000000  0.4444210000000  0.4320080000000 1.0
C      1  0.3880850000000  0.4413730000000  0.6097840000000 1.0
C      1  0.4518700000000  0.4610120000000  0.4274480000000 1.0
C      1  0.5042860000000  0.4374880000000  0.5731210000000 1.0
C      1  0.4565410000000  0.4185430000000  0.5226450000000 1.0
C      1  0.4775470000000  0.4672390000000  0.4360040000000 1.0
C      1  0.4595740000000  0.4600240000000  0.5448880000000 1.0
C      1  0.5539920000000  0.4699010000000  0.3339920000000 1.0
C      1  0.5215390000000  0.5645960000000  0.5537510000000 1.0
C      1  0.5418320000000  0.4967290000000  0.4843590000000 1.0
C      1  0.5258590000000  0.5864430000000  0.5114680000000 1.0
C      1  0.4112060000000  0.4456730000000  0.5975580000000 1.0
C      1  0.4361670000000  0.5342290000000  0.4652620000000 1.0
C      1  0.4151530000000  0.4604680000000  0.4574510000000 1.0
C      1  0.4778310000000  0.4092800000000  0.5367810000000 1.0
C      1  0.4436900000000  0.5796550000000  0.5282050000000 1.0
C      1  0.5200000000000  0.4651820000000  0.5127060000000 1.0
C      1  0.4584750000000  0.4541910000000  0.5721430000000 1.0
C      1  0.4738020000000  0.6138100000000  0.4692960000000 1.0
C      1  0.4983840000000  0.6068660000000  0.4763240000000 1.0
C      1  0.4220680000000  0.6159430000000  0.4583300000000 1.0
C      1  0.5362230000000  0.5677170000000  0.5298080000000 1.0
C      1  0.5404680000000  0.5826810000000  0.4666170000000 1.0
C      1  0.5051800000000  0.5136980000000  0.4458360000000 1.0
C      1  0.5563210000000  0.5484010000000  0.5216510000000 1.0
C      1  0.4480870000000  0.6162560000000  0.4633780000000 1.0
C      1  0.3907690000000  0.4491970000000  0.3898900000000 1.0
C      1  0.4411600000000  0.4656490000000  0.5030160000000 1.0
C      1  0.3964600000000  0.6147710000000  0.4535920000000 1.0
C      1  0.4069760000000  0.4535210000000  0.4098370000000 1.0
C      1  0.5506040000000  0.4756630000000  0.3861270000000 1.0
C      1  0.4613420000000  0.5272120000000  0.4751480000000 1.0
C      1  0.5738440000000  0.5121060000000  0.4381250000000 1.0
C      1  0.4963040000000  0.4426910000000  0.4751320000000 1.0
C      1  0.5626600000000  0.4446280000000  0.4486650000000 1.0
C      1  0.4959650000000  0.4169790000000  0.5552460000000 1.0
C      1  0.5887560000000  0.4851240000000  0.5456450000000 1.0
C      1  0.5523210000000  0.4727490000000  0.3598520000000 1.0
C      1  0.4715000000000  0.5336370000000  0.5228070000000 1.0
C      1  0.4343030000000  0.4499570000000  0.5853260000000 1.0
C      1  0.4842320000000  0.5311700000000  0.4589190000000 1.0
C      1  0.6089610000000  0.5285830000000  0.5398750000000 1.0
C      1  0.4749860000000  0.4789120000000  0.5302450000000 1.0
C      1  0.5392200000000  0.4274970000000  0.4899010000000 1.0
C      1  0.5307020000000  0.4474550000000  0.5737280000000 1.0
C      1  0.5588440000000  0.4310970000000  0.4717080000000 1.0
C      1  0.4953410000000  0.4483570000000  0.4474150000000 1.0
C      1  0.5274360000000  0.5235490000000  0.4276660000000 1.0
END
