TITL C-612603-7354-709 0.0604475511644996 125000 -406.961367762523 0 0 68 (C1) n - 1
REM
REM in /home/nfs/bkarasulu/CARBON/AIRSS/Generating-Clusters/TERSOFF/Only-C1/FIRE-HFTN
REM
REM
REM
REM
REM
REM ./C.cell (11c1c37f851c82e70ff6c80c92926a4b)
REM AIRSS Version 0.9.1 bugfix July 2018 build 013d7b7c2542+ Fri, 06 Jul 2018 19:26:36 +0100
REM compiler GCC version 9.2.1 20190827 (Red Hat 9.2.1-1)
REM options -cpp -mtune=generic -march=x86-64 -g -O0 -fpre-include=/usr/include/finclude/math-vector-fortran.h
REM seed -155001369 -2095086803 1464258815 668289749 -411837446 -374066367 -1419602540 966959052 1136351573 -2036089854 -920993860 -1346482797 -417463628 96676832 972957415 -1840302584 -879391919 806933028 778799195 970577098 -1632373270 -1830563345 -1386008852 -1295531989 99505735 1084768596 -1374556613 -677481587 -318778978 -1264807537 -1459539809 -1848451442 -1744727831
REM
CELL 1.54180   50.00000   50.00000   50.00000   90.00000   90.00000   90.00000
LATT -1
SFAC C  
C      1  0.5107140000000  0.4654310000000  0.5088760000000 1.0
C      1  0.4743900000000  0.4743350000000  0.4314030000000 1.0
C      1  0.4441130000000  0.4918140000000  0.5867590000000 1.0
C      1  0.5107460000000  0.4904880000000  0.5498440000000 1.0
C      1  0.5060210000000  0.4931000000000  0.5033610000000 1.0
C      1  0.4932990000000  0.5042870000000  0.6271340000000 1.0
C      1  0.4612220000000  0.4603920000000  0.5526110000000 1.0
C      1  0.4354800000000  0.5630400000000  0.4345200000000 1.0
C      1  0.6196690000000  0.4318810000000  0.4254570000000 1.0
C      1  0.5584970000000  0.5488650000000  0.4521070000000 1.0
C      1  0.5014860000000  0.6001600000000  0.4908080000000 1.0
C      1  0.4705270000000  0.5171060000000  0.6205920000000 1.0
C      1  0.4217940000000  0.5514070000000  0.5322250000000 1.0
C      1  0.4809270000000  0.4539630000000  0.4473240000000 1.0
C      1  0.5276640000000  0.5263300000000  0.5777450000000 1.0
C      1  0.5489180000000  0.4112260000000  0.4964850000000 1.0
C      1  0.5498950000000  0.5362150000000  0.4286190000000 1.0
C      1  0.4471650000000  0.5519840000000  0.4846320000000 1.0
C      1  0.4979410000000  0.5352640000000  0.5259420000000 1.0
C      1  0.4541750000000  0.5668360000000  0.4157440000000 1.0
C      1  0.4997270000000  0.5047920000000  0.4791460000000 1.0
C      1  0.4984050000000  0.6138770000000  0.4681000000000 1.0
C      1  0.4969330000000  0.5451270000000  0.4227830000000 1.0
C      1  0.4822640000000  0.5687270000000  0.4165780000000 1.0
C      1  0.4939840000000  0.4442380000000  0.4684200000000 1.0
C      1  0.5889560000000  0.4105120000000  0.4704450000000 1.0
C      1  0.4339880000000  0.5579010000000  0.4606340000000 1.0
C      1  0.5647870000000  0.5151020000000  0.4180460000000 1.0
C      1  0.4883520000000  0.4577450000000  0.6163620000000 1.0
C      1  0.5781210000000  0.4921960000000  0.4168940000000 1.0
C      1  0.5445360000000  0.4621810000000  0.5935950000000 1.0
C      1  0.4925670000000  0.5538880000000  0.5053350000000 1.0
C      1  0.5373490000000  0.5685820000000  0.4945520000000 1.0
C      1  0.4933360000000  0.5940100000000  0.4216690000000 1.0
C      1  0.5347570000000  0.4464260000000  0.5488840000000 1.0
C      1  0.5729320000000  0.4001600000000  0.4899050000000 1.0
C      1  0.5891930000000  0.4688320000000  0.4228060000000 1.0
C      1  0.4550800000000  0.4668370000000  0.5795480000000 1.0
C      1  0.4337310000000  0.4824670000000  0.4837310000000 1.0
C      1  0.4842840000000  0.5248060000000  0.4382590000000 1.0
C      1  0.5208130000000  0.4999210000000  0.5747670000000 1.0
C      1  0.5567530000000  0.4445660000000  0.4636260000000 1.0
C      1  0.4853990000000  0.4186430000000  0.5474670000000 1.0
C      1  0.4331100000000  0.5522700000000  0.5087640000000 1.0
C      1  0.4852520000000  0.4461310000000  0.5469160000000 1.0
C      1  0.4674350000000  0.4522010000000  0.6003540000000 1.0
C      1  0.5104570000000  0.4607360000000  0.5392680000000 1.0
C      1  0.5049490000000  0.5082440000000  0.5277600000000 1.0
C      1  0.5817990000000  0.4336850000000  0.4554480000000 1.0
C      1  0.5245290000000  0.5427210000000  0.4185370000000 1.0
C      1  0.4973090000000  0.6113710000000  0.4415570000000 1.0
C      1  0.5972010000000  0.4446450000000  0.4344640000000 1.0
C      1  0.5389130000000  0.4344660000000  0.4834910000000 1.0
C      1  0.5139120000000  0.4465250000000  0.4881240000000 1.0
C      1  0.4747790000000  0.5452360000000  0.4843650000000 1.0
C      1  0.5249960000000  0.4821850000000  0.5968970000000 1.0
C      1  0.4278820000000  0.4782420000000  0.5122080000000 1.0
C      1  0.3910040000000  0.4965500000000  0.4893230000000 1.0
C      1  0.5049610000000  0.4806600000000  0.6169300000000 1.0
C      1  0.4504630000000  0.5118670000000  0.6034750000000 1.0
C      1  0.5105380000000  0.5751940000000  0.4998130000000 1.0
C      1  0.4114830000000  0.4933170000000  0.4707110000000 1.0
C      1  0.5542220000000  0.5594150000000  0.4761240000000 1.0
C      1  0.4753480000000  0.5006610000000  0.4269970000000 1.0
C      1  0.4441800000000  0.4679730000000  0.5318850000000 1.0
C      1  0.4856650000000  0.5256390000000  0.4666340000000 1.0
C      1  0.5485880000000  0.4466750000000  0.5719550000000 1.0
C      1  0.4001340000000  0.4877340000000  0.5142600000000 1.0
END
