TITL C-612602-9376-1371 1.42356640724417 125000 -164.646399253937 0 0 28 (C1) n - 1
REM
REM in /home/nfs/bkarasulu/CARBON/AIRSS/Generating-Clusters/TERSOFF/Only-C1/FIRE-HFTN
REM
REM
REM
REM
REM
REM ./C.cell (11c1c37f851c82e70ff6c80c92926a4b)
REM AIRSS Version 0.9.1 bugfix July 2018 build 013d7b7c2542+ Fri, 06 Jul 2018 19:26:36 +0100
REM compiler GCC version 9.2.1 20190827 (Red Hat 9.2.1-1)
REM options -cpp -mtune=generic -march=x86-64 -g -O0 -fpre-include=/usr/include/finclude/math-vector-fortran.h
REM seed 1204945258 1643053179 -1299604127 -1671065657 1409918693 1226648552 138466084 655961900 -1171557817 337186542 767418713 322994864 -326080511 1026846265 87136992 -1090943438 1166032711 673926269 41125253 -1532864060 -540101318 1288107115 -244440777 235113274 -1526382504 -937170425 -980328445 -1931497095 1852162452 1364182697 614830736 -2048434417 -1135872659
REM
CELL 1.54180   50.00000   50.00000   50.00000   90.00000   90.00000   90.00000
LATT -1
SFAC C  
C      1  0.5152340000000  0.5668390000000  0.5630030000000 1.0
C      1  0.5339630000000  0.5590750000000  0.5801340000000 1.0
C      1  0.5790360000000  0.4990040000000  0.5836500000000 1.0
C      1  0.4456510000000  0.4857150000000  0.4687790000000 1.0
C      1  0.4850810000000  0.5218090000000  0.4786170000000 1.0
C      1  0.5107540000000  0.4640770000000  0.4720300000000 1.0
C      1  0.5819410000000  0.4775510000000  0.5682910000000 1.0
C      1  0.4614720000000  0.5087800000000  0.4710520000000 1.0
C      1  0.4995100000000  0.5659800000000  0.5416430000000 1.0
C      1  0.5773550000000  0.4609910000000  0.5480660000000 1.0
C      1  0.5144820000000  0.4879280000000  0.4568540000000 1.0
C      1  0.5662970000000  0.4511820000000  0.5260320000000 1.0
C      1  0.5504640000000  0.4486630000000  0.5048960000000 1.0
C      1  0.3658640000000  0.4893430000000  0.4565760000000 1.0
C      1  0.5281210000000  0.4842760000000  0.4047210000000 1.0
C      1  0.3401190000000  0.4905350000000  0.4526470000000 1.0
C      1  0.5528810000000  0.5434230000000  0.5902240000000 1.0
C      1  0.4181970000000  0.4869210000000  0.4645620000000 1.0
C      1  0.4848390000000  0.4533920000000  0.4728940000000 1.0
C      1  0.5105630000000  0.5135860000000  0.4686420000000 1.0
C      1  0.4887230000000  0.5572320000000  0.5190360000000 1.0
C      1  0.4594000000000  0.4613360000000  0.4710540000000 1.0
C      1  0.5317240000000  0.4529850000000  0.4866470000000 1.0
C      1  0.3920400000000  0.4881310000000  0.4605700000000 1.0
C      1  0.5688170000000  0.5222260000000  0.5914600000000 1.0
C      1  0.4838670000000  0.5422920000000  0.4976720000000 1.0
C      1  0.5216360000000  0.4860380000000  0.4298990000000 1.0
C      1  0.5319670000000  0.5306940000000  0.4703480000000 1.0
END
