TITL C-612604-1799-1105 0.17543669048737 125000 -71.4240244080758 0 0 13 (C1) n - 1
REM
REM in /home/nfs/bkarasulu/CARBON/AIRSS/Generating-Clusters/TERSOFF/Only-C1/FIRE-HFTN
REM
REM
REM
REM
REM
REM ./C.cell (11c1c37f851c82e70ff6c80c92926a4b)
REM AIRSS Version 0.9.1 bugfix July 2018 build 013d7b7c2542+ Fri, 06 Jul 2018 19:26:36 +0100
REM compiler GCC version 9.2.1 20190827 (Red Hat 9.2.1-1)
REM options -cpp -mtune=generic -march=x86-64 -g -O0 -fpre-include=/usr/include/finclude/math-vector-fortran.h
REM seed 2062777934 -540114762 -599465705 -1649100916 -529400387 932486022 -48759263 1135997454 -2125670578 1809746469 -529907612 -1666249155 102237161 714574941 -1884470392 -222238375 -439863950 82494228 104764527 90561250 2063272485 1956924633 -1143205777 -1884971400 -1888797301 -321025746 -648976048 -823549468 697679979 -887061116 939495811 993832249 -23614600
REM
CELL 1.54180   50.00000   50.00000   50.00000   90.00000   90.00000   90.00000
LATT -1
SFAC C  
C      1  0.4775640000000  0.5010000000000  0.4903420000000 1.0
C      1  0.4648510000000  0.5901310000000  0.5281120000000 1.0
C      1  0.4747430000000  0.4784190000000  0.4764450000000 1.0
C      1  0.5292930000000  0.4848520000000  0.5066810000000 1.0
C      1  0.5220020000000  0.4213750000000  0.4671460000000 1.0
C      1  0.4879460000000  0.4559780000000  0.4702420000000 1.0
C      1  0.5288200000000  0.4618090000000  0.4933010000000 1.0
C      1  0.5330290000000  0.5245170000000  0.5334530000000 1.0
C      1  0.4929390000000  0.5177810000000  0.5067570000000 1.0
C      1  0.5186960000000  0.5092060000000  0.5158390000000 1.0
C      1  0.4738090000000  0.5666730000000  0.5211050000000 1.0
C      1  0.5132880000000  0.4454090000000  0.4765200000000 1.0
C      1  0.4830210000000  0.5428520000000  0.5140560000000 1.0
END
