TITL C-612600-6631-349 107.614528576382 125000 -312.273840942711 0 0 52 (C1) n - 1
REM
REM in /home/nfs/bkarasulu/CARBON/AIRSS/Generating-Clusters/TERSOFF/Only-C1/FIRE-HFTN
REM
REM
REM
REM
REM
REM ./C.cell (11c1c37f851c82e70ff6c80c92926a4b)
REM AIRSS Version 0.9.1 bugfix July 2018 build 013d7b7c2542+ Fri, 06 Jul 2018 19:26:36 +0100
REM compiler GCC version 9.2.1 20190827 (Red Hat 9.2.1-1)
REM options -cpp -mtune=generic -march=x86-64 -g -O0 -fpre-include=/usr/include/finclude/math-vector-fortran.h
REM seed -1941328919 -120850562 524564327 1005126567 -1813068384 -1113884417 711626648 911083422 988223409 -347833056 -1125287587 -976587362 -1250745924 1332908601 -1299024489 1721885624 -807986621 1288595462 -1144281626 1691506754 483513042 1224481662 -1629707548 467093332 -872142822 1083795887 992098351 291246592 170963214 -1613328397 -1473965809 1408416190 -1361639745
REM
CELL 1.54180   50.00000   50.00000   50.00000   90.00000   90.00000   90.00000
LATT -1
SFAC C  
C      1  0.5124840000000  0.5073010000000  0.4072940000000 1.0
C      1  0.5478990000000  0.6054670000000  0.5499550000000 1.0
C      1  0.5104100000000  0.5450280000000  0.4592770000000 1.0
C      1  0.5223440000000  0.4710130000000  0.4418720000000 1.0
C      1  0.5309870000000  0.5418330000000  0.4782660000000 1.0
C      1  0.5854790000000  0.5284210000000  0.5200730000000 1.0
C      1  0.4816310000000  0.4033670000000  0.5273200000000 1.0
C      1  0.4584870000000  0.4024800000000  0.5114050000000 1.0
C      1  0.4196290000000  0.5007120000000  0.5099030000000 1.0
C      1  0.5903990000000  0.5462640000000  0.5391640000000 1.0
C      1  0.4307800000000  0.4473530000000  0.5535640000000 1.0
C      1  0.5181040000000  0.4631360000000  0.5421780000000 1.0
C      1  0.5039490000000  0.6084410000000  0.5221400000000 1.0
C      1  0.4082010000000  0.5238650000000  0.5200960000000 1.0
C      1  0.5369510000000  0.4752390000000  0.5588440000000 1.0
C      1  0.4843310000000  0.5368240000000  0.4662580000000 1.0
C      1  0.4409970000000  0.3571100000000  0.4872430000000 1.0
C      1  0.4444300000000  0.4271590000000  0.5085830000000 1.0
C      1  0.5177820000000  0.4681440000000  0.5151130000000 1.0
C      1  0.4966200000000  0.4192660000000  0.5426430000000 1.0
C      1  0.4510060000000  0.4552950000000  0.5692200000000 1.0
C      1  0.4777670000000  0.4547240000000  0.5690350000000 1.0
C      1  0.4497130000000  0.3791290000000  0.4991220000000 1.0
C      1  0.5614780000000  0.4936470000000  0.4951170000000 1.0
C      1  0.5413300000000  0.4755920000000  0.4907400000000 1.0
C      1  0.4675320000000  0.5513050000000  0.4844520000000 1.0
C      1  0.4542750000000  0.4461790000000  0.4905270000000 1.0
C      1  0.5175920000000  0.4839530000000  0.4191150000000 1.0
C      1  0.4865390000000  0.5963870000000  0.5061310000000 1.0
C      1  0.5409720000000  0.5683550000000  0.4293910000000 1.0
C      1  0.4994660000000  0.4638410000000  0.4882160000000 1.0
C      1  0.5549110000000  0.4875760000000  0.5731420000000 1.0
C      1  0.4278140000000  0.4357430000000  0.5296020000000 1.0
C      1  0.4989050000000  0.4452820000000  0.5530740000000 1.0
C      1  0.5589390000000  0.5399350000000  0.4812690000000 1.0
C      1  0.5843960000000  0.5688820000000  0.5517880000000 1.0
C      1  0.4622930000000  0.4932420000000  0.4792530000000 1.0
C      1  0.4433870000000  0.5072340000000  0.4947340000000 1.0
C      1  0.5185000000000  0.5514900000000  0.4324660000000 1.0
C      1  0.5648850000000  0.5694110000000  0.4418060000000 1.0
C      1  0.5225910000000  0.4692220000000  0.4693160000000 1.0
C      1  0.5115100000000  0.5335750000000  0.4120420000000 1.0
C      1  0.4323770000000  0.3354730000000  0.4755330000000 1.0
C      1  0.4741610000000  0.5771080000000  0.4927460000000 1.0
C      1  0.5251120000000  0.6117280000000  0.5378340000000 1.0
C      1  0.4718690000000  0.4672490000000  0.4852700000000 1.0
C      1  0.4234120000000  0.5457950000000  0.5123840000000 1.0
C      1  0.4765570000000  0.5100450000000  0.4615720000000 1.0
C      1  0.5690190000000  0.5902710000000  0.5553420000000 1.0
C      1  0.5699880000000  0.5201760000000  0.4983340000000 1.0
C      1  0.4461040000000  0.5371810000000  0.4963840000000 1.0
C      1  0.5737080000000  0.5565480000000  0.4638530000000 1.0
END
