TITL C-612607-4507-542 3126.23117098501 125000 -1061.52947862404 0 0 175 (C1) n - 1
REM
REM in /home/nfs/bkarasulu/CARBON/AIRSS/Generating-Clusters/TERSOFF/Only-C1/FIRE-HFTN
REM
REM
REM
REM
REM
REM ./C.cell (11c1c37f851c82e70ff6c80c92926a4b)
REM AIRSS Version 0.9.1 bugfix July 2018 build 013d7b7c2542+ Fri, 06 Jul 2018 19:26:36 +0100
REM compiler GCC version 9.2.1 20190827 (Red Hat 9.2.1-1)
REM options -cpp -mtune=generic -march=x86-64 -g -O0 -fpre-include=/usr/include/finclude/math-vector-fortran.h
REM seed -795651281 -356427572 1690874434 -269891049 1999026617 -272640757 -1277140105 1760466789 -1356639739 -1536378745 -673377160 -1580353626 -1664619158 33875156 -1674413694 576114305 2024752033 1787604056 968403661 734479046 1158696203 -1713346577 -621590303 347119727 -1559447009 -1329575015 -1780588108 -1159497540 1776202513 1020546365 -2121376830 464205087 926527753
REM
CELL 1.54180   50.00000   50.00000   50.00000   90.00000   90.00000   90.00000
LATT -1
SFAC C  
C      1  0.4504390000000  0.5558400000000  0.5218640000000 1.0
C      1  0.4884260000000  0.5486690000000  0.5629720000000 1.0
C      1  0.5197810000000  0.5512710000000  0.4991230000000 1.0
C      1  0.4601420000000  0.5279040000000  0.4620920000000 1.0
C      1  0.5227920000000  0.6053150000000  0.4233580000000 1.0
C      1  0.4990930000000  0.5356550000000  0.5090290000000 1.0
C      1  0.4874110000000  0.4338900000000  0.5700910000000 1.0
C      1  0.5292420000000  0.4701710000000  0.4248480000000 1.0
C      1  0.4254000000000  0.5116420000000  0.5049720000000 1.0
C      1  0.4118300000000  0.4442060000000  0.4739580000000 1.0
C      1  0.4447670000000  0.4851280000000  0.4715110000000 1.0
C      1  0.5601390000000  0.4949430000000  0.4656340000000 1.0
C      1  0.5160220000000  0.3824350000000  0.4557240000000 1.0
C      1  0.4577730000000  0.4786130000000  0.5627990000000 1.0
C      1  0.5530850000000  0.5246430000000  0.6217320000000 1.0
C      1  0.5176320000000  0.5661840000000  0.3999730000000 1.0
C      1  0.5556000000000  0.5449210000000  0.6011350000000 1.0
C      1  0.3877820000000  0.4704390000000  0.5378930000000 1.0
C      1  0.5346290000000  0.5438710000000  0.5813830000000 1.0
C      1  0.5736140000000  0.4965030000000  0.5746520000000 1.0
C      1  0.4929840000000  0.5360440000000  0.4295190000000 1.0
C      1  0.4718130000000  0.4334550000000  0.5102830000000 1.0
C      1  0.4727790000000  0.5379150000000  0.4086870000000 1.0
C      1  0.6079500000000  0.4165610000000  0.4455780000000 1.0
C      1  0.3776640000000  0.5290410000000  0.5126400000000 1.0
C      1  0.5391340000000  0.5671920000000  0.5180630000000 1.0
C      1  0.5236890000000  0.3848990000000  0.5069440000000 1.0
C      1  0.5497210000000  0.5511370000000  0.4332280000000 1.0
C      1  0.6297390000000  0.5401250000000  0.5882040000000 1.0
C      1  0.4912700000000  0.4608680000000  0.4522130000000 1.0
C      1  0.5687460000000  0.4359900000000  0.4248530000000 1.0
C      1  0.4804890000000  0.4676280000000  0.3822310000000 1.0
C      1  0.6038270000000  0.5334920000000  0.5825810000000 1.0
C      1  0.5325240000000  0.5445580000000  0.4121070000000 1.0
C      1  0.4598420000000  0.4229150000000  0.4424250000000 1.0
C      1  0.5821770000000  0.5491050000000  0.5922820000000 1.0
C      1  0.5590870000000  0.5227130000000  0.4766530000000 1.0
C      1  0.4346790000000  0.5982790000000  0.4990590000000 1.0
C      1  0.5038270000000  0.5060680000000  0.5791930000000 1.0
C      1  0.4636700000000  0.4893140000000  0.6387220000000 1.0
C      1  0.4444090000000  0.5007780000000  0.5759420000000 1.0
C      1  0.3967730000000  0.5333110000000  0.4500390000000 1.0
C      1  0.5808300000000  0.4193060000000  0.4440130000000 1.0
C      1  0.4520070000000  0.5988640000000  0.5591920000000 1.0
C      1  0.5731310000000  0.5813080000000  0.4814880000000 1.0
C      1  0.4395690000000  0.4963710000000  0.4090020000000 1.0
C      1  0.4561800000000  0.5552270000000  0.4602920000000 1.0
C      1  0.5381270000000  0.4752480000000  0.6242940000000 1.0
C      1  0.4673100000000  0.3953130000000  0.4477600000000 1.0
C      1  0.4589800000000  0.3468860000000  0.5017500000000 1.0
C      1  0.4778310000000  0.5488590000000  0.3838700000000 1.0
C      1  0.4051800000000  0.4679440000000  0.4889680000000 1.0
C      1  0.5760010000000  0.4869730000000  0.6014840000000 1.0
C      1  0.4032410000000  0.5326280000000  0.5041120000000 1.0
C      1  0.4309490000000  0.5717680000000  0.5070100000000 1.0
C      1  0.5825680000000  0.4280680000000  0.5307700000000 1.0
C      1  0.4080480000000  0.4699250000000  0.5180880000000 1.0
C      1  0.5511220000000  0.5892640000000  0.4996900000000 1.0
C      1  0.5493260000000  0.4523450000000  0.4167000000000 1.0
C      1  0.4731540000000  0.5897450000000  0.4150380000000 1.0
C      1  0.5183360000000  0.4886670000000  0.4925110000000 1.0
C      1  0.5277870000000  0.4925510000000  0.3839470000000 1.0
C      1  0.4676390000000  0.5117010000000  0.6251170000000 1.0
C      1  0.6083280000000  0.5046820000000  0.5420290000000 1.0
C      1  0.5177390000000  0.4410120000000  0.5118140000000 1.0
C      1  0.4341260000000  0.5667830000000  0.4460260000000 1.0
C      1  0.5217510000000  0.4950980000000  0.4124030000000 1.0
C      1  0.6053180000000  0.5121690000000  0.4858160000000 1.0
C      1  0.4846820000000  0.4396960000000  0.3847250000000 1.0
C      1  0.4475830000000  0.5828250000000  0.4247160000000 1.0
C      1  0.5408200000000  0.4542750000000  0.5222270000000 1.0
C      1  0.5646970000000  0.4077680000000  0.4898360000000 1.0
C      1  0.4881980000000  0.6080470000000  0.5239320000000 1.0
C      1  0.4500980000000  0.3820490000000  0.4664540000000 1.0
C      1  0.3527650000000  0.4297920000000  0.5426640000000 1.0
C      1  0.4798930000000  0.4853370000000  0.4432310000000 1.0
C      1  0.4316390000000  0.3990980000000  0.4801590000000 1.0
C      1  0.4967510000000  0.4233100000000  0.5162080000000 1.0
C      1  0.4539030000000  0.3565110000000  0.4772460000000 1.0
C      1  0.4508760000000  0.5288540000000  0.5117690000000 1.0
C      1  0.5100970000000  0.4179090000000  0.5663980000000 1.0
C      1  0.4730390000000  0.6164520000000  0.5481630000000 1.0
C      1  0.4743410000000  0.5612240000000  0.5393990000000 1.0
C      1  0.4747610000000  0.5992800000000  0.4690460000000 1.0
C      1  0.5415460000000  0.3922560000000  0.4490580000000 1.0
C      1  0.4339370000000  0.4306730000000  0.4333170000000 1.0
C      1  0.5193220000000  0.4660750000000  0.4506310000000 1.0
C      1  0.5210680000000  0.5506890000000  0.4707930000000 1.0
C      1  0.4320180000000  0.4270530000000  0.4847940000000 1.0
C      1  0.4834130000000  0.3776930000000  0.5324690000000 1.0
C      1  0.4178600000000  0.4938260000000  0.4275620000000 1.0
C      1  0.5946420000000  0.5363310000000  0.4463520000000 1.0
C      1  0.4770250000000  0.5188700000000  0.5117740000000 1.0
C      1  0.5564610000000  0.4964350000000  0.6203050000000 1.0
C      1  0.5640010000000  0.5757200000000  0.4350180000000 1.0
C      1  0.5973070000000  0.5097880000000  0.5674860000000 1.0
C      1  0.5629360000000  0.5528820000000  0.5284690000000 1.0
C      1  0.4078360000000  0.5066470000000  0.4518450000000 1.0
C      1  0.5341930000000  0.4961320000000  0.5364670000000 1.0
C      1  0.5487160000000  0.5019200000000  0.5606880000000 1.0
C      1  0.5564620000000  0.4974230000000  0.3846800000000 1.0
C      1  0.6085360000000  0.5307880000000  0.5299750000000 1.0
C      1  0.4575530000000  0.4822770000000  0.5344220000000 1.0
C      1  0.4909200000000  0.6294170000000  0.5663240000000 1.0
C      1  0.5998470000000  0.4864470000000  0.4973380000000 1.0
C      1  0.4846160000000  0.5272880000000  0.5819650000000 1.0
C      1  0.4940200000000  0.5807980000000  0.5303110000000 1.0
C      1  0.5750600000000  0.4765320000000  0.4861150000000 1.0
C      1  0.4175370000000  0.4944340000000  0.4782940000000 1.0
C      1  0.5978480000000  0.4532190000000  0.5367110000000 1.0
C      1  0.4986670000000  0.3972560000000  0.4121320000000 1.0
C      1  0.4724990000000  0.4412670000000  0.4610190000000 1.0
C      1  0.5313290000000  0.6032470000000  0.5554040000000 1.0
C      1  0.5320490000000  0.4832310000000  0.4689060000000 1.0
C      1  0.4111660000000  0.5559090000000  0.4610260000000 1.0
C      1  0.4586050000000  0.4380570000000  0.4864720000000 1.0
C      1  0.4171650000000  0.5572680000000  0.6060150000000 1.0
C      1  0.4122200000000  0.5564740000000  0.4907500000000 1.0
C      1  0.5173460000000  0.6230360000000  0.5676520000000 1.0
C      1  0.4821630000000  0.4933940000000  0.5232950000000 1.0
C      1  0.5622190000000  0.4561130000000  0.5015550000000 1.0
C      1  0.4753980000000  0.5327990000000  0.6084460000000 1.0
C      1  0.5959460000000  0.4698430000000  0.6090240000000 1.0
C      1  0.4936990000000  0.4163670000000  0.3940620000000 1.0
C      1  0.5341870000000  0.4575720000000  0.6038890000000 1.0
C      1  0.4004000000000  0.5143170000000  0.5649900000000 1.0
C      1  0.5165770000000  0.5587400000000  0.5649290000000 1.0
C      1  0.5299650000000  0.5163470000000  0.5762810000000 1.0
C      1  0.4687640000000  0.3566740000000  0.5246900000000 1.0
C      1  0.4767090000000  0.5582490000000  0.6185320000000 1.0
C      1  0.5274270000000  0.4630760000000  0.5767340000000 1.0
C      1  0.5851480000000  0.5405360000000  0.5176760000000 1.0
C      1  0.4287030000000  0.5518360000000  0.5812130000000 1.0
C      1  0.6045510000000  0.4804520000000  0.5260480000000 1.0
C      1  0.4313030000000  0.4869810000000  0.5231730000000 1.0
C      1  0.4994210000000  0.5543970000000  0.4527590000000 1.0
C      1  0.5374830000000  0.4211800000000  0.5555450000000 1.0
C      1  0.5766610000000  0.5071250000000  0.4346500000000 1.0
C      1  0.4949810000000  0.6168470000000  0.4767120000000 1.0
C      1  0.5498090000000  0.3956230000000  0.5124050000000 1.0
C      1  0.5486410000000  0.5990060000000  0.4297350000000 1.0
C      1  0.5346870000000  0.6128470000000  0.5017600000000 1.0
C      1  0.5113010000000  0.4902770000000  0.5197720000000 1.0
C      1  0.5814960000000  0.5282080000000  0.4929890000000 1.0
C      1  0.4936700000000  0.3884810000000  0.4386900000000 1.0
C      1  0.5015310000000  0.3958330000000  0.5211800000000 1.0
C      1  0.4632710000000  0.5007790000000  0.4585290000000 1.0
C      1  0.5158950000000  0.3730280000000  0.4823330000000 1.0
C      1  0.6147700000000  0.5245610000000  0.4621900000000 1.0
C      1  0.4561340000000  0.4784110000000  0.3936630000000 1.0
C      1  0.4498450000000  0.5224250000000  0.4094780000000 1.0
C      1  0.5035200000000  0.4824710000000  0.3723860000000 1.0
C      1  0.5444320000000  0.5403620000000  0.4597180000000 1.0
C      1  0.3694200000000  0.4497370000000  0.5406710000000 1.0
C      1  0.3724340000000  0.5372340000000  0.4380430000000 1.0
C      1  0.5028320000000  0.4780850000000  0.5758840000000 1.0
C      1  0.5225550000000  0.5777040000000  0.5420350000000 1.0
C      1  0.5824450000000  0.5693130000000  0.4561570000000 1.0
C      1  0.3865780000000  0.4438200000000  0.4315880000000 1.0
C      1  0.3874230000000  0.4931280000000  0.5548240000000 1.0
C      1  0.4261540000000  0.5233320000000  0.5732980000000 1.0
C      1  0.5720270000000  0.5019560000000  0.4072660000000 1.0
C      1  0.5392630000000  0.4509130000000  0.5526820000000 1.0
C      1  0.4797340000000  0.4621190000000  0.5717510000000 1.0
C      1  0.4395490000000  0.5757860000000  0.5681430000000 1.0
C      1  0.4098130000000  0.4404330000000  0.4454390000000 1.0
C      1  0.5159850000000  0.5218930000000  0.4194530000000 1.0
C      1  0.4609510000000  0.4660480000000  0.6501590000000 1.0
C      1  0.5766460000000  0.4310590000000  0.5014860000000 1.0
C      1  0.4493840000000  0.6072960000000  0.4785660000000 1.0
C      1  0.4788690000000  0.5719620000000  0.4619340000000 1.0
C      1  0.5583500000000  0.4094500000000  0.5383870000000 1.0
C      1  0.5062350000000  0.6175590000000  0.5025570000000 1.0
C      1  0.5632860000000  0.4050670000000  0.4615100000000 1.0
C      1  0.5025210000000  0.5888280000000  0.4110550000000 1.0
END
