TITL C-612600-6631-413 6.26756307130881 125000 -1210.74480499815 0 0 196 (C1) n - 1
REM
REM in /home/nfs/bkarasulu/CARBON/AIRSS/Generating-Clusters/TERSOFF/Only-C1/FIRE-HFTN
REM
REM
REM
REM
REM
REM ./C.cell (11c1c37f851c82e70ff6c80c92926a4b)
REM AIRSS Version 0.9.1 bugfix July 2018 build 013d7b7c2542+ Fri, 06 Jul 2018 19:26:36 +0100
REM compiler GCC version 9.2.1 20190827 (Red Hat 9.2.1-1)
REM options -cpp -mtune=generic -march=x86-64 -g -O0 -fpre-include=/usr/include/finclude/math-vector-fortran.h
REM seed -866421897 281370794 -928189706 -2135006366 153367383 -125308692 -1085592216 -600444569 1618122788 850240394 2111264440 1597614939 -259494297 -95858847 -1380843645 -563850546 -645147535 390722235 -198031676 -1262894396 -1411398674 -1742854380 -1318478168 -1167031733 1039597478 1895633731 696395774 -1609724507 -136750316 1203451482 -480792652 -1013458001 -1835112678
REM
CELL 1.54180   50.00000   50.00000   50.00000   90.00000   90.00000   90.00000
LATT -1
SFAC C  
C      1  0.6038430000000  0.5560580000000  0.4663050000000 1.0
C      1  0.4649670000000  0.4776240000000  0.5479100000000 1.0
C      1  0.4155250000000  0.4285060000000  0.5680830000000 1.0
C      1  0.4588250000000  0.5811170000000  0.5837450000000 1.0
C      1  0.4835620000000  0.4634920000000  0.4901720000000 1.0
C      1  0.5954530000000  0.4327270000000  0.4948420000000 1.0
C      1  0.4485390000000  0.4862020000000  0.3864380000000 1.0
C      1  0.5061840000000  0.5424410000000  0.6272980000000 1.0
C      1  0.6154130000000  0.5569550000000  0.4909450000000 1.0
C      1  0.4373070000000  0.6015740000000  0.4581930000000 1.0
C      1  0.4875100000000  0.4869320000000  0.4296360000000 1.0
C      1  0.5820030000000  0.5195530000000  0.4094160000000 1.0
C      1  0.5443670000000  0.6077220000000  0.5010630000000 1.0
C      1  0.5475540000000  0.4808520000000  0.5667540000000 1.0
C      1  0.5451900000000  0.4447880000000  0.4960150000000 1.0
C      1  0.5380990000000  0.5619330000000  0.5956330000000 1.0
C      1  0.4485090000000  0.5157130000000  0.3945780000000 1.0
C      1  0.5513490000000  0.5740290000000  0.4218420000000 1.0
C      1  0.5064360000000  0.5430320000000  0.4376230000000 1.0
C      1  0.4168110000000  0.4582130000000  0.5743250000000 1.0
C      1  0.5682020000000  0.5115380000000  0.4825580000000 1.0
C      1  0.4483940000000  0.4491940000000  0.4541360000000 1.0
C      1  0.4193200000000  0.5482220000000  0.5744840000000 1.0
C      1  0.4598330000000  0.3742160000000  0.5413700000000 1.0
C      1  0.3985340000000  0.4937910000000  0.4728150000000 1.0
C      1  0.4960830000000  0.4624270000000  0.4408630000000 1.0
C      1  0.4491680000000  0.5263100000000  0.5045360000000 1.0
C      1  0.5419510000000  0.5083000000000  0.5641890000000 1.0
C      1  0.3980630000000  0.4787080000000  0.5638480000000 1.0
C      1  0.5174120000000  0.4492750000000  0.3724760000000 1.0
C      1  0.5186450000000  0.4061790000000  0.4535870000000 1.0
C      1  0.4946870000000  0.4630130000000  0.3690690000000 1.0
C      1  0.4770970000000  0.4198710000000  0.4262990000000 1.0
C      1  0.4380880000000  0.3926630000000  0.5428110000000 1.0
C      1  0.3999750000000  0.4792720000000  0.4257320000000 1.0
C      1  0.5942100000000  0.4682080000000  0.4288380000000 1.0
C      1  0.5584750000000  0.5183050000000  0.5430180000000 1.0
C      1  0.6094530000000  0.4744880000000  0.5141210000000 1.0
C      1  0.5038190000000  0.5937910000000  0.5874110000000 1.0
C      1  0.4000390000000  0.5080950000000  0.5616600000000 1.0
C      1  0.4632350000000  0.5233590000000  0.5517540000000 1.0
C      1  0.5185780000000  0.5079460000000  0.5213450000000 1.0
C      1  0.5364980000000  0.5242620000000  0.3962390000000 1.0
C      1  0.5140270000000  0.5633850000000  0.4786260000000 1.0
C      1  0.4592640000000  0.4263500000000  0.5046000000000 1.0
C      1  0.5035060000000  0.3931170000000  0.5940590000000 1.0
C      1  0.5699780000000  0.5026520000000  0.6165800000000 1.0
C      1  0.5062530000000  0.5686230000000  0.3912550000000 1.0
C      1  0.4580480000000  0.5255050000000  0.6289230000000 1.0
C      1  0.4474950000000  0.3218240000000  0.5471800000000 1.0
C      1  0.3959990000000  0.4998090000000  0.4447730000000 1.0
C      1  0.5008450000000  0.6097060000000  0.4724160000000 1.0
C      1  0.5616980000000  0.4666790000000  0.4972110000000 1.0
C      1  0.5521300000000  0.5488460000000  0.5077160000000 1.0
C      1  0.5674240000000  0.5944300000000  0.5154610000000 1.0
C      1  0.6413930000000  0.5084540000000  0.5684390000000 1.0
C      1  0.5889280000000  0.5113950000000  0.5008260000000 1.0
C      1  0.4381290000000  0.5894210000000  0.4839210000000 1.0
C      1  0.4171330000000  0.4751300000000  0.4844330000000 1.0
C      1  0.5726110000000  0.4714100000000  0.5758690000000 1.0
C      1  0.5162620000000  0.4800810000000  0.5299620000000 1.0
C      1  0.4102580000000  0.5446690000000  0.4209650000000 1.0
C      1  0.5741710000000  0.6038280000000  0.5418130000000 1.0
C      1  0.4279780000000  0.4127870000000  0.5893180000000 1.0
C      1  0.4952680000000  0.6150500000000  0.5221160000000 1.0
C      1  0.3996850000000  0.5281940000000  0.5373280000000 1.0
C      1  0.4959830000000  0.6130810000000  0.5705420000000 1.0
C      1  0.4803300000000  0.6081680000000  0.5470120000000 1.0
C      1  0.3932560000000  0.5267630000000  0.4349980000000 1.0
C      1  0.4322890000000  0.4312710000000  0.4970070000000 1.0
C      1  0.5643570000000  0.5268420000000  0.4599390000000 1.0
C      1  0.4874100000000  0.3805130000000  0.5375440000000 1.0
C      1  0.5543120000000  0.4181900000000  0.5410150000000 1.0
C      1  0.4534300000000  0.3470230000000  0.5441870000000 1.0
C      1  0.5316650000000  0.5680600000000  0.5490050000000 1.0
C      1  0.3738910000000  0.4684020000000  0.5547010000000 1.0
C      1  0.4915090000000  0.4498120000000  0.5908460000000 1.0
C      1  0.5741310000000  0.5524430000000  0.4234380000000 1.0
C      1  0.4281420000000  0.4112850000000  0.4194940000000 1.0
C      1  0.4914270000000  0.5494240000000  0.5189730000000 1.0
C      1  0.4612530000000  0.5939450000000  0.4418360000000 1.0
C      1  0.5428640000000  0.4239890000000  0.5147670000000 1.0
C      1  0.5505250000000  0.5713310000000  0.5712440000000 1.0
C      1  0.5242790000000  0.4922780000000  0.4739600000000 1.0
C      1  0.4539310000000  0.5466580000000  0.4312010000000 1.0
C      1  0.3855940000000  0.5104450000000  0.4920110000000 1.0
C      1  0.4251850000000  0.5636870000000  0.4857260000000 1.0
C      1  0.5087400000000  0.5176310000000  0.4778430000000 1.0
C      1  0.5343800000000  0.5432810000000  0.6178080000000 1.0
C      1  0.5506320000000  0.4901050000000  0.4857330000000 1.0
C      1  0.4617770000000  0.5413270000000  0.4581410000000 1.0
C      1  0.5259890000000  0.3950370000000  0.5793880000000 1.0
C      1  0.4101850000000  0.5228500000000  0.6130270000000 1.0
C      1  0.5315310000000  0.5758710000000  0.4000000000000 1.0
C      1  0.4076450000000  0.5244470000000  0.5851900000000 1.0
C      1  0.5333540000000  0.4378460000000  0.3928020000000 1.0
C      1  0.4966350000000  0.5211880000000  0.5061870000000 1.0
C      1  0.5941220000000  0.4354500000000  0.4658860000000 1.0
C      1  0.5193840000000  0.5292050000000  0.3748200000000 1.0
C      1  0.5976160000000  0.4196330000000  0.5205550000000 1.0
C      1  0.4408970000000  0.4626910000000  0.5908610000000 1.0
C      1  0.4438180000000  0.5422140000000  0.4811320000000 1.0
C      1  0.5377860000000  0.5864830000000  0.4466010000000 1.0
C      1  0.5248280000000  0.4448700000000  0.4768140000000 1.0
C      1  0.5238840000000  0.6180110000000  0.5197460000000 1.0
C      1  0.5145480000000  0.4129380000000  0.5108070000000 1.0
C      1  0.6059700000000  0.4612260000000  0.4558290000000 1.0
C      1  0.3913900000000  0.5315700000000  0.5098210000000 1.0
C      1  0.5129180000000  0.3921440000000  0.5327110000000 1.0
C      1  0.4811710000000  0.5013690000000  0.5578470000000 1.0
C      1  0.6096960000000  0.4779410000000  0.5428130000000 1.0
C      1  0.5725080000000  0.4271210000000  0.4463730000000 1.0
C      1  0.6207300000000  0.5056180000000  0.5508670000000 1.0
C      1  0.4134150000000  0.4249040000000  0.5170290000000 1.0
C      1  0.4300550000000  0.5308060000000  0.6297040000000 1.0
C      1  0.5521770000000  0.4814270000000  0.4066900000000 1.0
C      1  0.4004870000000  0.5557250000000  0.4969750000000 1.0
C      1  0.5453780000000  0.5158800000000  0.4417380000000 1.0
C      1  0.5879970000000  0.4593910000000  0.5036350000000 1.0
C      1  0.5158330000000  0.4668220000000  0.4617430000000 1.0
C      1  0.6166630000000  0.4865670000000  0.4672310000000 1.0
C      1  0.6068780000000  0.5286960000000  0.5379360000000 1.0
C      1  0.4708230000000  0.4317050000000  0.5313720000000 1.0
C      1  0.5075210000000  0.4197070000000  0.4794920000000 1.0
C      1  0.5150760000000  0.5633990000000  0.5267750000000 1.0
C      1  0.5329630000000  0.6059780000000  0.4725260000000 1.0
C      1  0.4711480000000  0.5669170000000  0.5108740000000 1.0
C      1  0.4774400000000  0.5233450000000  0.3943390000000 1.0
C      1  0.5795320000000  0.4828220000000  0.6009050000000 1.0
C      1  0.6119910000000  0.4950220000000  0.4941680000000 1.0
C      1  0.5817790000000  0.4303270000000  0.5438300000000 1.0
C      1  0.5486920000000  0.4106550000000  0.4507910000000 1.0
C      1  0.4628720000000  0.5905740000000  0.4978490000000 1.0
C      1  0.5750140000000  0.4458430000000  0.4230300000000 1.0
C      1  0.5593690000000  0.5075070000000  0.3955910000000 1.0
C      1  0.4356270000000  0.5312050000000  0.4143650000000 1.0
C      1  0.4343200000000  0.4623410000000  0.3931540000000 1.0
C      1  0.4775920000000  0.4798310000000  0.3830560000000 1.0
C      1  0.4090680000000  0.4310390000000  0.4196120000000 1.0
C      1  0.4662920000000  0.5671240000000  0.6058780000000 1.0
C      1  0.4703010000000  0.5081400000000  0.5003590000000 1.0
C      1  0.5818770000000  0.5474590000000  0.4508310000000 1.0
C      1  0.4424750000000  0.4834220000000  0.5311910000000 1.0
C      1  0.4628070000000  0.4982400000000  0.6240440000000 1.0
C      1  0.4889860000000  0.5932190000000  0.4502350000000 1.0
C      1  0.5534800000000  0.5230270000000  0.6225140000000 1.0
C      1  0.5471120000000  0.4887130000000  0.4341170000000 1.0
C      1  0.6028870000000  0.5559030000000  0.5166460000000 1.0
C      1  0.4490520000000  0.5740150000000  0.4244510000000 1.0
C      1  0.5290220000000  0.5635270000000  0.5015310000000 1.0
C      1  0.5041630000000  0.4093530000000  0.4280260000000 1.0
C      1  0.4569180000000  0.5907830000000  0.5559310000000 1.0
C      1  0.5010580000000  0.4626880000000  0.5139450000000 1.0
C      1  0.4193410000000  0.4148200000000  0.5427460000000 1.0
C      1  0.5340470000000  0.3992560000000  0.5526640000000 1.0
C      1  0.4954530000000  0.5426780000000  0.3832180000000 1.0
C      1  0.5417840000000  0.5251320000000  0.5216570000000 1.0
C      1  0.4772790000000  0.5458950000000  0.6223910000000 1.0
C      1  0.4292900000000  0.4506650000000  0.4754960000000 1.0
C      1  0.5014160000000  0.5415850000000  0.5768540000000 1.0
C      1  0.4764060000000  0.4993610000000  0.4525550000000 1.0
C      1  0.4229250000000  0.5494660000000  0.5445230000000 1.0
C      1  0.4983900000000  0.4357620000000  0.5242960000000 1.0
C      1  0.5748770000000  0.5659100000000  0.5131060000000 1.0
C      1  0.5069890000000  0.5148170000000  0.5677230000000 1.0
C      1  0.4837300000000  0.6099240000000  0.4964040000000 1.0
C      1  0.4795190000000  0.4337470000000  0.4846160000000 1.0
C      1  0.4343590000000  0.5785850000000  0.5421260000000 1.0
C      1  0.4499350000000  0.4378920000000  0.3891740000000 1.0
C      1  0.5280490000000  0.5300690000000  0.4240080000000 1.0
C      1  0.4251870000000  0.4815030000000  0.5110150000000 1.0
C      1  0.5987860000000  0.4985970000000  0.4232390000000 1.0
C      1  0.4650210000000  0.4490360000000  0.5531850000000 1.0
C      1  0.4888870000000  0.4972610000000  0.4034270000000 1.0
C      1  0.5100200000000  0.5664760000000  0.5879840000000 1.0
C      1  0.4183360000000  0.5737110000000  0.4240650000000 1.0
C      1  0.5103750000000  0.5703190000000  0.4492720000000 1.0
C      1  0.5901370000000  0.4584160000000  0.5562830000000 1.0
C      1  0.4740030000000  0.4436980000000  0.4418280000000 1.0
C      1  0.6171300000000  0.5053610000000  0.4451490000000 1.0
C      1  0.5214250000000  0.4159820000000  0.4062930000000 1.0
C      1  0.4133100000000  0.5955860000000  0.4423970000000 1.0
C      1  0.4456520000000  0.5336470000000  0.5324200000000 1.0
C      1  0.4479190000000  0.4796960000000  0.6117560000000 1.0
C      1  0.4637330000000  0.4433840000000  0.5830720000000 1.0
C      1  0.5117640000000  0.4525500000000  0.5735390000000 1.0
C      1  0.4723400000000  0.4877330000000  0.4799620000000 1.0
C      1  0.5546990000000  0.4531690000000  0.4040000000000 1.0
C      1  0.5259520000000  0.4676880000000  0.5548860000000 1.0
C      1  0.5700170000000  0.5909670000000  0.5655110000000 1.0
C      1  0.4543460000000  0.4169090000000  0.4087860000000 1.0
C      1  0.4122990000000  0.4584810000000  0.4114870000000 1.0
C      1  0.4882180000000  0.5264930000000  0.4564640000000 1.0
C      1  0.4774330000000  0.3984490000000  0.5977780000000 1.0
C      1  0.5833800000000  0.5154480000000  0.5295040000000 1.0
C      1  0.4561110000000  0.4159130000000  0.5922190000000 1.0
END
