TITL C-612602-9376-376 151.365876757767 125000 -866.7765180041 0 0 142 (C1) n - 1
REM
REM in /home/nfs/bkarasulu/CARBON/AIRSS/Generating-Clusters/TERSOFF/Only-C1/FIRE-HFTN
REM
REM
REM
REM
REM
REM ./C.cell (11c1c37f851c82e70ff6c80c92926a4b)
REM AIRSS Version 0.9.1 bugfix July 2018 build 013d7b7c2542+ Fri, 06 Jul 2018 19:26:36 +0100
REM compiler GCC version 9.2.1 20190827 (Red Hat 9.2.1-1)
REM options -cpp -mtune=generic -march=x86-64 -g -O0 -fpre-include=/usr/include/finclude/math-vector-fortran.h
REM seed -1356413553 854733933 -1260354443 -1326815051 -1441431542 -935434035 -1673305274 -798594548 -167950139 320734557 1388810549 -1177772435 -1445406030 527518686 410502236 708056595 -1828710764 -421759240 1685011576 2015989691 579807651 -1833134023 -1887131570 239228941 -926587078 717979855 501306870 -374890114 2074401963 -1897141313 794799326 1381718552 -2095827935
REM
CELL 1.54180   50.00000   50.00000   50.00000   90.00000   90.00000   90.00000
LATT -1
SFAC C  
C      1  0.5449380000000  0.4038380000000  0.4978490000000 1.0
C      1  0.5349270000000  0.4461470000000  0.5207230000000 1.0
C      1  0.4853440000000  0.3952190000000  0.5521010000000 1.0
C      1  0.5328600000000  0.5955090000000  0.5689940000000 1.0
C      1  0.4496190000000  0.4282260000000  0.4532980000000 1.0
C      1  0.5316470000000  0.4205980000000  0.5774020000000 1.0
C      1  0.5577690000000  0.4696400000000  0.5228250000000 1.0
C      1  0.4791160000000  0.5600070000000  0.5371820000000 1.0
C      1  0.4250820000000  0.5861940000000  0.4702110000000 1.0
C      1  0.4383440000000  0.4296260000000  0.5426070000000 1.0
C      1  0.5715370000000  0.4279410000000  0.5414460000000 1.0
C      1  0.4069900000000  0.5396290000000  0.4684400000000 1.0
C      1  0.4571410000000  0.5485080000000  0.4741520000000 1.0
C      1  0.4996720000000  0.5655350000000  0.5200040000000 1.0
C      1  0.4991380000000  0.4556450000000  0.4869950000000 1.0
C      1  0.5128640000000  0.5893710000000  0.5260060000000 1.0
C      1  0.4107950000000  0.4622290000000  0.5153340000000 1.0
C      1  0.4896110000000  0.5828550000000  0.6262400000000 1.0
C      1  0.5024480000000  0.5470920000000  0.4070190000000 1.0
C      1  0.4974060000000  0.4383030000000  0.5537760000000 1.0
C      1  0.5929150000000  0.5194570000000  0.4271020000000 1.0
C      1  0.3848910000000  0.4677450000000  0.5226100000000 1.0
C      1  0.5833920000000  0.4518990000000  0.5257050000000 1.0
C      1  0.4873660000000  0.4043190000000  0.4852880000000 1.0
C      1  0.5701310000000  0.4235020000000  0.3940430000000 1.0
C      1  0.5831030000000  0.4008890000000  0.3940220000000 1.0
C      1  0.5172810000000  0.4550460000000  0.5434730000000 1.0
C      1  0.5673810000000  0.5011490000000  0.4774010000000 1.0
C      1  0.5444590000000  0.5617910000000  0.5993050000000 1.0
C      1  0.5165270000000  0.4966440000000  0.5991590000000 1.0
C      1  0.4575420000000  0.5207110000000  0.4109890000000 1.0
C      1  0.4365630000000  0.4800980000000  0.5572530000000 1.0
C      1  0.5972880000000  0.4206110000000  0.6093440000000 1.0
C      1  0.5563490000000  0.4915350000000  0.4154970000000 1.0
C      1  0.4833800000000  0.5870850000000  0.5773170000000 1.0
C      1  0.5566520000000  0.5865910000000  0.5558560000000 1.0
C      1  0.4543160000000  0.5215800000000  0.5395640000000 1.0
C      1  0.5546680000000  0.5665600000000  0.5109120000000 1.0
C      1  0.5495080000000  0.4886470000000  0.5455630000000 1.0
C      1  0.5275540000000  0.5836150000000  0.5945000000000 1.0
C      1  0.5432520000000  0.5718460000000  0.4639510000000 1.0
C      1  0.5683410000000  0.5620860000000  0.4258860000000 1.0
C      1  0.5872450000000  0.4569720000000  0.4733900000000 1.0
C      1  0.3921920000000  0.4933780000000  0.4714320000000 1.0
C      1  0.5114560000000  0.5139990000000  0.4521250000000 1.0
C      1  0.4919690000000  0.4673290000000  0.4427330000000 1.0
C      1  0.5905990000000  0.5622640000000  0.4463070000000 1.0
C      1  0.5165700000000  0.4375390000000  0.4996190000000 1.0
C      1  0.4403640000000  0.5012690000000  0.4494840000000 1.0
C      1  0.4943030000000  0.5237860000000  0.5680390000000 1.0
C      1  0.5480810000000  0.5378350000000  0.5844890000000 1.0
C      1  0.4417520000000  0.4516950000000  0.5625700000000 1.0
C      1  0.4433060000000  0.5514900000000  0.5862160000000 1.0
C      1  0.4568260000000  0.5740820000000  0.5725210000000 1.0
C      1  0.5512600000000  0.4195820000000  0.5223220000000 1.0
C      1  0.4201440000000  0.4351960000000  0.5196110000000 1.0
C      1  0.5084890000000  0.4111770000000  0.5588440000000 1.0
C      1  0.5001640000000  0.4975630000000  0.3979470000000 1.0
C      1  0.4691170000000  0.4089860000000  0.5081530000000 1.0
C      1  0.5186650000000  0.4968300000000  0.5037550000000 1.0
C      1  0.5080040000000  0.5415400000000  0.5079250000000 1.0
C      1  0.4412340000000  0.5036300000000  0.4939030000000 1.0
C      1  0.5633680000000  0.4094370000000  0.4767360000000 1.0
C      1  0.4173360000000  0.4615760000000  0.4338870000000 1.0
C      1  0.5120720000000  0.5685950000000  0.4259330000000 1.0
C      1  0.5377100000000  0.5225890000000  0.4471830000000 1.0
C      1  0.4771900000000  0.5533050000000  0.4555060000000 1.0
C      1  0.5440680000000  0.4704950000000  0.4007030000000 1.0
C      1  0.4162180000000  0.5400960000000  0.4401930000000 1.0
C      1  0.6229170000000  0.5054770000000  0.4888720000000 1.0
C      1  0.4732870000000  0.4809820000000  0.5208610000000 1.0
C      1  0.4785960000000  0.5335710000000  0.5478990000000 1.0
C      1  0.4626960000000  0.5077120000000  0.5981660000000 1.0
C      1  0.4994820000000  0.5843450000000  0.6009290000000 1.0
C      1  0.4214370000000  0.5046730000000  0.5663340000000 1.0
C      1  0.4749660000000  0.4590750000000  0.5036750000000 1.0
C      1  0.4159020000000  0.5510560000000  0.5130610000000 1.0
C      1  0.4532660000000  0.5708080000000  0.5438550000000 1.0
C      1  0.4284680000000  0.4189360000000  0.4703800000000 1.0
C      1  0.6181850000000  0.5246060000000  0.4704880000000 1.0
C      1  0.5408950000000  0.5700790000000  0.4351490000000 1.0
C      1  0.4049930000000  0.4563940000000  0.4098130000000 1.0
C      1  0.5454370000000  0.5164730000000  0.5390190000000 1.0
C      1  0.5402110000000  0.5153300000000  0.4191970000000 1.0
C      1  0.4631430000000  0.4050820000000  0.5362600000000 1.0
C      1  0.4608680000000  0.4470700000000  0.5833660000000 1.0
C      1  0.4736890000000  0.5434630000000  0.4032540000000 1.0
C      1  0.5536120000000  0.5533260000000  0.4839700000000 1.0
C      1  0.4510090000000  0.5987400000000  0.4695930000000 1.0
C      1  0.5380410000000  0.5153270000000  0.5984720000000 1.0
C      1  0.4545560000000  0.4924440000000  0.5385230000000 1.0
C      1  0.5244710000000  0.4715820000000  0.5881880000000 1.0
C      1  0.4453220000000  0.4533810000000  0.4365920000000 1.0
C      1  0.5163350000000  0.4095010000000  0.4922110000000 1.0
C      1  0.6176310000000  0.4822040000000  0.5015890000000 1.0
C      1  0.4003340000000  0.5256550000000  0.5152000000000 1.0
C      1  0.5599340000000  0.5623410000000  0.5403500000000 1.0
C      1  0.4723790000000  0.4947090000000  0.4085830000000 1.0
C      1  0.5163120000000  0.5216490000000  0.4039130000000 1.0
C      1  0.5153450000000  0.4797260000000  0.4817870000000 1.0
C      1  0.4885210000000  0.4443390000000  0.5809470000000 1.0
C      1  0.4921120000000  0.4448570000000  0.4598120000000 1.0
C      1  0.5801760000000  0.4825500000000  0.4588000000000 1.0
C      1  0.4902540000000  0.5301500000000  0.4493530000000 1.0
C      1  0.5081390000000  0.4871940000000  0.4555930000000 1.0
C      1  0.4908200000000  0.5079940000000  0.5912510000000 1.0
C      1  0.5550550000000  0.5261850000000  0.4703670000000 1.0
C      1  0.5570870000000  0.4465200000000  0.3954120000000 1.0
C      1  0.4393140000000  0.5218840000000  0.5859740000000 1.0
C      1  0.5805890000000  0.4932810000000  0.4314480000000 1.0
C      1  0.5799530000000  0.4214460000000  0.5899050000000 1.0
C      1  0.5375120000000  0.5909010000000  0.5117180000000 1.0
C      1  0.4121550000000  0.5874500000000  0.4444500000000 1.0
C      1  0.5304370000000  0.4739600000000  0.5604440000000 1.0
C      1  0.5171020000000  0.4752490000000  0.3924620000000 1.0
C      1  0.5991440000000  0.4602540000000  0.5009570000000 1.0
C      1  0.4158130000000  0.5628090000000  0.4859160000000 1.0
C      1  0.5768860000000  0.4310710000000  0.4676110000000 1.0
C      1  0.5534930000000  0.5382110000000  0.5553850000000 1.0
C      1  0.4896780000000  0.5769100000000  0.4448300000000 1.0
C      1  0.4110700000000  0.5654120000000  0.4284170000000 1.0
C      1  0.4682550000000  0.4712500000000  0.4268490000000 1.0
C      1  0.4366440000000  0.5215760000000  0.4312550000000 1.0
C      1  0.3960040000000  0.5180670000000  0.4854910000000 1.0
C      1  0.5086600000000  0.5971330000000  0.5535230000000 1.0
C      1  0.4359040000000  0.5514770000000  0.5324980000000 1.0
C      1  0.5160200000000  0.4443710000000  0.5938810000000 1.0
C      1  0.6041700000000  0.5361350000000  0.4489540000000 1.0
C      1  0.4916920000000  0.4995410000000  0.5128930000000 1.0
C      1  0.4186250000000  0.4192820000000  0.4957080000000 1.0
C      1  0.4032530000000  0.5144910000000  0.5433720000000 1.0
C      1  0.4844230000000  0.5246280000000  0.5025120000000 1.0
C      1  0.4771300000000  0.4206190000000  0.4614540000000 1.0
C      1  0.4746050000000  0.5988820000000  0.4554360000000 1.0
C      1  0.5597660000000  0.4882130000000  0.5005100000000 1.0
C      1  0.4589220000000  0.5261210000000  0.4909510000000 1.0
C      1  0.4271240000000  0.4817080000000  0.5020000000000 1.0
C      1  0.5294880000000  0.5214930000000  0.5153640000000 1.0
C      1  0.4018330000000  0.4745490000000  0.4543420000000 1.0
C      1  0.5609170000000  0.4233130000000  0.5691830000000 1.0
C      1  0.5773990000000  0.5390070000000  0.4102770000000 1.0
C      1  0.4603300000000  0.4360480000000  0.5040790000000 1.0
END
