TITL C-612606-7351-63 0.121765470245284 125000 -75.0370171365943 0 0 13 (C2v) n - 1
REM
REM in /home/nfs/bkarasulu/CARBON/AIRSS/Generating-Clusters/TERSOFF/Only-C1/FIRE-HFTN
REM
REM
REM
REM
REM
REM ./C.cell (11c1c37f851c82e70ff6c80c92926a4b)
REM AIRSS Version 0.9.1 bugfix July 2018 build 013d7b7c2542+ Fri, 06 Jul 2018 19:26:36 +0100
REM compiler GCC version 9.2.1 20190827 (Red Hat 9.2.1-1)
REM options -cpp -mtune=generic -march=x86-64 -g -O0 -fpre-include=/usr/include/finclude/math-vector-fortran.h
REM seed -702093100 -1680990245 91137288 -399459543 -1285137845 134438946 -668089208 -1977882495 277032476 -801914969 -1150062052 -501403737 -789355871 -28898146 783662137 -805134870 -1559405304 1766655479 1615454161 -611107003 1594503363 1523621130 1865954587 1105830786 969617555 1574240000 -375079384 -352769180 -1427875533 1445991860 -491218286 -1334338480 1324563129
REM
CELL 1.54180   50.00000   50.00000   50.00000   90.00000   90.00000   90.00000
LATT -1
SFAC C  
C      1  0.5384890000000  0.5400720000000  0.4387240000000 1.0
C      1  0.4779000000000  0.4769920000000  0.5351830000000 1.0
C      1  0.4917990000000  0.5319960000000  0.4529080000000 1.0
C      1  0.5116530000000  0.5416630000000  0.4376270000000 1.0
C      1  0.5031710000000  0.5033020000000  0.4949510000000 1.0
C      1  0.4532360000000  0.4513130000000  0.5744500000000 1.0
C      1  0.4411050000000  0.4386830000000  0.5937630000000 1.0
C      1  0.4902260000000  0.4898240000000  0.5155610000000 1.0
C      1  0.4655700000000  0.4641540000000  0.5548140000000 1.0
C      1  0.4888480000000  0.5171820000000  0.4750300000000 1.0
C      1  0.5312840000000  0.5037780000000  0.4929200000000 1.0
C      1  0.5551770000000  0.5279160000000  0.4559760000000 1.0
C      1  0.5515410000000  0.5131260000000  0.4780930000000 1.0
END
