TITL C-612606-7351-49 6977.3077226576 125000 -792.491164304243 0 0 129 (C1) n - 1
REM
REM in /home/nfs/bkarasulu/CARBON/AIRSS/Generating-Clusters/TERSOFF/Only-C1/FIRE-HFTN
REM
REM
REM
REM
REM
REM ./C.cell (11c1c37f851c82e70ff6c80c92926a4b)
REM AIRSS Version 0.9.1 bugfix July 2018 build 013d7b7c2542+ Fri, 06 Jul 2018 19:26:36 +0100
REM compiler GCC version 9.2.1 20190827 (Red Hat 9.2.1-1)
REM options -cpp -mtune=generic -march=x86-64 -g -O0 -fpre-include=/usr/include/finclude/math-vector-fortran.h
REM seed -257835908 -1039671571 8795376 -933542827 -1527088490 619697626 -1163462643 -1713332044 -1325329152 -433007136 -97669223 -724610588 -1380382190 1677917493 524919515 2138262332 -1028079071 513391076 1564142984 661411572 -239740687 -207986005 36189414 1025406524 392955249 -633195378 -889493652 -1224917488 -1488342679 64544027 -2093428097 -1819257558 1830191714
REM
CELL 1.54180   50.00000   50.00000   50.00000   90.00000   90.00000   90.00000
LATT -1
SFAC C  
C      1  0.5367390000000  0.4755490000000  0.6065950000000 1.0
C      1  0.5416360000000  0.4150680000000  0.5615260000000 1.0
C      1  0.5063900000000  0.5426090000000  0.4977410000000 1.0
C      1  0.5105660000000  0.5218910000000  0.5593290000000 1.0
C      1  0.4900110000000  0.4937380000000  0.6213520000000 1.0
C      1  0.5829800000000  0.4742660000000  0.5712930000000 1.0
C      1  0.5326940000000  0.4877540000000  0.5178900000000 1.0
C      1  0.5038640000000  0.4352170000000  0.4282910000000 1.0
C      1  0.4503750000000  0.4769460000000  0.5397630000000 1.0
C      1  0.5049780000000  0.4796740000000  0.4703640000000 1.0
C      1  0.4172230000000  0.5664140000000  0.5053780000000 1.0
C      1  0.5237080000000  0.5656840000000  0.4958640000000 1.0
C      1  0.4196440000000  0.4875970000000  0.4351860000000 1.0
C      1  0.3956490000000  0.5665600000000  0.5487250000000 1.0
C      1  0.5184670000000  0.6180860000000  0.4795230000000 1.0
C      1  0.5476460000000  0.4434880000000  0.4530930000000 1.0
C      1  0.5597780000000  0.4515670000000  0.3848760000000 1.0
C      1  0.5137500000000  0.4930310000000  0.4454850000000 1.0
C      1  0.4036680000000  0.5057850000000  0.5453960000000 1.0
C      1  0.4961350000000  0.4971010000000  0.4010460000000 1.0
C      1  0.4751480000000  0.4362810000000  0.4340750000000 1.0
C      1  0.5003310000000  0.5847100000000  0.5734050000000 1.0
C      1  0.5085740000000  0.3835480000000  0.4692480000000 1.0
C      1  0.4528820000000  0.5172340000000  0.4815480000000 1.0
C      1  0.5326740000000  0.4093750000000  0.5877250000000 1.0
C      1  0.5155230000000  0.4506440000000  0.4065540000000 1.0
C      1  0.5142330000000  0.4819810000000  0.6224200000000 1.0
C      1  0.5634460000000  0.4872800000000  0.4400260000000 1.0
C      1  0.5585350000000  0.5082000000000  0.4560440000000 1.0
C      1  0.5441760000000  0.4546130000000  0.4070520000000 1.0
C      1  0.4608180000000  0.5774690000000  0.4453430000000 1.0
C      1  0.5379730000000  0.4261290000000  0.6086040000000 1.0
C      1  0.5654690000000  0.4973370000000  0.5716670000000 1.0
C      1  0.4741490000000  0.5971650000000  0.5344810000000 1.0
C      1  0.3662620000000  0.5058120000000  0.5851120000000 1.0
C      1  0.6085590000000  0.4870550000000  0.4742570000000 1.0
C      1  0.4434560000000  0.4939610000000  0.4939110000000 1.0
C      1  0.5389010000000  0.4042300000000  0.5141330000000 1.0
C      1  0.4110870000000  0.5118600000000  0.4505240000000 1.0
C      1  0.5868020000000  0.4691270000000  0.5420240000000 1.0
C      1  0.5459050000000  0.5200810000000  0.4778940000000 1.0
C      1  0.4861050000000  0.4947690000000  0.5128070000000 1.0
C      1  0.5150670000000  0.5799750000000  0.5185100000000 1.0
C      1  0.5674700000000  0.5412570000000  0.3978510000000 1.0
C      1  0.4475040000000  0.4790210000000  0.4392980000000 1.0
C      1  0.5185030000000  0.5200390000000  0.4866590000000 1.0
C      1  0.4725440000000  0.5059320000000  0.5779480000000 1.0
C      1  0.5149860000000  0.5083270000000  0.4198190000000 1.0
C      1  0.4922110000000  0.5970460000000  0.5129960000000 1.0
C      1  0.4702720000000  0.5061020000000  0.4074370000000 1.0
C      1  0.4805060000000  0.5963130000000  0.4589300000000 1.0
C      1  0.4662440000000  0.4587930000000  0.4497880000000 1.0
C      1  0.4468920000000  0.5164090000000  0.6181700000000 1.0
C      1  0.4564080000000  0.5413050000000  0.4969620000000 1.0
C      1  0.5395150000000  0.4914960000000  0.5828550000000 1.0
C      1  0.4690440000000  0.5057880000000  0.6063190000000 1.0
C      1  0.4764890000000  0.5498760000000  0.5433800000000 1.0
C      1  0.4800580000000  0.5448030000000  0.5133580000000 1.0
C      1  0.5157020000000  0.4950230000000  0.5682020000000 1.0
C      1  0.4169290000000  0.4538120000000  0.4800420000000 1.0
C      1  0.5009480000000  0.4706200000000  0.3929520000000 1.0
C      1  0.4196230000000  0.4812350000000  0.4855620000000 1.0
C      1  0.5712250000000  0.4503780000000  0.5838780000000 1.0
C      1  0.4826000000000  0.5286230000000  0.5615690000000 1.0
C      1  0.5233680000000  0.4270040000000  0.4480290000000 1.0
C      1  0.5512010000000  0.5720030000000  0.4875350000000 1.0
C      1  0.5216930000000  0.5367080000000  0.4140170000000 1.0
C      1  0.4893260000000  0.4491040000000  0.5278870000000 1.0
C      1  0.4752860000000  0.4647120000000  0.5494160000000 1.0
C      1  0.5050800000000  0.6006310000000  0.4413670000000 1.0
C      1  0.6037620000000  0.4270740000000  0.4958530000000 1.0
C      1  0.5603200000000  0.4367340000000  0.4785720000000 1.0
C      1  0.4214540000000  0.5396770000000  0.4473480000000 1.0
C      1  0.3484290000000  0.5065700000000  0.6041100000000 1.0
C      1  0.5166850000000  0.4422890000000  0.5316050000000 1.0
C      1  0.5439630000000  0.4135100000000  0.4881140000000 1.0
C      1  0.5493830000000  0.5829080000000  0.4600930000000 1.0
C      1  0.3991710000000  0.5246790000000  0.5237920000000 1.0
C      1  0.5628730000000  0.4341410000000  0.5607170000000 1.0
C      1  0.5271290000000  0.5633250000000  0.5391770000000 1.0
C      1  0.5950960000000  0.4742970000000  0.4946730000000 1.0
C      1  0.5638160000000  0.4518650000000  0.5371180000000 1.0
C      1  0.4794560000000  0.5772240000000  0.5542870000000 1.0
C      1  0.5455020000000  0.5146620000000  0.5276600000000 1.0
C      1  0.4597940000000  0.3687470000000  0.4732460000000 1.0
C      1  0.5029390000000  0.5532620000000  0.4498000000000 1.0
C      1  0.4380070000000  0.5623780000000  0.4583120000000 1.0
C      1  0.5482810000000  0.5477990000000  0.4162630000000 1.0
C      1  0.4038790000000  0.5529230000000  0.5264960000000 1.0
C      1  0.4827410000000  0.4614210000000  0.4734430000000 1.0
C      1  0.5690000000000  0.5133040000000  0.5482000000000 1.0
C      1  0.5548910000000  0.4615640000000  0.4326810000000 1.0
C      1  0.5927390000000  0.5159190000000  0.5291980000000 1.0
C      1  0.5242730000000  0.4063780000000  0.4678770000000 1.0
C      1  0.4893920000000  0.5327590000000  0.4593530000000 1.0
C      1  0.5828720000000  0.5380240000000  0.5110850000000 1.0
C      1  0.3843530000000  0.5051990000000  0.5657720000000 1.0
C      1  0.3904010000000  0.5161540000000  0.4981240000000 1.0
C      1  0.4219840000000  0.4304090000000  0.4678740000000 1.0
C      1  0.4889780000000  0.4823640000000  0.5679080000000 1.0
C      1  0.4612710000000  0.5034430000000  0.4339400000000 1.0
C      1  0.4027560000000  0.4747120000000  0.4179150000000 1.0
C      1  0.5277670000000  0.5895320000000  0.5744770000000 1.0
C      1  0.5458120000000  0.5790810000000  0.5543900000000 1.0
C      1  0.4556570000000  0.4159480000000  0.4345890000000 1.0
C      1  0.4591800000000  0.4879180000000  0.5153760000000 1.0
C      1  0.5593110000000  0.5243260000000  0.5018240000000 1.0
C      1  0.5108170000000  0.4935310000000  0.4968370000000 1.0
C      1  0.5687290000000  0.5801680000000  0.5362020000000 1.0
C      1  0.4735690000000  0.5670930000000  0.4199070000000 1.0
C      1  0.5005740000000  0.5555810000000  0.4215400000000 1.0
C      1  0.5852400000000  0.4468880000000  0.4896710000000 1.0
C      1  0.5381710000000  0.4614480000000  0.5275560000000 1.0
C      1  0.5297150000000  0.6043200000000  0.4567110000000 1.0
C      1  0.5513920000000  0.4510370000000  0.6050700000000 1.0
C      1  0.5958650000000  0.4867540000000  0.5211680000000 1.0
C      1  0.4019860000000  0.5023910000000  0.4766060000000 1.0
C      1  0.5271810000000  0.4159610000000  0.5370080000000 1.0
C      1  0.4384810000000  0.5614780000000  0.4876780000000 1.0
C      1  0.4391200000000  0.3843830000000  0.4665980000000 1.0
C      1  0.5543350000000  0.5660440000000  0.4375460000000 1.0
C      1  0.4669610000000  0.5175660000000  0.4573500000000 1.0
C      1  0.4365650000000  0.4098360000000  0.4549820000000 1.0
C      1  0.5727380000000  0.5666410000000  0.5099180000000 1.0
C      1  0.4864620000000  0.3693230000000  0.4731840000000 1.0
C      1  0.5274430000000  0.5347200000000  0.5411420000000 1.0
C      1  0.4915120000000  0.6070340000000  0.4862000000000 1.0
C      1  0.4806820000000  0.4485510000000  0.4996200000000 1.0
C      1  0.4255420000000  0.4875110000000  0.5479390000000 1.0
END
