TITL C-612602-9376-98 36836.3028041028 125000 -970.495197072973 0 0 159 (C1) n - 1
REM
REM in /home/nfs/bkarasulu/CARBON/AIRSS/Generating-Clusters/TERSOFF/Only-C1/FIRE-HFTN
REM
REM
REM
REM
REM
REM ./C.cell (11c1c37f851c82e70ff6c80c92926a4b)
REM AIRSS Version 0.9.1 bugfix July 2018 build 013d7b7c2542+ Fri, 06 Jul 2018 19:26:36 +0100
REM compiler GCC version 9.2.1 20190827 (Red Hat 9.2.1-1)
REM options -cpp -mtune=generic -march=x86-64 -g -O0 -fpre-include=/usr/include/finclude/math-vector-fortran.h
REM seed 643756423 -1516513883 1538883527 -1646832442 955114218 -37652523 -376647387 1517593756 -1672437725 -1511998645 -2012192485 -661306496 -218388924 -1421464522 -757605232 -1421117476 144240624 -348019711 1895582225 1256025331 -350646193 -1966192548 572927464 1768071480 2050052097 -2000165234 -587211373 64923960 858810675 -1003512220 759158211 -2048661816 -1964465284
REM
CELL 1.54180   50.00000   50.00000   50.00000   90.00000   90.00000   90.00000
LATT -1
SFAC C  
C      1  0.4974280000000  0.4227080000000  0.5726160000000 1.0
C      1  0.4132900000000  0.4802960000000  0.5660800000000 1.0
C      1  0.5206370000000  0.4765830000000  0.5193810000000 1.0
C      1  0.4835570000000  0.4894460000000  0.4851710000000 1.0
C      1  0.3806820000000  0.4610620000000  0.4247570000000 1.0
C      1  0.5114620000000  0.6095750000000  0.4764780000000 1.0
C      1  0.4968090000000  0.4886050000000  0.5097900000000 1.0
C      1  0.4143710000000  0.4372230000000  0.4830760000000 1.0
C      1  0.4930650000000  0.4036170000000  0.4387070000000 1.0
C      1  0.5787500000000  0.4252840000000  0.4652410000000 1.0
C      1  0.5758020000000  0.4998840000000  0.5801100000000 1.0
C      1  0.4933890000000  0.4297940000000  0.4269900000000 1.0
C      1  0.5630210000000  0.4041800000000  0.4562530000000 1.0
C      1  0.6258970000000  0.4781440000000  0.5220360000000 1.0
C      1  0.4603460000000  0.4403550000000  0.4579720000000 1.0
C      1  0.4443940000000  0.4547570000000  0.6286980000000 1.0
C      1  0.5268510000000  0.5198920000000  0.4727270000000 1.0
C      1  0.4484900000000  0.4775810000000  0.3969620000000 1.0
C      1  0.4185340000000  0.5779730000000  0.4373950000000 1.0
C      1  0.5384860000000  0.5103850000000  0.5440880000000 1.0
C      1  0.5543090000000  0.5568450000000  0.5375570000000 1.0
C      1  0.4754700000000  0.3934910000000  0.4611070000000 1.0
C      1  0.4332070000000  0.5818610000000  0.5019170000000 1.0
C      1  0.5543750000000  0.4963020000000  0.6002990000000 1.0
C      1  0.5958430000000  0.5426950000000  0.5563870000000 1.0
C      1  0.5907390000000  0.4532450000000  0.5136760000000 1.0
C      1  0.4489230000000  0.5221060000000  0.4873970000000 1.0
C      1  0.4934700000000  0.4485630000000  0.5598300000000 1.0
C      1  0.5758160000000  0.5264200000000  0.5690280000000 1.0
C      1  0.4808160000000  0.5156430000000  0.6024910000000 1.0
C      1  0.5359210000000  0.6111050000000  0.5464400000000 1.0
C      1  0.5455960000000  0.4699710000000  0.6050690000000 1.0
C      1  0.4851950000000  0.5094640000000  0.5544390000000 1.0
C      1  0.6212390000000  0.5467930000000  0.5650750000000 1.0
C      1  0.4997890000000  0.4011390000000  0.5546050000000 1.0
C      1  0.5500850000000  0.5335100000000  0.5566190000000 1.0
C      1  0.5633480000000  0.4930380000000  0.4659720000000 1.0
C      1  0.4079240000000  0.5666750000000  0.5067120000000 1.0
C      1  0.5036370000000  0.5794690000000  0.4362530000000 1.0
C      1  0.5112140000000  0.6122780000000  0.5047030000000 1.0
C      1  0.4294380000000  0.4615390000000  0.4882440000000 1.0
C      1  0.5953350000000  0.5478200000000  0.5070140000000 1.0
C      1  0.5286550000000  0.5980000000000  0.5225070000000 1.0
C      1  0.4613320000000  0.6190600000000  0.5190350000000 1.0
C      1  0.4798110000000  0.3992290000000  0.5338850000000 1.0
C      1  0.5263990000000  0.4845230000000  0.5470340000000 1.0
C      1  0.4956030000000  0.5268780000000  0.3688710000000 1.0
C      1  0.4593190000000  0.4752830000000  0.5331190000000 1.0
C      1  0.4272620000000  0.4127790000000  0.4750250000000 1.0
C      1  0.4536040000000  0.5257360000000  0.6055280000000 1.0
C      1  0.4781950000000  0.4985340000000  0.5797610000000 1.0
C      1  0.5265820000000  0.4552400000000  0.4649950000000 1.0
C      1  0.5886610000000  0.4777410000000  0.5639810000000 1.0
C      1  0.5744500000000  0.5044910000000  0.5124600000000 1.0
C      1  0.5864040000000  0.5318670000000  0.4475850000000 1.0
C      1  0.4363540000000  0.4813100000000  0.4683490000000 1.0
C      1  0.3922950000000  0.5084850000000  0.5289520000000 1.0
C      1  0.5901770000000  0.5214780000000  0.4961120000000 1.0
C      1  0.5466260000000  0.3979790000000  0.4807820000000 1.0
C      1  0.5209950000000  0.3873130000000  0.4731620000000 1.0
C      1  0.4526340000000  0.5715400000000  0.4829310000000 1.0
C      1  0.4489040000000  0.5238370000000  0.4150830000000 1.0
C      1  0.4791020000000  0.4952190000000  0.5309440000000 1.0
C      1  0.4939430000000  0.3856910000000  0.4830780000000 1.0
C      1  0.4009800000000  0.5537210000000  0.5335440000000 1.0
C      1  0.6251180000000  0.4714880000000  0.4947410000000 1.0
C      1  0.5077560000000  0.5970050000000  0.5844210000000 1.0
C      1  0.6130840000000  0.4807770000000  0.5468920000000 1.0
C      1  0.4943780000000  0.5357700000000  0.5549620000000 1.0
C      1  0.4874440000000  0.6233960000000  0.5152420000000 1.0
C      1  0.4862540000000  0.3850350000000  0.5100970000000 1.0
C      1  0.5584390000000  0.4334990000000  0.5439910000000 1.0
C      1  0.4933990000000  0.4570020000000  0.4293180000000 1.0
C      1  0.5115320000000  0.4933390000000  0.3986240000000 1.0
C      1  0.5589400000000  0.5339720000000  0.4388740000000 1.0
C      1  0.5334160000000  0.5696810000000  0.5214940000000 1.0
C      1  0.5342940000000  0.4756150000000  0.4012750000000 1.0
C      1  0.5192490000000  0.3920080000000  0.4433850000000 1.0
C      1  0.3752890000000  0.5372620000000  0.4799740000000 1.0
C      1  0.4799100000000  0.5584750000000  0.5620820000000 1.0
C      1  0.4443270000000  0.4367880000000  0.5528280000000 1.0
C      1  0.4959490000000  0.5914360000000  0.4613520000000 1.0
C      1  0.3986750000000  0.5277680000000  0.5496600000000 1.0
C      1  0.5248950000000  0.5380930000000  0.4060850000000 1.0
C      1  0.4875950000000  0.5031890000000  0.3832970000000 1.0
C      1  0.5482220000000  0.5134330000000  0.5170060000000 1.0
C      1  0.4302870000000  0.5218310000000  0.5912940000000 1.0
C      1  0.3808290000000  0.5218810000000  0.4575450000000 1.0
C      1  0.4964180000000  0.5508710000000  0.4840490000000 1.0
C      1  0.4636080000000  0.4745870000000  0.5824450000000 1.0
C      1  0.5269380000000  0.3932340000000  0.5518670000000 1.0
C      1  0.4015360000000  0.4731120000000  0.4347310000000 1.0
C      1  0.5048320000000  0.4427670000000  0.4758840000000 1.0
C      1  0.5131970000000  0.5151240000000  0.4178060000000 1.0
C      1  0.5817200000000  0.4778490000000  0.5148890000000 1.0
C      1  0.4594890000000  0.4200480000000  0.5311670000000 1.0
C      1  0.4462760000000  0.5456780000000  0.4735890000000 1.0
C      1  0.5147730000000  0.5432380000000  0.3799260000000 1.0
C      1  0.4838100000000  0.5635640000000  0.4225030000000 1.0
C      1  0.5413780000000  0.4628250000000  0.5060890000000 1.0
C      1  0.4058800000000  0.5598080000000  0.4545500000000 1.0
C      1  0.4638110000000  0.4364530000000  0.5067480000000 1.0
C      1  0.5456290000000  0.5125440000000  0.4540380000000 1.0
C      1  0.5370440000000  0.5174150000000  0.6112110000000 1.0
C      1  0.4426120000000  0.5986210000000  0.5229480000000 1.0
C      1  0.4531570000000  0.4646300000000  0.6062340000000 1.0
C      1  0.4038780000000  0.5324170000000  0.4429480000000 1.0
C      1  0.5186420000000  0.5521510000000  0.5042410000000 1.0
C      1  0.5906330000000  0.4493890000000  0.4557510000000 1.0
C      1  0.4367800000000  0.5206880000000  0.5126110000000 1.0
C      1  0.5875420000000  0.5114720000000  0.4690380000000 1.0
C      1  0.6155560000000  0.5675990000000  0.4654150000000 1.0
C      1  0.5268530000000  0.6107160000000  0.5716530000000 1.0
C      1  0.6056060000000  0.5521170000000  0.4457590000000 1.0
C      1  0.5493890000000  0.4083660000000  0.5535710000000 1.0
C      1  0.5151370000000  0.4292880000000  0.5946150000000 1.0
C      1  0.5510370000000  0.4378350000000  0.5163060000000 1.0
C      1  0.5421750000000  0.5516440000000  0.4236970000000 1.0
C      1  0.3872000000000  0.4373780000000  0.4869570000000 1.0
C      1  0.5320880000000  0.5774150000000  0.4308280000000 1.0
C      1  0.4579520000000  0.4979530000000  0.4767360000000 1.0
C      1  0.5330060000000  0.5277670000000  0.4987070000000 1.0
C      1  0.4653900000000  0.4583780000000  0.5577110000000 1.0
C      1  0.6119620000000  0.4618090000000  0.4720580000000 1.0
C      1  0.5456960000000  0.3979940000000  0.4344290000000 1.0
C      1  0.4543800000000  0.5595260000000  0.5499850000000 1.0
C      1  0.4134080000000  0.5045080000000  0.5126560000000 1.0
C      1  0.4478660000000  0.4425370000000  0.4341670000000 1.0
C      1  0.4197980000000  0.4534320000000  0.5593690000000 1.0
C      1  0.5772110000000  0.4602590000000  0.4318790000000 1.0
C      1  0.4227070000000  0.4888610000000  0.4444080000000 1.0
C      1  0.4427380000000  0.5849960000000  0.5475880000000 1.0
C      1  0.5273220000000  0.4549660000000  0.5907280000000 1.0
C      1  0.4807120000000  0.5739950000000  0.4779380000000 1.0
C      1  0.4900220000000  0.5777230000000  0.5795020000000 1.0
C      1  0.4480660000000  0.4606600000000  0.5107410000000 1.0
C      1  0.4898570000000  0.4821970000000  0.4394540000000 1.0
C      1  0.5496820000000  0.5387470000000  0.6233930000000 1.0
C      1  0.5734370000000  0.4531380000000  0.5590690000000 1.0
C      1  0.5568390000000  0.4669030000000  0.4145420000000 1.0
C      1  0.4254250000000  0.5156650000000  0.4330030000000 1.0
C      1  0.3941010000000  0.5593770000000  0.4823100000000 1.0
C      1  0.6105120000000  0.5658810000000  0.4917800000000 1.0
C      1  0.4579950000000  0.5522110000000  0.4169660000000 1.0
C      1  0.5008770000000  0.5283630000000  0.4641760000000 1.0
C      1  0.4476500000000  0.3971210000000  0.4661890000000 1.0
C      1  0.5484580000000  0.5993180000000  0.4312210000000 1.0
C      1  0.5472520000000  0.4703760000000  0.4782000000000 1.0
C      1  0.4131140000000  0.5107460000000  0.5706030000000 1.0
C      1  0.4612320000000  0.5030580000000  0.3969420000000 1.0
C      1  0.5079920000000  0.5178750000000  0.6113740000000 1.0
C      1  0.5562450000000  0.4175440000000  0.4978350000000 1.0
C      1  0.4372150000000  0.5716190000000  0.4190560000000 1.0
C      1  0.4459110000000  0.5376060000000  0.5336550000000 1.0
C      1  0.5164040000000  0.4661790000000  0.5659750000000 1.0
C      1  0.4967250000000  0.5106280000000  0.4409140000000 1.0
C      1  0.5838040000000  0.5546670000000  0.5324420000000 1.0
C      1  0.4445200000000  0.4548800000000  0.4106000000000 1.0
C      1  0.4773760000000  0.4377080000000  0.4811130000000 1.0
END
