TITL C-612606-7351-1004 2.00145642607312 125000 -285.68863787544 0 0 49 (C1) n - 1
REM
REM in /home/nfs/bkarasulu/CARBON/AIRSS/Generating-Clusters/TERSOFF/Only-C1/FIRE-HFTN
REM
REM
REM
REM
REM
REM ./C.cell (11c1c37f851c82e70ff6c80c92926a4b)
REM AIRSS Version 0.9.1 bugfix July 2018 build 013d7b7c2542+ Fri, 06 Jul 2018 19:26:36 +0100
REM compiler GCC version 9.2.1 20190827 (Red Hat 9.2.1-1)
REM options -cpp -mtune=generic -march=x86-64 -g -O0 -fpre-include=/usr/include/finclude/math-vector-fortran.h
REM seed 1019386163 918320775 -1587550120 -1704736252 1783545600 -2053610344 -1643672340 1801990213 1836802515 -541371493 973534676 -205377807 -545517777 -275964732 -1480613623 1061496028 -719288844 -1256741185 -980287790 713106036 1303659354 676988434 817269840 -556771653 1132933710 1143630948 1761698740 1119654246 -1700577090 722589936 274352546 1050341255 -518018311
REM
CELL 1.54180   50.00000   50.00000   50.00000   90.00000   90.00000   90.00000
LATT -1
SFAC C  
C      1  0.4685960000000  0.6072940000000  0.5309100000000 1.0
C      1  0.5261940000000  0.5112550000000  0.5729480000000 1.0
C      1  0.4769290000000  0.4300700000000  0.5068510000000 1.0
C      1  0.5105200000000  0.4230850000000  0.4608400000000 1.0
C      1  0.4617500000000  0.4703080000000  0.4851140000000 1.0
C      1  0.5870740000000  0.4680480000000  0.3731980000000 1.0
C      1  0.4715810000000  0.4439980000000  0.4819840000000 1.0
C      1  0.4069210000000  0.6013440000000  0.5193170000000 1.0
C      1  0.5623570000000  0.4760910000000  0.5303530000000 1.0
C      1  0.4464700000000  0.5659450000000  0.5171180000000 1.0
C      1  0.5817270000000  0.4444980000000  0.4896580000000 1.0
C      1  0.4059190000000  0.6281930000000  0.5261880000000 1.0
C      1  0.4923150000000  0.4869650000000  0.5476840000000 1.0
C      1  0.5679820000000  0.4200430000000  0.4820140000000 1.0
C      1  0.4728780000000  0.4456260000000  0.5300750000000 1.0
C      1  0.4578500000000  0.4329030000000  0.4107150000000 1.0
C      1  0.5190140000000  0.4904890000000  0.5558360000000 1.0
C      1  0.4961140000000  0.4095740000000  0.5045230000000 1.0
C      1  0.4551740000000  0.6299410000000  0.5348000000000 1.0
C      1  0.5380250000000  0.4723050000000  0.5460100000000 1.0
C      1  0.4457760000000  0.4327590000000  0.3876100000000 1.0
C      1  0.4220160000000  0.5796420000000  0.5162620000000 1.0
C      1  0.4524350000000  0.5127540000000  0.5086880000000 1.0
C      1  0.4703420000000  0.5802550000000  0.5236760000000 1.0
C      1  0.5688940000000  0.4533740000000  0.5138220000000 1.0
C      1  0.5898250000000  0.4594470000000  0.4449460000000 1.0
C      1  0.4473930000000  0.5385620000000  0.5117780000000 1.0
C      1  0.6210320000000  0.4709580000000  0.4799440000000 1.0
C      1  0.5496600000000  0.4388610000000  0.4278130000000 1.0
C      1  0.5179060000000  0.4120860000000  0.4864500000000 1.0
C      1  0.5980870000000  0.4586510000000  0.4717540000000 1.0
C      1  0.3845270000000  0.6476930000000  0.5277650000000 1.0
C      1  0.5436500000000  0.4160360000000  0.4970930000000 1.0
C      1  0.5733540000000  0.4530960000000  0.4231960000000 1.0
C      1  0.5315750000000  0.4443580000000  0.5411940000000 1.0
C      1  0.4621470000000  0.4867600000000  0.5082470000000 1.0
C      1  0.5382710000000  0.5538960000000  0.6011960000000 1.0
C      1  0.5292920000000  0.4276690000000  0.4406620000000 1.0
C      1  0.4702260000000  0.4330770000000  0.4341370000000 1.0
C      1  0.4738360000000  0.4740500000000  0.5311790000000 1.0
C      1  0.4220630000000  0.6699280000000  0.5398730000000 1.0
C      1  0.4838180000000  0.4336050000000  0.4584490000000 1.0
C      1  0.5471100000000  0.4333060000000  0.5200470000000 1.0
C      1  0.4952090000000  0.5675870000000  0.5227640000000 1.0
C      1  0.5180360000000  0.5552410000000  0.5203640000000 1.0
C      1  0.3946540000000  0.6722510000000  0.5359240000000 1.0
C      1  0.5804310000000  0.4608180000000  0.3973400000000 1.0
C      1  0.4306280000000  0.6428300000000  0.5341520000000 1.0
C      1  0.5324170000000  0.5324750000000  0.5875400000000 1.0
END
