TITL C-612603-7354-391 3.70408732607426e-05 125000 -673.041429928859 0 0 111 (C1) n - 1
REM
REM in /home/nfs/bkarasulu/CARBON/AIRSS/Generating-Clusters/TERSOFF/Only-C1/FIRE-HFTN
REM
REM
REM
REM
REM
REM ./C.cell (11c1c37f851c82e70ff6c80c92926a4b)
REM AIRSS Version 0.9.1 bugfix July 2018 build 013d7b7c2542+ Fri, 06 Jul 2018 19:26:36 +0100
REM compiler GCC version 9.2.1 20190827 (Red Hat 9.2.1-1)
REM options -cpp -mtune=generic -march=x86-64 -g -O0 -fpre-include=/usr/include/finclude/math-vector-fortran.h
REM seed -256486594 -572550839 -2098099409 1687418612 1719124496 -1931184840 -1023407181 -1326098997 -1299949804 554654176 112263725 295361884 -1389359296 1197308362 1351696597 658056870 1170356409 -213533811 3147725 2084388008 -345483919 1900808679 -1264650403 -560566381 -548168945 215681250 1333683587 -1042276478 -939390395 -412996003 -1339592336 1204770947 -35593009
REM
CELL 1.54180   50.00000   50.00000   50.00000   90.00000   90.00000   90.00000
LATT -1
SFAC C  
C      1  0.4676410000000  0.4127240000000  0.5104900000000 1.0
C      1  0.5145810000000  0.4675290000000  0.4733790000000 1.0
C      1  0.4932330000000  0.4103720000000  0.5692250000000 1.0
C      1  0.4518670000000  0.5051860000000  0.5261850000000 1.0
C      1  0.5237900000000  0.4308260000000  0.5372440000000 1.0
C      1  0.5500440000000  0.5494270000000  0.4699980000000 1.0
C      1  0.5088630000000  0.5828640000000  0.5155290000000 1.0
C      1  0.5462940000000  0.4514720000000  0.5310490000000 1.0
C      1  0.5232840000000  0.5064190000000  0.6112610000000 1.0
C      1  0.5958250000000  0.4344850000000  0.4958350000000 1.0
C      1  0.5436280000000  0.5255820000000  0.4864660000000 1.0
C      1  0.4268860000000  0.4330800000000  0.4544380000000 1.0
C      1  0.4695800000000  0.4662410000000  0.5886230000000 1.0
C      1  0.5067830000000  0.5486190000000  0.5877070000000 1.0
C      1  0.4140760000000  0.5290360000000  0.5126700000000 1.0
C      1  0.4656090000000  0.4878890000000  0.4003830000000 1.0
C      1  0.5663590000000  0.5718470000000  0.5599960000000 1.0
C      1  0.4445640000000  0.5746950000000  0.4917980000000 1.0
C      1  0.4411560000000  0.5798340000000  0.4645680000000 1.0
C      1  0.4784210000000  0.5303340000000  0.4267370000000 1.0
C      1  0.4356420000000  0.4643120000000  0.5495490000000 1.0
C      1  0.3997520000000  0.4832560000000  0.5180910000000 1.0
C      1  0.4992170000000  0.4475950000000  0.5451730000000 1.0
C      1  0.5699370000000  0.5313010000000  0.5207420000000 1.0
C      1  0.4831070000000  0.5111540000000  0.4779110000000 1.0
C      1  0.3962400000000  0.5267910000000  0.5357880000000 1.0
C      1  0.4126210000000  0.4563200000000  0.4459200000000 1.0
C      1  0.5224520000000  0.4828190000000  0.5960060000000 1.0
C      1  0.4932920000000  0.4007250000000  0.5106730000000 1.0
C      1  0.5220120000000  0.4108310000000  0.5619550000000 1.0
C      1  0.4407080000000  0.4932600000000  0.5495990000000 1.0
C      1  0.5954780000000  0.4610140000000  0.4217750000000 1.0
C      1  0.4560190000000  0.4502640000000  0.5668420000000 1.0
C      1  0.4828180000000  0.5698760000000  0.5192080000000 1.0
C      1  0.5200970000000  0.4686190000000  0.4216730000000 1.0
C      1  0.5388140000000  0.4758300000000  0.4843440000000 1.0
C      1  0.5040580000000  0.5216120000000  0.5410150000000 1.0
C      1  0.4975420000000  0.5329820000000  0.4896990000000 1.0
C      1  0.4148030000000  0.4344410000000  0.5107870000000 1.0
C      1  0.5203320000000  0.5883580000000  0.4893250000000 1.0
C      1  0.5146640000000  0.5919380000000  0.5637370000000 1.0
C      1  0.4211890000000  0.4114560000000  0.5261800000000 1.0
C      1  0.4622200000000  0.4614990000000  0.4040170000000 1.0
C      1  0.4571270000000  0.5582030000000  0.5115000000000 1.0
C      1  0.5689350000000  0.5352890000000  0.4521530000000 1.0
C      1  0.4253140000000  0.5430850000000  0.4396940000000 1.0
C      1  0.5547450000000  0.5851720000000  0.5376080000000 1.0
C      1  0.5031990000000  0.4938710000000  0.5391790000000 1.0
C      1  0.5504700000000  0.5123800000000  0.4446460000000 1.0
C      1  0.5718420000000  0.5870910000000  0.5149790000000 1.0
C      1  0.4985700000000  0.5352940000000  0.5643710000000 1.0
C      1  0.5536320000000  0.4656560000000  0.5554310000000 1.0
C      1  0.5876670000000  0.5706190000000  0.5002230000000 1.0
C      1  0.6180670000000  0.4979260000000  0.5239730000000 1.0
C      1  0.5481960000000  0.4646760000000  0.4297010000000 1.0
C      1  0.4776840000000  0.4323200000000  0.5581320000000 1.0
C      1  0.5754430000000  0.4666330000000  0.4400530000000 1.0
C      1  0.5450700000000  0.4742700000000  0.5799240000000 1.0
C      1  0.4155720000000  0.4594510000000  0.5262150000000 1.0
C      1  0.3880090000000  0.5003490000000  0.5390740000000 1.0
C      1  0.5044440000000  0.5364860000000  0.4402500000000 1.0
C      1  0.4665710000000  0.4365970000000  0.4936860000000 1.0
C      1  0.5255630000000  0.5172360000000  0.4310350000000 1.0
C      1  0.5780470000000  0.5478900000000  0.5642580000000 1.0
C      1  0.4854550000000  0.4308400000000  0.4733030000000 1.0
C      1  0.5056940000000  0.5490370000000  0.4662510000000 1.0
C      1  0.5847800000000  0.4736590000000  0.4671330000000 1.0
C      1  0.4721340000000  0.4439960000000  0.4239700000000 1.0
C      1  0.6168110000000  0.4948890000000  0.4972890000000 1.0
C      1  0.5001120000000  0.4494190000000  0.4320150000000 1.0
C      1  0.5419550000000  0.5298840000000  0.5138220000000 1.0
C      1  0.5025890000000  0.4730890000000  0.5567790000000 1.0
C      1  0.4055230000000  0.5021180000000  0.4678790000000 1.0
C      1  0.4552750000000  0.5461000000000  0.4335830000000 1.0
C      1  0.4180400000000  0.5686030000000  0.4519290000000 1.0
C      1  0.5166010000000  0.5322840000000  0.6083230000000 1.0
C      1  0.5541900000000  0.4602690000000  0.5034280000000 1.0
C      1  0.5273650000000  0.5668760000000  0.4719350000000 1.0
C      1  0.5047710000000  0.4449760000000  0.4598570000000 1.0
C      1  0.5895630000000  0.5264300000000  0.4726230000000 1.0
C      1  0.4431000000000  0.5321450000000  0.5172580000000 1.0
C      1  0.4516880000000  0.4298850000000  0.4395970000000 1.0
C      1  0.4084090000000  0.5225150000000  0.4486160000000 1.0
C      1  0.5113220000000  0.4959360000000  0.4170360000000 1.0
C      1  0.5986030000000  0.4985450000000  0.4755420000000 1.0
C      1  0.5833120000000  0.5275810000000  0.5455230000000 1.0
C      1  0.4562350000000  0.4639940000000  0.4932740000000 1.0
C      1  0.4932190000000  0.4850140000000  0.5148700000000 1.0
C      1  0.4617050000000  0.5730760000000  0.4450130000000 1.0
C      1  0.5866950000000  0.5420610000000  0.4984400000000 1.0
C      1  0.4053650000000  0.5047500000000  0.4964750000000 1.0
C      1  0.5175160000000  0.4119170000000  0.5150140000000 1.0
C      1  0.4185240000000  0.4291690000000  0.4822540000000 1.0
C      1  0.5131100000000  0.5326050000000  0.5166350000000 1.0
C      1  0.5238670000000  0.6143390000000  0.4813140000000 1.0
C      1  0.4566130000000  0.5063540000000  0.4710840000000 1.0
C      1  0.4194960000000  0.4790840000000  0.4601530000000 1.0
C      1  0.5427590000000  0.3978150000000  0.5733380000000 1.0
C      1  0.5092930000000  0.5764330000000  0.5850300000000 1.0
C      1  0.4838230000000  0.5055810000000  0.4120140000000 1.0
C      1  0.4800460000000  0.5910330000000  0.4344560000000 1.0
C      1  0.5791740000000  0.4551930000000  0.4894440000000 1.0
C      1  0.4959040000000  0.6071560000000  0.4215040000000 1.0
C      1  0.6049410000000  0.5096230000000  0.5443780000000 1.0
C      1  0.4969120000000  0.4750680000000  0.5846400000000 1.0
C      1  0.4986270000000  0.4899150000000  0.4693680000000 1.0
C      1  0.5459790000000  0.5010410000000  0.4722150000000 1.0
C      1  0.5260910000000  0.5887560000000  0.5380720000000 1.0
C      1  0.4461540000000  0.4015540000000  0.5245080000000 1.0
C      1  0.4452890000000  0.4799710000000  0.4715980000000 1.0
C      1  0.4657110000000  0.4842180000000  0.5115480000000 1.0
END
