TITL C-612604-1799-1353 7001.516221826 125000 -751.629234953824 0 0 124 (C1) n - 1
REM
REM in /home/nfs/bkarasulu/CARBON/AIRSS/Generating-Clusters/TERSOFF/Only-C1/FIRE-HFTN
REM
REM
REM
REM
REM
REM ./C.cell (11c1c37f851c82e70ff6c80c92926a4b)
REM AIRSS Version 0.9.1 bugfix July 2018 build 013d7b7c2542+ Fri, 06 Jul 2018 19:26:36 +0100
REM compiler GCC version 9.2.1 20190827 (Red Hat 9.2.1-1)
REM options -cpp -mtune=generic -march=x86-64 -g -O0 -fpre-include=/usr/include/finclude/math-vector-fortran.h
REM seed -1192602210 -1608768927 -140440891 140453917 1495698038 1689050246 200580310 1900529248 -1889680372 697775049 1009262361 -51926926 -130483090 1766815128 -1048689363 1063177783 -916425009 -1996850460 1184346150 -179925834 1817712844 872186637 1451041756 -1142326198 1315508576 -697102234 -1838754775 -1182333818 58230566 -2087825303 1704890213 79992404 225416870
REM
CELL 1.54180   50.00000   50.00000   50.00000   90.00000   90.00000   90.00000
LATT -1
SFAC C  
C      1  0.5212730000000  0.5251980000000  0.4211550000000 1.0
C      1  0.4764480000000  0.5522060000000  0.5846270000000 1.0
C      1  0.5229860000000  0.5894710000000  0.5353290000000 1.0
C      1  0.5166250000000  0.5106590000000  0.4451880000000 1.0
C      1  0.4706430000000  0.5299670000000  0.4487040000000 1.0
C      1  0.4821450000000  0.5061520000000  0.5654340000000 1.0
C      1  0.4094060000000  0.5669630000000  0.5345440000000 1.0
C      1  0.6136880000000  0.4967470000000  0.5137960000000 1.0
C      1  0.5883070000000  0.4428410000000  0.6866390000000 1.0
C      1  0.5068560000000  0.5142430000000  0.5107030000000 1.0
C      1  0.5543190000000  0.5307480000000  0.5434270000000 1.0
C      1  0.5015960000000  0.4531460000000  0.3785070000000 1.0
C      1  0.5347740000000  0.4887240000000  0.5322460000000 1.0
C      1  0.5061660000000  0.4775640000000  0.3680630000000 1.0
C      1  0.5731060000000  0.5797250000000  0.4812400000000 1.0
C      1  0.4784820000000  0.5442170000000  0.4716580000000 1.0
C      1  0.4298820000000  0.4984040000000  0.5637710000000 1.0
C      1  0.5505180000000  0.5877980000000  0.4954610000000 1.0
C      1  0.5214880000000  0.5538420000000  0.4284120000000 1.0
C      1  0.4029140000000  0.5211140000000  0.5166760000000 1.0
C      1  0.5155370000000  0.4787690000000  0.4780930000000 1.0
C      1  0.5827880000000  0.5533250000000  0.4806410000000 1.0
C      1  0.4725680000000  0.4945380000000  0.5404940000000 1.0
C      1  0.5287150000000  0.4711720000000  0.5564050000000 1.0
C      1  0.3817280000000  0.5019820000000  0.5181150000000 1.0
C      1  0.5114430000000  0.4490660000000  0.5477020000000 1.0
C      1  0.5417060000000  0.4799540000000  0.4156760000000 1.0
C      1  0.4385630000000  0.5885290000000  0.4500470000000 1.0
C      1  0.3893750000000  0.4745860000000  0.5202180000000 1.0
C      1  0.4273400000000  0.4102280000000  0.5136000000000 1.0
C      1  0.4012440000000  0.4359750000000  0.5480720000000 1.0
C      1  0.5007960000000  0.5834060000000  0.5536170000000 1.0
C      1  0.5753690000000  0.4187970000000  0.4930800000000 1.0
C      1  0.5814830000000  0.4412510000000  0.6615280000000 1.0
C      1  0.5591600000000  0.5482910000000  0.5225870000000 1.0
C      1  0.5705070000000  0.5145070000000  0.5616900000000 1.0
C      1  0.5605600000000  0.4800100000000  0.4391240000000 1.0
C      1  0.5209180000000  0.5270230000000  0.4868720000000 1.0
C      1  0.5646940000000  0.4389700000000  0.6113470000000 1.0
C      1  0.4977480000000  0.4945310000000  0.4595080000000 1.0
C      1  0.5378920000000  0.5158320000000  0.4644400000000 1.0
C      1  0.5184950000000  0.4995770000000  0.3776220000000 1.0
C      1  0.4294450000000  0.5110630000000  0.5178700000000 1.0
C      1  0.4672640000000  0.5254750000000  0.5809770000000 1.0
C      1  0.5270970000000  0.5323540000000  0.5532640000000 1.0
C      1  0.4570490000000  0.5966210000000  0.4712710000000 1.0
C      1  0.5223530000000  0.5595960000000  0.5922930000000 1.0
C      1  0.5061550000000  0.5322540000000  0.5336710000000 1.0
C      1  0.5325220000000  0.5353820000000  0.5823420000000 1.0
C      1  0.5726480000000  0.4362790000000  0.4720700000000 1.0
C      1  0.4838830000000  0.6039750000000  0.4637440000000 1.0
C      1  0.5286510000000  0.4475140000000  0.5066970000000 1.0
C      1  0.4496240000000  0.5887060000000  0.4235840000000 1.0
C      1  0.4830440000000  0.5480790000000  0.5335310000000 1.0
C      1  0.5152040000000  0.6084900000000  0.5136540000000 1.0
C      1  0.5708430000000  0.5354410000000  0.4998200000000 1.0
C      1  0.3977900000000  0.5490710000000  0.5161800000000 1.0
C      1  0.5120420000000  0.4522870000000  0.4664730000000 1.0
C      1  0.5156670000000  0.3943680000000  0.4552500000000 1.0
C      1  0.5266720000000  0.6020010000000  0.4876530000000 1.0
C      1  0.5946320000000  0.4929610000000  0.4933360000000 1.0
C      1  0.4148260000000  0.4159950000000  0.5365800000000 1.0
C      1  0.3960650000000  0.5688070000000  0.4691740000000 1.0
C      1  0.5060720000000  0.5486080000000  0.4743230000000 1.0
C      1  0.4599950000000  0.5541330000000  0.4896330000000 1.0
C      1  0.5525860000000  0.4395530000000  0.5864430000000 1.0
C      1  0.5379550000000  0.4090420000000  0.5261430000000 1.0
C      1  0.5417570000000  0.4901930000000  0.5015650000000 1.0
C      1  0.4530340000000  0.5419020000000  0.4300240000000 1.0
C      1  0.3965990000000  0.4635930000000  0.5458090000000 1.0
C      1  0.4299530000000  0.5841510000000  0.5363500000000 1.0
C      1  0.5528120000000  0.4618180000000  0.5691190000000 1.0
C      1  0.5655420000000  0.4068410000000  0.5162450000000 1.0
C      1  0.4225320000000  0.5137390000000  0.4523950000000 1.0
C      1  0.5191290000000  0.4024420000000  0.4805700000000 1.0
C      1  0.4425940000000  0.4949040000000  0.4561120000000 1.0
C      1  0.4551800000000  0.5861520000000  0.5238800000000 1.0
C      1  0.5050360000000  0.4593220000000  0.5206150000000 1.0
C      1  0.4079290000000  0.4810710000000  0.5648800000000 1.0
C      1  0.6032370000000  0.4791760000000  0.4713840000000 1.0
C      1  0.4267310000000  0.5406590000000  0.4428200000000 1.0
C      1  0.4705540000000  0.5013140000000  0.4540700000000 1.0
C      1  0.5077660000000  0.3998670000000  0.4301330000000 1.0
C      1  0.5599120000000  0.4549000000000  0.5220500000000 1.0
C      1  0.5109500000000  0.5942850000000  0.4647790000000 1.0
C      1  0.5461840000000  0.5743710000000  0.5216250000000 1.0
C      1  0.5378490000000  0.4179620000000  0.5753600000000 1.0
C      1  0.5250530000000  0.4192310000000  0.5021010000000 1.0
C      1  0.5717470000000  0.4665800000000  0.5476340000000 1.0
C      1  0.4449250000000  0.3842980000000  0.4622330000000 1.0
C      1  0.5853640000000  0.4918370000000  0.5523200000000 1.0
C      1  0.4291980000000  0.4216870000000  0.4878770000000 1.0
C      1  0.5264940000000  0.4549780000000  0.4195170000000 1.0
C      1  0.3962940000000  0.4607050000000  0.4967610000000 1.0
C      1  0.4456800000000  0.4279570000000  0.4088560000000 1.0
C      1  0.4189070000000  0.5667080000000  0.4533290000000 1.0
C      1  0.4553530000000  0.5813770000000  0.4955960000000 1.0
C      1  0.4122440000000  0.4437250000000  0.4837200000000 1.0
C      1  0.5253040000000  0.4217230000000  0.5499410000000 1.0
C      1  0.6103170000000  0.4956740000000  0.5403200000000 1.0
C      1  0.5303950000000  0.5041490000000  0.4028170000000 1.0
C      1  0.5837370000000  0.5223190000000  0.4443350000000 1.0
C      1  0.4861850000000  0.4408850000000  0.4667660000000 1.0
C      1  0.4578750000000  0.5645520000000  0.4138990000000 1.0
C      1  0.4936210000000  0.4199880000000  0.4159460000000 1.0
C      1  0.5159060000000  0.5672240000000  0.4542760000000 1.0
C      1  0.4671060000000  0.4250740000000  0.4254760000000 1.0
C      1  0.5738970000000  0.4398260000000  0.6361700000000 1.0
C      1  0.4990420000000  0.5698870000000  0.5798310000000 1.0
C      1  0.4401940000000  0.5167040000000  0.5829570000000 1.0
C      1  0.4651180000000  0.4272120000000  0.4540120000000 1.0
C      1  0.4463330000000  0.4111060000000  0.4680250000000 1.0
C      1  0.3871010000000  0.5603280000000  0.4927990000000 1.0
C      1  0.5077160000000  0.4413590000000  0.4033030000000 1.0
C      1  0.3553940000000  0.5092500000000  0.5176970000000 1.0
C      1  0.4442690000000  0.4986280000000  0.5382710000000 1.0
C      1  0.4926950000000  0.4878950000000  0.5196600000000 1.0
C      1  0.4776310000000  0.5755860000000  0.5377400000000 1.0
C      1  0.5590320000000  0.4537170000000  0.4537970000000 1.0
C      1  0.5315990000000  0.4461960000000  0.4468010000000 1.0
C      1  0.5945650000000  0.5428080000000  0.4576790000000 1.0
C      1  0.5622870000000  0.5057530000000  0.4515060000000 1.0
C      1  0.5571590000000  0.5206410000000  0.5869610000000 1.0
C      1  0.5686560000000  0.5056700000000  0.4972560000000 1.0
END
