TITL C-612600-6631-30 0.0172545514871843 125000 -825.255939000781 0 0 132 (C1) n - 1
REM
REM in /home/nfs/bkarasulu/CARBON/AIRSS/Generating-Clusters/TERSOFF/Only-C1/FIRE-HFTN
REM
REM
REM
REM
REM
REM ./C.cell (11c1c37f851c82e70ff6c80c92926a4b)
REM AIRSS Version 0.9.1 bugfix July 2018 build 013d7b7c2542+ Fri, 06 Jul 2018 19:26:36 +0100
REM compiler GCC version 9.2.1 20190827 (Red Hat 9.2.1-1)
REM options -cpp -mtune=generic -march=x86-64 -g -O0 -fpre-include=/usr/include/finclude/math-vector-fortran.h
REM seed -1346652032 1105906936 1314522331 264113764 -298965963 -1745339901 38225522 -990382413 1107791103 1408380279 1276416900 -907758993 -2023048178 1934821210 -256191633 -1925857380 -1345465358 1632330698 669716444 1805250626 2129724789 1340396446 428412237 -2126468024 1406294170 1084774486 -922479278 -652298394 -1570110322 684380866 1257851263 1460774619 -1790732269
REM
CELL 1.54180   50.00000   50.00000   50.00000   90.00000   90.00000   90.00000
LATT -1
SFAC C  
C      1  0.5352350000000  0.5284660000000  0.4045510000000 1.0
C      1  0.4670870000000  0.5298070000000  0.4551680000000 1.0
C      1  0.4842640000000  0.4751010000000  0.6101300000000 1.0
C      1  0.5753490000000  0.5435290000000  0.3715840000000 1.0
C      1  0.5132530000000  0.4318770000000  0.4236140000000 1.0
C      1  0.5242440000000  0.4038340000000  0.4963340000000 1.0
C      1  0.4709780000000  0.4907050000000  0.5902030000000 1.0
C      1  0.4072720000000  0.4784620000000  0.4363280000000 1.0
C      1  0.4822690000000  0.5943630000000  0.4568620000000 1.0
C      1  0.4773770000000  0.4687060000000  0.5097860000000 1.0
C      1  0.5630290000000  0.5189810000000  0.5665340000000 1.0
C      1  0.4737420000000  0.4623630000000  0.4093970000000 1.0
C      1  0.5302280000000  0.5093180000000  0.6031240000000 1.0
C      1  0.5021630000000  0.5490280000000  0.5603750000000 1.0
C      1  0.4553170000000  0.5390030000000  0.5022780000000 1.0
C      1  0.5017710000000  0.4561880000000  0.4124080000000 1.0
C      1  0.5176250000000  0.6053980000000  0.4942030000000 1.0
C      1  0.5875980000000  0.4443960000000  0.5015060000000 1.0
C      1  0.5258600000000  0.4684860000000  0.5220990000000 1.0
C      1  0.4069800000000  0.4484510000000  0.5152230000000 1.0
C      1  0.4983120000000  0.4942470000000  0.4604980000000 1.0
C      1  0.4153170000000  0.5071110000000  0.4757410000000 1.0
C      1  0.3949640000000  0.5191760000000  0.4904130000000 1.0
C      1  0.5148630000000  0.5478020000000  0.4108590000000 1.0
C      1  0.4674270000000  0.4909870000000  0.4043640000000 1.0
C      1  0.5448870000000  0.4587640000000  0.4671620000000 1.0
C      1  0.5215010000000  0.5843010000000  0.6490380000000 1.0
C      1  0.5453520000000  0.5847900000000  0.5342180000000 1.0
C      1  0.5548330000000  0.5217850000000  0.5940680000000 1.0
C      1  0.5037810000000  0.3937690000000  0.5154110000000 1.0
C      1  0.5046770000000  0.4492590000000  0.5602810000000 1.0
C      1  0.5397010000000  0.4043880000000  0.5401080000000 1.0
C      1  0.4362940000000  0.5599650000000  0.5013300000000 1.0
C      1  0.4204590000000  0.4549360000000  0.5396330000000 1.0
C      1  0.5403020000000  0.4266270000000  0.4163890000000 1.0
C      1  0.4307240000000  0.5185390000000  0.4273680000000 1.0
C      1  0.5434250000000  0.5033920000000  0.4872930000000 1.0
C      1  0.4395030000000  0.4959450000000  0.4093660000000 1.0
C      1  0.4739030000000  0.5375200000000  0.4809080000000 1.0
C      1  0.5882160000000  0.4407430000000  0.4736720000000 1.0
C      1  0.4989060000000  0.5710550000000  0.5171250000000 1.0
C      1  0.5483650000000  0.5357490000000  0.5492010000000 1.0
C      1  0.5104800000000  0.6002840000000  0.4660390000000 1.0
C      1  0.4400740000000  0.5792210000000  0.4806930000000 1.0
C      1  0.5310520000000  0.5873260000000  0.5601200000000 1.0
C      1  0.5312280000000  0.4805000000000  0.5979200000000 1.0
C      1  0.4954360000000  0.5984710000000  0.5109510000000 1.0
C      1  0.4588880000000  0.5166990000000  0.5196620000000 1.0
C      1  0.4448220000000  0.4147440000000  0.4608090000000 1.0
C      1  0.4479670000000  0.4576410000000  0.5469600000000 1.0
C      1  0.4768950000000  0.3999210000000  0.5124140000000 1.0
C      1  0.5133000000000  0.5564440000000  0.6030980000000 1.0
C      1  0.5661840000000  0.4908960000000  0.5585900000000 1.0
C      1  0.4404840000000  0.4214260000000  0.4886770000000 1.0
C      1  0.5134660000000  0.5086470000000  0.4803500000000 1.0
C      1  0.5024300000000  0.3935870000000  0.5681620000000 1.0
C      1  0.5425670000000  0.5473270000000  0.5061590000000 1.0
C      1  0.5061160000000  0.4184490000000  0.4482110000000 1.0
C      1  0.5621380000000  0.4299220000000  0.4318590000000 1.0
C      1  0.5089950000000  0.4624850000000  0.6040980000000 1.0
C      1  0.5890680000000  0.5326200000000  0.4929600000000 1.0
C      1  0.5518250000000  0.4970600000000  0.4379470000000 1.0
C      1  0.4776940000000  0.5333030000000  0.5655270000000 1.0
C      1  0.4838230000000  0.5114930000000  0.4143290000000 1.0
C      1  0.4464250000000  0.4260050000000  0.4358150000000 1.0
C      1  0.3273120000000  0.4551440000000  0.5096400000000 1.0
C      1  0.5206700000000  0.5294810000000  0.5484330000000 1.0
C      1  0.5624870000000  0.5900210000000  0.4855240000000 1.0
C      1  0.4836530000000  0.5773740000000  0.4330520000000 1.0
C      1  0.4615220000000  0.5970660000000  0.4766820000000 1.0
C      1  0.4576700000000  0.4919170000000  0.5059380000000 1.0
C      1  0.5283510000000  0.5845900000000  0.4491110000000 1.0
C      1  0.5274060000000  0.4508380000000  0.5443750000000 1.0
C      1  0.5009120000000  0.5328700000000  0.4881400000000 1.0
C      1  0.5014080000000  0.4119850000000  0.5882250000000 1.0
C      1  0.4645080000000  0.4471970000000  0.5248690000000 1.0
C      1  0.5742320000000  0.4316600000000  0.5445980000000 1.0
C      1  0.4347380000000  0.4900850000000  0.4881160000000 1.0
C      1  0.5156370000000  0.4214300000000  0.4750740000000 1.0
C      1  0.5143940000000  0.5512680000000  0.5037250000000 1.0
C      1  0.5590240000000  0.5305340000000  0.4870460000000 1.0
C      1  0.3725380000000  0.5249570000000  0.5032980000000 1.0
C      1  0.5700210000000  0.4835310000000  0.5302560000000 1.0
C      1  0.6107280000000  0.4872710000000  0.5048250000000 1.0
C      1  0.5505130000000  0.4862410000000  0.4637690000000 1.0
C      1  0.3791520000000  0.4478240000000  0.5141230000000 1.0
C      1  0.5258640000000  0.5975200000000  0.6710800000000 1.0
C      1  0.5517260000000  0.5756560000000  0.4621660000000 1.0
C      1  0.3503900000000  0.5292890000000  0.5163460000000 1.0
C      1  0.4571490000000  0.4752500000000  0.5688530000000 1.0
C      1  0.5747130000000  0.4241480000000  0.5162870000000 1.0
C      1  0.5534600000000  0.5567430000000  0.5307160000000 1.0
C      1  0.5465510000000  0.4304980000000  0.5511180000000 1.0
C      1  0.5058850000000  0.4627100000000  0.5023760000000 1.0
C      1  0.4174190000000  0.5635190000000  0.5207160000000 1.0
C      1  0.5357210000000  0.5012930000000  0.4151040000000 1.0
C      1  0.6069520000000  0.5113880000000  0.4941950000000 1.0
C      1  0.5150110000000  0.5687620000000  0.5763050000000 1.0
C      1  0.5048790000000  0.4399880000000  0.5869270000000 1.0
C      1  0.5141500000000  0.3923450000000  0.5424980000000 1.0
C      1  0.4226030000000  0.4436860000000  0.4917070000000 1.0
C      1  0.5992640000000  0.5590040000000  0.4956360000000 1.0
C      1  0.5461970000000  0.4871410000000  0.5142280000000 1.0
C      1  0.5568190000000  0.5475010000000  0.4616410000000 1.0
C      1  0.5911550000000  0.4699900000000  0.5150680000000 1.0
C      1  0.4355610000000  0.4644190000000  0.4770200000000 1.0
C      1  0.5210760000000  0.4489990000000  0.4807740000000 1.0
C      1  0.5131660000000  0.5710700000000  0.4283080000000 1.0
C      1  0.4131780000000  0.5049340000000  0.4472190000000 1.0
C      1  0.4273340000000  0.4697160000000  0.4176810000000 1.0
C      1  0.4849670000000  0.4697450000000  0.4614550000000 1.0
C      1  0.4853710000000  0.5115010000000  0.4428790000000 1.0
C      1  0.4675010000000  0.5567610000000  0.4193670000000 1.0
C      1  0.4599110000000  0.4218370000000  0.5101240000000 1.0
C      1  0.5034010000000  0.5098120000000  0.5375120000000 1.0
C      1  0.4814670000000  0.5181180000000  0.5896140000000 1.0
C      1  0.3529220000000  0.4508750000000  0.5119820000000 1.0
C      1  0.5527560000000  0.4744040000000  0.5789020000000 1.0
C      1  0.4484810000000  0.4490880000000  0.4187820000000 1.0
C      1  0.5558410000000  0.5361310000000  0.3871970000000 1.0
C      1  0.4709250000000  0.6081950000000  0.5013220000000 1.0
C      1  0.5890830000000  0.5836770000000  0.4923530000000 1.0
C      1  0.4490030000000  0.5396860000000  0.4349890000000 1.0
C      1  0.4875260000000  0.5386240000000  0.4058600000000 1.0
C      1  0.4601700000000  0.4602330000000  0.4638450000000 1.0
C      1  0.5434190000000  0.5983330000000  0.5062390000000 1.0
C      1  0.5068490000000  0.5268930000000  0.6032690000000 1.0
C      1  0.5657410000000  0.4417820000000  0.4569770000000 1.0
C      1  0.5500480000000  0.4072630000000  0.5114350000000 1.0
C      1  0.5171410000000  0.5708480000000  0.6266380000000 1.0
C      1  0.5200730000000  0.4784030000000  0.4073400000000 1.0
C      1  0.4755910000000  0.5171540000000  0.5416270000000 1.0
END
