TITL C-612603-7354-486 -114600.930303929 125000 -733.866600153457 0 0 122 (C1) n - 1
REM
REM in /home/nfs/bkarasulu/CARBON/AIRSS/Generating-Clusters/TERSOFF/Only-C1/FIRE-HFTN
REM
REM
REM
REM
REM
REM ./C.cell (11c1c37f851c82e70ff6c80c92926a4b)
REM AIRSS Version 0.9.1 bugfix July 2018 build 013d7b7c2542+ Fri, 06 Jul 2018 19:26:36 +0100
REM compiler GCC version 9.2.1 20190827 (Red Hat 9.2.1-1)
REM options -cpp -mtune=generic -march=x86-64 -g -O0 -fpre-include=/usr/include/finclude/math-vector-fortran.h
REM seed -947652664 -1214922538 2077908605 -863947475 -619884324 1041413569 1045039101 -1448206083 433813575 1124023233 401436840 851049745 -1168827346 775256968 -298032315 1325268893 -1443946418 812055016 689588311 -1773349992 1826135057 1604395472 -2112486751 -1607500543 1998932384 1592420480 2044869510 -221945400 933188836 -766505599 -627047944 -1856558770 -1029119761
REM
CELL 1.54180   50.00000   50.00000   50.00000   90.00000   90.00000   90.00000
LATT -1
SFAC C  
C      1  0.5665530000000  0.5178810000000  0.5686120000000 1.0
C      1  0.5472640000000  0.4797170000000  0.5445090000000 1.0
C      1  0.4170500000000  0.5644640000000  0.5012000000000 1.0
C      1  0.4511570000000  0.4063510000000  0.4653930000000 1.0
C      1  0.5266630000000  0.4957160000000  0.5802940000000 1.0
C      1  0.4461420000000  0.5523210000000  0.5369710000000 1.0
C      1  0.4103180000000  0.4855580000000  0.5205780000000 1.0
C      1  0.5201020000000  0.5107090000000  0.4271360000000 1.0
C      1  0.4936770000000  0.5669560000000  0.4255840000000 1.0
C      1  0.4793280000000  0.5715820000000  0.4496500000000 1.0
C      1  0.4620770000000  0.5278100000000  0.4653680000000 1.0
C      1  0.5212840000000  0.4776070000000  0.6220530000000 1.0
C      1  0.5658390000000  0.5612590000000  0.5284850000000 1.0
C      1  0.4510580000000  0.4490100000000  0.4459080000000 1.0
C      1  0.5022200000000  0.4846620000000  0.4893960000000 1.0
C      1  0.5055970000000  0.5052160000000  0.4500040000000 1.0
C      1  0.5691920000000  0.4011430000000  0.4737690000000 1.0
C      1  0.5822600000000  0.4933440000000  0.4971380000000 1.0
C      1  0.5323190000000  0.4711800000000  0.5230930000000 1.0
C      1  0.5265510000000  0.5319980000000  0.6064820000000 1.0
C      1  0.4886870000000  0.5167290000000  0.5840120000000 1.0
C      1  0.5412930000000  0.4930270000000  0.4259560000000 1.0
C      1  0.5296270000000  0.5440230000000  0.4774660000000 1.0
C      1  0.4132430000000  0.5164560000000  0.5252730000000 1.0
C      1  0.4520160000000  0.5934440000000  0.4840620000000 1.0
C      1  0.5542510000000  0.4192090000000  0.4881100000000 1.0
C      1  0.5002670000000  0.5950720000000  0.4958550000000 1.0
C      1  0.4506850000000  0.4994270000000  0.4266790000000 1.0
C      1  0.4279840000000  0.5771390000000  0.4770290000000 1.0
C      1  0.4818760000000  0.4669620000000  0.5957620000000 1.0
C      1  0.5550800000000  0.5811760000000  0.5082920000000 1.0
C      1  0.5219580000000  0.4984470000000  0.4740870000000 1.0
C      1  0.3997350000000  0.5231560000000  0.4323240000000 1.0
C      1  0.5674220000000  0.4386910000000  0.5304080000000 1.0
C      1  0.4776300000000  0.4219890000000  0.5035050000000 1.0
C      1  0.4473510000000  0.5400220000000  0.5922010000000 1.0
C      1  0.4830860000000  0.5938300000000  0.5207100000000 1.0
C      1  0.4975150000000  0.5470250000000  0.4074080000000 1.0
C      1  0.5069650000000  0.4785390000000  0.5163340000000 1.0
C      1  0.4670460000000  0.5234560000000  0.4933690000000 1.0
C      1  0.4244470000000  0.4585950000000  0.4515620000000 1.0
C      1  0.5372920000000  0.5218100000000  0.5254540000000 1.0
C      1  0.4580270000000  0.5523710000000  0.4527230000000 1.0
C      1  0.4068520000000  0.4713660000000  0.4332870000000 1.0
C      1  0.4737660000000  0.4208130000000  0.4176650000000 1.0
C      1  0.5037440000000  0.5193710000000  0.4058130000000 1.0
C      1  0.5511170000000  0.5357580000000  0.5877840000000 1.0
C      1  0.5409080000000  0.4351110000000  0.4427930000000 1.0
C      1  0.4487850000000  0.5050680000000  0.4545470000000 1.0
C      1  0.5435470000000  0.4261460000000  0.5733020000000 1.0
C      1  0.5769240000000  0.5798740000000  0.4888380000000 1.0
C      1  0.4629180000000  0.4893600000000  0.4028930000000 1.0
C      1  0.5139500000000  0.4254070000000  0.5380240000000 1.0
C      1  0.5383920000000  0.4784960000000  0.4605390000000 1.0
C      1  0.4063600000000  0.5377930000000  0.5057610000000 1.0
C      1  0.4904660000000  0.5731030000000  0.5394380000000 1.0
C      1  0.5616480000000  0.5389200000000  0.4358570000000 1.0
C      1  0.5861640000000  0.4531060000000  0.5471600000000 1.0
C      1  0.5916950000000  0.5551620000000  0.4909280000000 1.0
C      1  0.4604760000000  0.4844150000000  0.5290340000000 1.0
C      1  0.5137310000000  0.5599670000000  0.5485330000000 1.0
C      1  0.4393080000000  0.4919260000000  0.4792240000000 1.0
C      1  0.4287550000000  0.4319820000000  0.5052290000000 1.0
C      1  0.5876950000000  0.5427730000000  0.5180530000000 1.0
C      1  0.5548800000000  0.5074550000000  0.5430240000000 1.0
C      1  0.5365740000000  0.4723490000000  0.5695970000000 1.0
C      1  0.4963330000000  0.5392040000000  0.6016580000000 1.0
C      1  0.5048730000000  0.4157060000000  0.5121940000000 1.0
C      1  0.4898560000000  0.4960610000000  0.3983570000000 1.0
C      1  0.5792180000000  0.4668930000000  0.4488280000000 1.0
C      1  0.3979080000000  0.4965150000000  0.4288480000000 1.0
C      1  0.5441610000000  0.4250850000000  0.5439690000000 1.0
C      1  0.5422120000000  0.4689850000000  0.4119970000000 1.0
C      1  0.4737200000000  0.5507670000000  0.5311320000000 1.0
C      1  0.5928770000000  0.4736610000000  0.5637740000000 1.0
C      1  0.4544900000000  0.5940230000000  0.5133820000000 1.0
C      1  0.5231800000000  0.4471700000000  0.5810030000000 1.0
C      1  0.4358520000000  0.5214650000000  0.5725990000000 1.0
C      1  0.5394020000000  0.5183120000000  0.4896630000000 1.0
C      1  0.4753790000000  0.4626230000000  0.4529400000000 1.0
C      1  0.5873460000000  0.4929160000000  0.4382910000000 1.0
C      1  0.4760610000000  0.4500090000000  0.5016560000000 1.0
C      1  0.5678900000000  0.4417120000000  0.5007690000000 1.0
C      1  0.5679490000000  0.5132250000000  0.4816610000000 1.0
C      1  0.5606520000000  0.4516290000000  0.4290070000000 1.0
C      1  0.4699430000000  0.5509670000000  0.6046720000000 1.0
C      1  0.5788610000000  0.4655290000000  0.4845420000000 1.0
C      1  0.4818370000000  0.4665880000000  0.4795810000000 1.0
C      1  0.5430630000000  0.5498920000000  0.4528270000000 1.0
C      1  0.4819890000000  0.4440640000000  0.4018040000000 1.0
C      1  0.4837000000000  0.5404600000000  0.5066500000000 1.0
C      1  0.4169780000000  0.4596170000000  0.5042910000000 1.0
C      1  0.5090950000000  0.5128220000000  0.5648240000000 1.0
C      1  0.5002170000000  0.4658850000000  0.4393210000000 1.0
C      1  0.4509090000000  0.4145410000000  0.4934580000000 1.0
C      1  0.5275750000000  0.5020530000000  0.6088120000000 1.0
C      1  0.5290950000000  0.5920310000000  0.5008840000000 1.0
C      1  0.4771130000000  0.4947700000000  0.5980310000000 1.0
C      1  0.4307670000000  0.5611730000000  0.4536950000000 1.0
C      1  0.5179130000000  0.5318740000000  0.5445670000000 1.0
C      1  0.4229600000000  0.4695450000000  0.4777100000000 1.0
C      1  0.5854320000000  0.5342270000000  0.4731210000000 1.0
C      1  0.4597590000000  0.4620240000000  0.3941860000000 1.0
C      1  0.4346110000000  0.5741450000000  0.5228730000000 1.0
C      1  0.4991400000000  0.4406230000000  0.5600090000000 1.0
C      1  0.5057610000000  0.5497840000000  0.4915510000000 1.0
C      1  0.4799180000000  0.5901900000000  0.4724600000000 1.0
C      1  0.5939100000000  0.5123880000000  0.5178090000000 1.0
C      1  0.4565790000000  0.4211300000000  0.4412870000000 1.0
C      1  0.4108500000000  0.5462590000000  0.4404800000000 1.0
C      1  0.5052040000000  0.4639840000000  0.4098620000000 1.0
C      1  0.5789940000000  0.5181080000000  0.4313710000000 1.0
C      1  0.4546580000000  0.4761060000000  0.5565670000000 1.0
C      1  0.4387510000000  0.4931660000000  0.5729580000000 1.0
C      1  0.4749350000000  0.4571640000000  0.5689700000000 1.0
C      1  0.5237830000000  0.4550160000000  0.4539620000000 1.0
C      1  0.5078410000000  0.4577970000000  0.6055900000000 1.0
C      1  0.4534930000000  0.5003020000000  0.5039510000000 1.0
C      1  0.5267700000000  0.4133560000000  0.4938920000000 1.0
C      1  0.4300160000000  0.5304400000000  0.5460910000000 1.0
C      1  0.5872890000000  0.4982740000000  0.5745820000000 1.0
C      1  0.4821410000000  0.4669490000000  0.5234970000000 1.0
END
