TITL C-612607-4507-677 10.6395213283526 125000 -979.10776959427 0 0 161 (C1) n - 1
REM
REM in /home/nfs/bkarasulu/CARBON/AIRSS/Generating-Clusters/TERSOFF/Only-C1/FIRE-HFTN
REM
REM
REM
REM
REM
REM ./C.cell (11c1c37f851c82e70ff6c80c92926a4b)
REM AIRSS Version 0.9.1 bugfix July 2018 build 013d7b7c2542+ Fri, 06 Jul 2018 19:26:36 +0100
REM compiler GCC version 9.2.1 20190827 (Red Hat 9.2.1-1)
REM options -cpp -mtune=generic -march=x86-64 -g -O0 -fpre-include=/usr/include/finclude/math-vector-fortran.h
REM seed -719827914 -154497498 -1524484633 -1757940417 739414112 -360385488 837230143 552747777 -564150806 1556105082 527596130 1585823883 1874367884 1313405022 1549410623 -2255274 -466436137 2012551094 -61338369 -976705881 -1494197551 151455513 773545382 405451991 -2045543335 -1395399024 1994444511 42812556 763700263 291756624 2059300044 1219156267 561975765
REM
CELL 1.54180   50.00000   50.00000   50.00000   90.00000   90.00000   90.00000
LATT -1
SFAC C  
C      1  0.5654100000000  0.5120370000000  0.4594430000000 1.0
C      1  0.5096050000000  0.4952660000000  0.4123410000000 1.0
C      1  0.5000460000000  0.3889510000000  0.5566350000000 1.0
C      1  0.5435570000000  0.5583270000000  0.3945240000000 1.0
C      1  0.5107620000000  0.4313340000000  0.4882580000000 1.0
C      1  0.4026210000000  0.4785860000000  0.5425170000000 1.0
C      1  0.5638900000000  0.5604720000000  0.5426760000000 1.0
C      1  0.4057810000000  0.5737420000000  0.5356090000000 1.0
C      1  0.4721380000000  0.5328180000000  0.6027850000000 1.0
C      1  0.4104050000000  0.4873240000000  0.4473010000000 1.0
C      1  0.5653180000000  0.4392000000000  0.4966960000000 1.0
C      1  0.4961300000000  0.5498850000000  0.3913600000000 1.0
C      1  0.3921810000000  0.5243220000000  0.4830210000000 1.0
C      1  0.4668510000000  0.5414190000000  0.4610640000000 1.0
C      1  0.4697710000000  0.4625180000000  0.5223440000000 1.0
C      1  0.4495730000000  0.5341400000000  0.4826310000000 1.0
C      1  0.5416320000000  0.5830320000000  0.5280650000000 1.0
C      1  0.5678400000000  0.4937370000000  0.4179660000000 1.0
C      1  0.5113420000000  0.3705990000000  0.5377090000000 1.0
C      1  0.5040770000000  0.4428390000000  0.6097250000000 1.0
C      1  0.5875900000000  0.4334760000000  0.4791660000000 1.0
C      1  0.5179150000000  0.5625930000000  0.5195860000000 1.0
C      1  0.4015710000000  0.5025860000000  0.5579210000000 1.0
C      1  0.4439740000000  0.5247930000000  0.5488760000000 1.0
C      1  0.4476120000000  0.5805680000000  0.4387350000000 1.0
C      1  0.4677740000000  0.4651370000000  0.4548930000000 1.0
C      1  0.4632250000000  0.5705420000000  0.5328690000000 1.0
C      1  0.5729670000000  0.5105310000000  0.5426660000000 1.0
C      1  0.5262540000000  0.4442680000000  0.5420280000000 1.0
C      1  0.5621380000000  0.5993440000000  0.5091620000000 1.0
C      1  0.5026090000000  0.6101960000000  0.4860820000000 1.0
C      1  0.5134570000000  0.4393050000000  0.3871780000000 1.0
C      1  0.5087930000000  0.5602180000000  0.4917800000000 1.0
C      1  0.4374260000000  0.4187530000000  0.5055200000000 1.0
C      1  0.4370060000000  0.6101780000000  0.5350990000000 1.0
C      1  0.5194030000000  0.4921790000000  0.4739040000000 1.0
C      1  0.4073560000000  0.5365730000000  0.4598410000000 1.0
C      1  0.4084990000000  0.4785100000000  0.4740700000000 1.0
C      1  0.5224090000000  0.5433420000000  0.3821880000000 1.0
C      1  0.5802330000000  0.4407350000000  0.5429850000000 1.0
C      1  0.5534790000000  0.5050660000000  0.6306880000000 1.0
C      1  0.5379940000000  0.4749640000000  0.4606130000000 1.0
C      1  0.4743530000000  0.5376270000000  0.4041760000000 1.0
C      1  0.3902080000000  0.4837000000000  0.5170460000000 1.0
C      1  0.4832970000000  0.4543780000000  0.4331490000000 1.0
C      1  0.5355930000000  0.5974470000000  0.5837790000000 1.0
C      1  0.4564360000000  0.4210180000000  0.5581350000000 1.0
C      1  0.4946240000000  0.4734100000000  0.5136880000000 1.0
C      1  0.4253370000000  0.4608460000000  0.4887590000000 1.0
C      1  0.4342980000000  0.5773290000000  0.4821400000000 1.0
C      1  0.4545100000000  0.5955250000000  0.4915940000000 1.0
C      1  0.5879630000000  0.5508560000000  0.4399850000000 1.0
C      1  0.5248150000000  0.4539020000000  0.5928540000000 1.0
C      1  0.4757320000000  0.5889230000000  0.4469290000000 1.0
C      1  0.5328940000000  0.5709830000000  0.4780650000000 1.0
C      1  0.4123000000000  0.4719600000000  0.4235580000000 1.0
C      1  0.6060950000000  0.5007450000000  0.5105000000000 1.0
C      1  0.5302260000000  0.4600380000000  0.4386000000000 1.0
C      1  0.5599440000000  0.5527860000000  0.5714800000000 1.0
C      1  0.4260330000000  0.5680890000000  0.4557610000000 1.0
C      1  0.4669700000000  0.3949960000000  0.4723830000000 1.0
C      1  0.4220770000000  0.4575400000000  0.5526880000000 1.0
C      1  0.4912000000000  0.5533450000000  0.4700380000000 1.0
C      1  0.5905670000000  0.4733610000000  0.4579460000000 1.0
C      1  0.5199880000000  0.4621800000000  0.5212480000000 1.0
C      1  0.5499590000000  0.5104240000000  0.4342380000000 1.0
C      1  0.5163940000000  0.4645390000000  0.3766910000000 1.0
C      1  0.5531600000000  0.5021170000000  0.6031950000000 1.0
C      1  0.5682760000000  0.5715210000000  0.4380610000000 1.0
C      1  0.4871770000000  0.5280450000000  0.5262340000000 1.0
C      1  0.5233290000000  0.6067850000000  0.5362510000000 1.0
C      1  0.4553370000000  0.3966930000000  0.4999300000000 1.0
C      1  0.5501390000000  0.5750300000000  0.5867560000000 1.0
C      1  0.4360670000000  0.4357690000000  0.4825850000000 1.0
C      1  0.5076620000000  0.5446480000000  0.5379170000000 1.0
C      1  0.4782010000000  0.4371410000000  0.6024020000000 1.0
C      1  0.4561560000000  0.5952760000000  0.5204730000000 1.0
C      1  0.5875410000000  0.5292960000000  0.4563270000000 1.0
C      1  0.4937620000000  0.5424530000000  0.5860680000000 1.0
C      1  0.4852220000000  0.4344780000000  0.4856810000000 1.0
C      1  0.5778290000000  0.5600140000000  0.4956160000000 1.0
C      1  0.4292570000000  0.5167390000000  0.5928580000000 1.0
C      1  0.5211020000000  0.3995520000000  0.5723410000000 1.0
C      1  0.5236940000000  0.6114050000000  0.5640140000000 1.0
C      1  0.4599540000000  0.5186420000000  0.3872230000000 1.0
C      1  0.5881940000000  0.4787300000000  0.4296990000000 1.0
C      1  0.5648950000000  0.4831760000000  0.4714320000000 1.0
C      1  0.4656280000000  0.3867350000000  0.5240970000000 1.0
C      1  0.5520720000000  0.4266400000000  0.5412990000000 1.0
C      1  0.4710240000000  0.5032570000000  0.6070980000000 1.0
C      1  0.5308770000000  0.3743690000000  0.5196730000000 1.0
C      1  0.4980450000000  0.5035290000000  0.5136290000000 1.0
C      1  0.4138840000000  0.5983700000000  0.5428430000000 1.0
C      1  0.5262580000000  0.5041550000000  0.5005080000000 1.0
C      1  0.5732340000000  0.5914010000000  0.4589460000000 1.0
C      1  0.5049380000000  0.4925730000000  0.5770300000000 1.0
C      1  0.4326460000000  0.5530630000000  0.4978580000000 1.0
C      1  0.5457700000000  0.4075890000000  0.5635740000000 1.0
C      1  0.5123290000000  0.4507990000000  0.5656130000000 1.0
C      1  0.5911640000000  0.5214780000000  0.5242860000000 1.0
C      1  0.5074690000000  0.6165620000000  0.5140080000000 1.0
C      1  0.4447260000000  0.4694460000000  0.5085150000000 1.0
C      1  0.5144680000000  0.4254850000000  0.4127700000000 1.0
C      1  0.5251770000000  0.5164600000000  0.3727400000000 1.0
C      1  0.4738780000000  0.3988400000000  0.5490390000000 1.0
C      1  0.5490430000000  0.4942430000000  0.5451460000000 1.0
C      1  0.4392260000000  0.4636140000000  0.5800550000000 1.0
C      1  0.3933250000000  0.4957820000000  0.4910510000000 1.0
C      1  0.5060430000000  0.4702840000000  0.4261860000000 1.0
C      1  0.4965850000000  0.4931330000000  0.6036890000000 1.0
C      1  0.5992310000000  0.4550870000000  0.5293400000000 1.0
C      1  0.5465120000000  0.4748070000000  0.5921990000000 1.0
C      1  0.4619850000000  0.5354210000000  0.4319310000000 1.0
C      1  0.5529710000000  0.4179240000000  0.5118540000000 1.0
C      1  0.4683700000000  0.4769430000000  0.5481450000000 1.0
C      1  0.4627180000000  0.5423950000000  0.5359970000000 1.0
C      1  0.4350050000000  0.4313160000000  0.5379980000000 1.0
C      1  0.5829880000000  0.5495060000000  0.5218920000000 1.0
C      1  0.5440020000000  0.5637810000000  0.4228490000000 1.0
C      1  0.4990100000000  0.5039880000000  0.4595110000000 1.0
C      1  0.5775190000000  0.5881280000000  0.4875680000000 1.0
C      1  0.5422750000000  0.5277660000000  0.4965660000000 1.0
C      1  0.3874050000000  0.5415700000000  0.5047690000000 1.0
C      1  0.4766070000000  0.6028520000000  0.4740810000000 1.0
C      1  0.5178750000000  0.5174930000000  0.4325310000000 1.0
C      1  0.4576610000000  0.4387910000000  0.5823380000000 1.0
C      1  0.5599730000000  0.5266000000000  0.5866170000000 1.0
C      1  0.4896060000000  0.4247540000000  0.4306040000000 1.0
C      1  0.5809110000000  0.4201920000000  0.4551320000000 1.0
C      1  0.5123040000000  0.5361390000000  0.5641970000000 1.0
C      1  0.4166560000000  0.5154300000000  0.4433010000000 1.0
C      1  0.5128700000000  0.3903680000000  0.4573760000000 1.0
C      1  0.5375490000000  0.4340380000000  0.4288610000000 1.0
C      1  0.5257160000000  0.5983770000000  0.4731980000000 1.0
C      1  0.4462520000000  0.4972170000000  0.5106870000000 1.0
C      1  0.4253550000000  0.4808260000000  0.4013460000000 1.0
C      1  0.5524870000000  0.5511240000000  0.4853570000000 1.0
C      1  0.5612140000000  0.4689040000000  0.4990710000000 1.0
C      1  0.4450210000000  0.4911360000000  0.5962990000000 1.0
C      1  0.4722960000000  0.4929210000000  0.4653510000000 1.0
C      1  0.4922280000000  0.4718570000000  0.5628000000000 1.0
C      1  0.4551920000000  0.5070130000000  0.4861410000000 1.0
C      1  0.4392560000000  0.5052060000000  0.4009780000000 1.0
C      1  0.4379150000000  0.5199580000000  0.4261060000000 1.0
C      1  0.4442410000000  0.5390800000000  0.6034530000000 1.0
C      1  0.5576950000000  0.4744030000000  0.5657920000000 1.0
C      1  0.4213710000000  0.5206670000000  0.5661000000000 1.0
C      1  0.5414010000000  0.3934840000000  0.5017920000000 1.0
C      1  0.5612780000000  0.4215050000000  0.4367060000000 1.0
C      1  0.4980570000000  0.5683680000000  0.4453810000000 1.0
C      1  0.6070370000000  0.4715610000000  0.5062990000000 1.0
C      1  0.5169460000000  0.4921460000000  0.3848590000000 1.0
C      1  0.5222630000000  0.5095630000000  0.5636840000000 1.0
C      1  0.4098300000000  0.5543350000000  0.5156890000000 1.0
C      1  0.4873120000000  0.4024010000000  0.4513500000000 1.0
C      1  0.5332210000000  0.3898070000000  0.4749200000000 1.0
C      1  0.6036770000000  0.4584130000000  0.4792550000000 1.0
C      1  0.5193920000000  0.5524700000000  0.4337880000000 1.0
C      1  0.5413880000000  0.4830010000000  0.5177670000000 1.0
C      1  0.4622270000000  0.4433710000000  0.4724720000000 1.0
C      1  0.4525410000000  0.4999210000000  0.5390400000000 1.0
END
