TITL C-612606-7351-1356 0.000197163325012495 125000 -405.001975229977 0 0 68 (C1) n - 1
REM
REM in /home/nfs/bkarasulu/CARBON/AIRSS/Generating-Clusters/TERSOFF/Only-C1/FIRE-HFTN
REM
REM
REM
REM
REM
REM ./C.cell (11c1c37f851c82e70ff6c80c92926a4b)
REM AIRSS Version 0.9.1 bugfix July 2018 build 013d7b7c2542+ Fri, 06 Jul 2018 19:26:36 +0100
REM compiler GCC version 9.2.1 20190827 (Red Hat 9.2.1-1)
REM options -cpp -mtune=generic -march=x86-64 -g -O0 -fpre-include=/usr/include/finclude/math-vector-fortran.h
REM seed -1393172483 453353418 385232006 -1100532238 -1418835431 1908155196 -138858442 -1223791427 -1182074523 965484882 -524926257 2107204735 -888708226 -252521660 -2135246193 -1972190177 789600341 -1614658296 92354364 351336582 2074575828 -1671777187 -1086533638 1354138121 1452046780 -2004374854 -799414953 642235543 20133827 -831714955 2001118936 185883303 -1355241955
REM
CELL 1.54180   50.00000   50.00000   50.00000   90.00000   90.00000   90.00000
LATT -1
SFAC C  
C      1  0.5229400000000  0.4512940000000  0.5588270000000 1.0
C      1  0.4811140000000  0.5198860000000  0.5416150000000 1.0
C      1  0.5049850000000  0.5124630000000  0.4845220000000 1.0
C      1  0.5079580000000  0.5067610000000  0.4291180000000 1.0
C      1  0.4293130000000  0.4890920000000  0.4741130000000 1.0
C      1  0.4795520000000  0.5031160000000  0.4341540000000 1.0
C      1  0.4707470000000  0.5646060000000  0.5798690000000 1.0
C      1  0.4352110000000  0.5157800000000  0.4636570000000 1.0
C      1  0.4724170000000  0.4541860000000  0.5581410000000 1.0
C      1  0.4419990000000  0.5495490000000  0.4997780000000 1.0
C      1  0.5766350000000  0.4865600000000  0.4428640000000 1.0
C      1  0.4508530000000  0.4661760000000  0.5434560000000 1.0
C      1  0.4633350000000  0.5441060000000  0.5958790000000 1.0
C      1  0.4699110000000  0.4765810000000  0.4318380000000 1.0
C      1  0.5821000000000  0.4612750000000  0.4320320000000 1.0
C      1  0.5344170000000  0.5629280000000  0.4722840000000 1.0
C      1  0.5828420000000  0.4894910000000  0.4922440000000 1.0
C      1  0.5473530000000  0.4420400000000  0.5468040000000 1.0
C      1  0.4261100000000  0.5397870000000  0.4778070000000 1.0
C      1  0.5794950000000  0.5022070000000  0.4674650000000 1.0
C      1  0.5620730000000  0.4496310000000  0.4175700000000 1.0
C      1  0.4961220000000  0.4643240000000  0.4697130000000 1.0
C      1  0.5145620000000  0.4672200000000  0.4915470000000 1.0
C      1  0.5220570000000  0.5315150000000  0.4376710000000 1.0
C      1  0.5415270000000  0.5178120000000  0.5823660000000 1.0
C      1  0.4679750000000  0.4366300000000  0.5102100000000 1.0
C      1  0.5341480000000  0.4560450000000  0.4216010000000 1.0
C      1  0.4948450000000  0.4355640000000  0.5208120000000 1.0
C      1  0.5500450000000  0.5249270000000  0.4391450000000 1.0
C      1  0.5227640000000  0.4199630000000  0.4568670000000 1.0
C      1  0.5343130000000  0.4929830000000  0.5891660000000 1.0
C      1  0.5399330000000  0.5339280000000  0.5609630000000 1.0
C      1  0.5243300000000  0.4211080000000  0.4837510000000 1.0
C      1  0.4611340000000  0.5019800000000  0.5031390000000 1.0
C      1  0.4973340000000  0.4448450000000  0.5478930000000 1.0
C      1  0.4447750000000  0.4789730000000  0.4963460000000 1.0
C      1  0.5204730000000  0.4941650000000  0.4993010000000 1.0
C      1  0.4502440000000  0.5207070000000  0.5938280000000 1.0
C      1  0.5324100000000  0.5076620000000  0.5210540000000 1.0
C      1  0.5552710000000  0.4161080000000  0.5508880000000 1.0
C      1  0.4375880000000  0.5577520000000  0.5465160000000 1.0
C      1  0.5634880000000  0.4592860000000  0.5312760000000 1.0
C      1  0.4493800000000  0.4577980000000  0.5152750000000 1.0
C      1  0.4636850000000  0.5683990000000  0.5527710000000 1.0
C      1  0.5158380000000  0.4405760000000  0.5024310000000 1.0
C      1  0.5262540000000  0.5311840000000  0.5365030000000 1.0
C      1  0.3806900000000  0.5647940000000  0.4629590000000 1.0
C      1  0.4648450000000  0.5199250000000  0.4551460000000 1.0
C      1  0.4026300000000  0.5526830000000  0.4701030000000 1.0
C      1  0.5207480000000  0.4349390000000  0.4345910000000 1.0
C      1  0.4819880000000  0.5638710000000  0.5298920000000 1.0
C      1  0.4993380000000  0.5407430000000  0.5349530000000 1.0
C      1  0.4369590000000  0.5378720000000  0.5261000000000 1.0
C      1  0.4774500000000  0.5139010000000  0.4824420000000 1.0
C      1  0.4541310000000  0.5132040000000  0.5304890000000 1.0
C      1  0.4665350000000  0.5489360000000  0.4461390000000 1.0
C      1  0.5659360000000  0.5281520000000  0.4635210000000 1.0
C      1  0.4437280000000  0.4929050000000  0.5502270000000 1.0
C      1  0.5545120000000  0.4990860000000  0.4286610000000 1.0
C      1  0.5255660000000  0.4694890000000  0.5800770000000 1.0
C      1  0.5754330000000  0.5605750000000  0.4990190000000 1.0
C      1  0.5168260000000  0.5545240000000  0.4532070000000 1.0
C      1  0.4779020000000  0.4591100000000  0.4507520000000 1.0
C      1  0.4407240000000  0.5022980000000  0.5767310000000 1.0
C      1  0.4672640000000  0.5644290000000  0.5041220000000 1.0
C      1  0.5290440000000  0.4848580000000  0.4235450000000 1.0
C      1  0.5765090000000  0.4738370000000  0.5130000000000 1.0
C      1  0.5593890000000  0.5508950000000  0.4792570000000 1.0
END
