TITL C-612607-4507-442 9.08088424150429 125000 -480.666915750067 0 0 80 (C1) n - 1
REM
REM in /home/nfs/bkarasulu/CARBON/AIRSS/Generating-Clusters/TERSOFF/Only-C1/FIRE-HFTN
REM
REM
REM
REM
REM
REM ./C.cell (11c1c37f851c82e70ff6c80c92926a4b)
REM AIRSS Version 0.9.1 bugfix July 2018 build 013d7b7c2542+ Fri, 06 Jul 2018 19:26:36 +0100
REM compiler GCC version 9.2.1 20190827 (Red Hat 9.2.1-1)
REM options -cpp -mtune=generic -march=x86-64 -g -O0 -fpre-include=/usr/include/finclude/math-vector-fortran.h
REM seed -540394612 -178442837 957881919 536087904 -804556358 -1251860807 -1841144296 1173306127 -334063624 -2003006100 -146080917 -367281649 -26492585 977219134 -195441887 1104630982 409730114 -1848450424 -789689874 785227814 1356884487 -216192578 1648032355 -1579168093 -1789816237 2081518291 -821405032 94792246 759052850 668440359 1892120861 254339432 -1118471396
REM
CELL 1.54180   50.00000   50.00000   50.00000   90.00000   90.00000   90.00000
LATT -1
SFAC C  
C      1  0.4995100000000  0.4012320000000  0.5947450000000 1.0
C      1  0.4836870000000  0.5065160000000  0.4965590000000 1.0
C      1  0.5455250000000  0.4531010000000  0.4477480000000 1.0
C      1  0.5634390000000  0.5851300000000  0.4074910000000 1.0
C      1  0.4923430000000  0.4667400000000  0.4671190000000 1.0
C      1  0.4649570000000  0.5363490000000  0.4060120000000 1.0
C      1  0.5918600000000  0.4987120000000  0.4213010000000 1.0
C      1  0.5154850000000  0.4890060000000  0.4326230000000 1.0
C      1  0.5902130000000  0.6281280000000  0.4911980000000 1.0
C      1  0.4936810000000  0.4444190000000  0.5332550000000 1.0
C      1  0.5682520000000  0.4706330000000  0.4529690000000 1.0
C      1  0.4848580000000  0.5159530000000  0.4046740000000 1.0
C      1  0.4950750000000  0.4865980000000  0.3602060000000 1.0
C      1  0.4394160000000  0.4741050000000  0.6302600000000 1.0
C      1  0.5515560000000  0.5950200000000  0.5003570000000 1.0
C      1  0.4307180000000  0.5384360000000  0.5578710000000 1.0
C      1  0.5226860000000  0.5636220000000  0.4240420000000 1.0
C      1  0.5349220000000  0.4944480000000  0.4781280000000 1.0
C      1  0.5683310000000  0.5211270000000  0.4559960000000 1.0
C      1  0.4550740000000  0.4728420000000  0.5728280000000 1.0
C      1  0.4394700000000  0.5284480000000  0.4158530000000 1.0
C      1  0.5063580000000  0.4481920000000  0.4845040000000 1.0
C      1  0.5716920000000  0.6122520000000  0.5017600000000 1.0
C      1  0.4827500000000  0.5273300000000  0.4762180000000 1.0
C      1  0.4100690000000  0.5962180000000  0.5080260000000 1.0
C      1  0.5592290000000  0.5257860000000  0.3833720000000 1.0
C      1  0.6023760000000  0.6373650000000  0.4694020000000 1.0
C      1  0.4165610000000  0.5432410000000  0.4101800000000 1.0
C      1  0.4300220000000  0.4179700000000  0.5994600000000 1.0
C      1  0.5309220000000  0.5797150000000  0.4894630000000 1.0
C      1  0.4754650000000  0.5624220000000  0.4039170000000 1.0
C      1  0.4988090000000  0.5304100000000  0.4514490000000 1.0
C      1  0.5952270000000  0.6240360000000  0.4207500000000 1.0
C      1  0.4922760000000  0.3904890000000  0.6179660000000 1.0
C      1  0.5004230000000  0.4593870000000  0.5109110000000 1.0
C      1  0.4164540000000  0.5774830000000  0.5249930000000 1.0
C      1  0.4748890000000  0.3871090000000  0.6397210000000 1.0
C      1  0.4591590000000  0.5178480000000  0.6284910000000 1.0
C      1  0.5016500000000  0.4721880000000  0.3395010000000 1.0
C      1  0.5761550000000  0.5215270000000  0.4283380000000 1.0
C      1  0.4583440000000  0.4456830000000  0.5669750000000 1.0
C      1  0.5026210000000  0.3015570000000  0.7382600000000 1.0
C      1  0.4235720000000  0.5581570000000  0.5416790000000 1.0
C      1  0.5176260000000  0.5523980000000  0.4499590000000 1.0
C      1  0.4889840000000  0.5011370000000  0.3814960000000 1.0
C      1  0.3954130000000  0.5575160000000  0.4048710000000 1.0
C      1  0.5887450000000  0.4745950000000  0.4336790000000 1.0
C      1  0.4972020000000  0.3182740000000  0.7190030000000 1.0
C      1  0.5041740000000  0.5850460000000  0.4962050000000 1.0
C      1  0.4351130000000  0.4484310000000  0.6357680000000 1.0
C      1  0.5001960000000  0.5123780000000  0.4280440000000 1.0
C      1  0.5297530000000  0.4649970000000  0.4257590000000 1.0
C      1  0.5800310000000  0.6057810000000  0.4088470000000 1.0
C      1  0.4916930000000  0.3352710000000  0.6994240000000 1.0
C      1  0.4388190000000  0.4276850000000  0.5761510000000 1.0
C      1  0.5129300000000  0.4860320000000  0.4611740000000 1.0
C      1  0.4381610000000  0.5049680000000  0.4315090000000 1.0
C      1  0.5017500000000  0.4887470000000  0.5107840000000 1.0
C      1  0.6040370000000  0.6358970000000  0.4428720000000 1.0
C      1  0.4966380000000  0.4168680000000  0.5734350000000 1.0
C      1  0.5601310000000  0.5441930000000  0.4697600000000 1.0
C      1  0.4806790000000  0.3692490000000  0.6602840000000 1.0
C      1  0.5307170000000  0.4403520000000  0.4700030000000 1.0
C      1  0.5492070000000  0.5618020000000  0.4135070000000 1.0
C      1  0.4700970000000  0.5512620000000  0.4847130000000 1.0
C      1  0.4796800000000  0.5745820000000  0.4938390000000 1.0
C      1  0.4380420000000  0.5180730000000  0.5731460000000 1.0
C      1  0.4514130000000  0.4024800000000  0.6398990000000 1.0
C      1  0.4485940000000  0.4961500000000  0.6155560000000 1.0
C      1  0.4477110000000  0.4840470000000  0.4451030000000 1.0
C      1  0.5361560000000  0.5589450000000  0.4707170000000 1.0
C      1  0.5284920000000  0.4971380000000  0.5053100000000 1.0
C      1  0.4831520000000  0.4355360000000  0.5574560000000 1.0
C      1  0.4861850000000  0.3522640000000  0.6798500000000 1.0
C      1  0.5000570000000  0.5720090000000  0.4094500000000 1.0
C      1  0.4473170000000  0.4956780000000  0.5870490000000 1.0
C      1  0.5617900000000  0.5364770000000  0.4085990000000 1.0
C      1  0.4663950000000  0.4694300000000  0.4574350000000 1.0
C      1  0.5603490000000  0.4953960000000  0.4662100000000 1.0
C      1  0.4364890000000  0.4219860000000  0.6265640000000 1.0
END
