TITL C-612601-4209-389 0.115404406923645 125000 -185.307008583547 0 0 31 (C1) n - 1
REM
REM in /home/nfs/bkarasulu/CARBON/AIRSS/Generating-Clusters/TERSOFF/Only-C1/FIRE-HFTN
REM
REM
REM
REM
REM
REM ./C.cell (11c1c37f851c82e70ff6c80c92926a4b)
REM AIRSS Version 0.9.1 bugfix July 2018 build 013d7b7c2542+ Fri, 06 Jul 2018 19:26:36 +0100
REM compiler GCC version 9.2.1 20190827 (Red Hat 9.2.1-1)
REM options -cpp -mtune=generic -march=x86-64 -g -O0 -fpre-include=/usr/include/finclude/math-vector-fortran.h
REM seed 1020907684 1792225877 -1076902546 2120913698 -1510927036 -1243747533 -1136214137 1895661039 669121931 -812383373 1220847221 1853320199 -1508549571 -1798680471 1665343391 799623473 1349776099 150250446 1204966597 -670690760 -277052760 247992602 1981812196 359974873 393036054 -1065348134 -613715096 -559558339 -1171547444 -1499244126 1978122411 -805123528 1620646677
REM
CELL 1.54180   50.00000   50.00000   50.00000   90.00000   90.00000   90.00000
LATT -1
SFAC C  
C      1  0.4742940000000  0.5776370000000  0.4711680000000 1.0
C      1  0.4934900000000  0.5784970000000  0.4895240000000 1.0
C      1  0.5125060000000  0.4663930000000  0.5047030000000 1.0
C      1  0.4497360000000  0.3761070000000  0.5539740000000 1.0
C      1  0.5161320000000  0.5353290000000  0.5409590000000 1.0
C      1  0.5399840000000  0.5092100000000  0.4195680000000 1.0
C      1  0.5043240000000  0.5174020000000  0.5565780000000 1.0
C      1  0.4567810000000  0.4005730000000  0.5595790000000 1.0
C      1  0.4592250000000  0.5654210000000  0.4529970000000 1.0
C      1  0.4718490000000  0.4513930000000  0.5703300000000 1.0
C      1  0.4874630000000  0.4690770000000  0.5529590000000 1.0
C      1  0.4567270000000  0.5198940000000  0.4288530000000 1.0
C      1  0.4776560000000  0.4922610000000  0.5916470000000 1.0
C      1  0.4975740000000  0.4624670000000  0.5279750000000 1.0
C      1  0.5189920000000  0.4928720000000  0.4201170000000 1.0
C      1  0.4639750000000  0.4254420000000  0.5652090000000 1.0
C      1  0.4911750000000  0.4950790000000  0.5662590000000 1.0
C      1  0.4525430000000  0.5445000000000  0.4380160000000 1.0
C      1  0.5024170000000  0.4603640000000  0.4793130000000 1.0
C      1  0.4967040000000  0.4665080000000  0.4540780000000 1.0
C      1  0.5581560000000  0.5434020000000  0.4798260000000 1.0
C      1  0.5553700000000  0.5274200000000  0.4314070000000 1.0
C      1  0.5481550000000  0.5048720000000  0.5067050000000 1.0
C      1  0.5119800000000  0.5679050000000  0.5053870000000 1.0
C      1  0.5617960000000  0.5407220000000  0.4535660000000 1.0
C      1  0.4715480000000  0.4979040000000  0.4268940000000 1.0
C      1  0.5362970000000  0.4810920000000  0.5065830000000 1.0
C      1  0.4953290000000  0.4841840000000  0.4324000000000 1.0
C      1  0.5456480000000  0.5324860000000  0.5023640000000 1.0
C      1  0.5256740000000  0.5464970000000  0.5170780000000 1.0
C      1  0.4665020000000  0.4670900000000  0.5939820000000 1.0
END
