TITL C-612601-4209-811 -7.77203180124739e-07 125000 -1049.97028267438 0 0 170 (C1) n - 1
REM
REM in /home/nfs/bkarasulu/CARBON/AIRSS/Generating-Clusters/TERSOFF/Only-C1/FIRE-HFTN
REM
REM
REM
REM
REM
REM ./C.cell (11c1c37f851c82e70ff6c80c92926a4b)
REM AIRSS Version 0.9.1 bugfix July 2018 build 013d7b7c2542+ Fri, 06 Jul 2018 19:26:36 +0100
REM compiler GCC version 9.2.1 20190827 (Red Hat 9.2.1-1)
REM options -cpp -mtune=generic -march=x86-64 -g -O0 -fpre-include=/usr/include/finclude/math-vector-fortran.h
REM seed -258751988 -1318796029 -2108295618 714023933 -737648617 1945021189 -837790842 257335547 -1621834932 1362014149 1464674778 -1079188788 1986055432 1319719440 -1775279762 939882305 1155638463 852407287 -894934267 318378096 -880406713 1255495522 730831168 -2066155225 1626787935 -1568470778 482887372 418175080 -1930176802 1592558314 1086157175 -1733976901 1874998373
REM
CELL 1.54180   50.00000   50.00000   50.00000   90.00000   90.00000   90.00000
LATT -1
SFAC C  
C      1  0.5914180000000  0.5228530000000  0.4187450000000 1.0
C      1  0.4446940000000  0.5685400000000  0.4133870000000 1.0
C      1  0.4692400000000  0.5919620000000  0.4545460000000 1.0
C      1  0.4951170000000  0.3759560000000  0.4737250000000 1.0
C      1  0.5244490000000  0.5678490000000  0.5197660000000 1.0
C      1  0.4270210000000  0.5925490000000  0.4780210000000 1.0
C      1  0.4510720000000  0.4711850000000  0.4382370000000 1.0
C      1  0.5370350000000  0.4364510000000  0.4974790000000 1.0
C      1  0.4874320000000  0.4716510000000  0.5436690000000 1.0
C      1  0.5212560000000  0.5254620000000  0.4483240000000 1.0
C      1  0.5208940000000  0.5961700000000  0.5167940000000 1.0
C      1  0.5422990000000  0.4449790000000  0.4288300000000 1.0
C      1  0.4985910000000  0.5302590000000  0.4916670000000 1.0
C      1  0.5188830000000  0.5631250000000  0.5831570000000 1.0
C      1  0.5005390000000  0.4394430000000  0.4035680000000 1.0
C      1  0.4461440000000  0.4084390000000  0.5161530000000 1.0
C      1  0.5556980000000  0.5857710000000  0.4886390000000 1.0
C      1  0.5853860000000  0.4963140000000  0.4289470000000 1.0
C      1  0.5060920000000  0.4028460000000  0.5617740000000 1.0
C      1  0.6006810000000  0.4642830000000  0.4668280000000 1.0
C      1  0.5052450000000  0.4520200000000  0.6043530000000 1.0
C      1  0.4742140000000  0.5324720000000  0.4439350000000 1.0
C      1  0.5266200000000  0.4677530000000  0.5954490000000 1.0
C      1  0.4909760000000  0.5049760000000  0.5077520000000 1.0
C      1  0.5070140000000  0.6106010000000  0.5363000000000 1.0
C      1  0.5581210000000  0.4900570000000  0.4275890000000 1.0
C      1  0.4441710000000  0.5919080000000  0.5559760000000 1.0
C      1  0.4590050000000  0.4080190000000  0.5840900000000 1.0
C      1  0.3631070000000  0.4801130000000  0.4603820000000 1.0
C      1  0.4370070000000  0.4144290000000  0.4643270000000 1.0
C      1  0.4480320000000  0.4573330000000  0.5270730000000 1.0
C      1  0.6039680000000  0.5120210000000  0.5368090000000 1.0
C      1  0.4848350000000  0.5448760000000  0.5331850000000 1.0
C      1  0.4904960000000  0.3983550000000  0.4566340000000 1.0
C      1  0.5081590000000  0.5140240000000  0.5797330000000 1.0
C      1  0.6051430000000  0.4601750000000  0.5237570000000 1.0
C      1  0.5377770000000  0.4666980000000  0.3873200000000 1.0
C      1  0.4377390000000  0.4310880000000  0.5326390000000 1.0
C      1  0.4382330000000  0.4517130000000  0.5971860000000 1.0
C      1  0.5717140000000  0.5410400000000  0.4096720000000 1.0
C      1  0.3865900000000  0.5254440000000  0.4548850000000 1.0
C      1  0.4864020000000  0.4127390000000  0.5793140000000 1.0
C      1  0.5851550000000  0.4440080000000  0.4541980000000 1.0
C      1  0.4091630000000  0.5760560000000  0.4922960000000 1.0
C      1  0.4861560000000  0.5014050000000  0.3916180000000 1.0
C      1  0.5378050000000  0.4686210000000  0.5327770000000 1.0
C      1  0.6050530000000  0.5639690000000  0.4856140000000 1.0
C      1  0.5163410000000  0.4506870000000  0.3824090000000 1.0
C      1  0.4024410000000  0.5765920000000  0.5699370000000 1.0
C      1  0.4681320000000  0.6145220000000  0.5020890000000 1.0
C      1  0.3963140000000  0.5287220000000  0.4816460000000 1.0
C      1  0.5253420000000  0.6252820000000  0.4746680000000 1.0
C      1  0.5174440000000  0.4268690000000  0.5169690000000 1.0
C      1  0.5482630000000  0.4679390000000  0.4134900000000 1.0
C      1  0.5946260000000  0.5717460000000  0.4607950000000 1.0
C      1  0.4977300000000  0.5928650000000  0.4511410000000 1.0
C      1  0.4966310000000  0.4795950000000  0.4568070000000 1.0
C      1  0.4578800000000  0.5421010000000  0.4624610000000 1.0
C      1  0.3957430000000  0.5519150000000  0.4998000000000 1.0
C      1  0.4740820000000  0.4005970000000  0.5177730000000 1.0
C      1  0.4671370000000  0.5534040000000  0.6025680000000 1.0
C      1  0.3894890000000  0.5695210000000  0.5472110000000 1.0
C      1  0.5693680000000  0.4228490000000  0.5476410000000 1.0
C      1  0.5550370000000  0.5604250000000  0.4182930000000 1.0
C      1  0.5298520000000  0.5224890000000  0.5242190000000 1.0
C      1  0.5539430000000  0.5260550000000  0.5710270000000 1.0
C      1  0.6134380000000  0.5336330000000  0.4341930000000 1.0
C      1  0.5186750000000  0.4882650000000  0.5766360000000 1.0
C      1  0.4790850000000  0.5495170000000  0.5044520000000 1.0
C      1  0.5088640000000  0.6188930000000  0.4543140000000 1.0
C      1  0.4735580000000  0.5196130000000  0.5364340000000 1.0
C      1  0.4732960000000  0.4475950000000  0.4032690000000 1.0
C      1  0.6223390000000  0.5115010000000  0.4511790000000 1.0
C      1  0.4058940000000  0.4886070000000  0.4332290000000 1.0
C      1  0.4586860000000  0.4755820000000  0.5475660000000 1.0
C      1  0.5468500000000  0.4344370000000  0.5629470000000 1.0
C      1  0.4917610000000  0.4403770000000  0.5829010000000 1.0
C      1  0.4910780000000  0.3781700000000  0.5230650000000 1.0
C      1  0.4293160000000  0.5815620000000  0.5772690000000 1.0
C      1  0.4597380000000  0.5260320000000  0.6067580000000 1.0
C      1  0.4177880000000  0.5129210000000  0.4196710000000 1.0
C      1  0.4328250000000  0.4047420000000  0.4910070000000 1.0
C      1  0.4520470000000  0.5450870000000  0.3995520000000 1.0
C      1  0.4654180000000  0.4137980000000  0.4564280000000 1.0
C      1  0.5344440000000  0.6072580000000  0.4938160000000 1.0
C      1  0.4676530000000  0.4619140000000  0.5056450000000 1.0
C      1  0.4414440000000  0.4778340000000  0.6035060000000 1.0
C      1  0.5609280000000  0.4977720000000  0.5666220000000 1.0
C      1  0.6102550000000  0.5609950000000  0.4399180000000 1.0
C      1  0.5209550000000  0.6064480000000  0.5611540000000 1.0
C      1  0.5962820000000  0.4641650000000  0.4959310000000 1.0
C      1  0.5369350000000  0.4864490000000  0.5537710000000 1.0
C      1  0.4740230000000  0.4397280000000  0.4652160000000 1.0
C      1  0.5335470000000  0.3672000000000  0.5059790000000 1.0
C      1  0.6047400000000  0.4880770000000  0.4503520000000 1.0
C      1  0.4736990000000  0.4647140000000  0.4532200000000 1.0
C      1  0.4551350000000  0.5423050000000  0.4903850000000 1.0
C      1  0.4985480000000  0.5272490000000  0.4307450000000 1.0
C      1  0.5732600000000  0.5912410000000  0.5125750000000 1.0
C      1  0.5705330000000  0.4768830000000  0.4988280000000 1.0
C      1  0.4559960000000  0.5998550000000  0.4807670000000 1.0
C      1  0.4390040000000  0.5213420000000  0.4998620000000 1.0
C      1  0.4409930000000  0.5175810000000  0.4034920000000 1.0
C      1  0.6004990000000  0.5593300000000  0.5336300000000 1.0
C      1  0.5156620000000  0.5448290000000  0.5384960000000 1.0
C      1  0.5049990000000  0.3680680000000  0.4992880000000 1.0
C      1  0.5580160000000  0.4375920000000  0.4511010000000 1.0
C      1  0.5424590000000  0.4216730000000  0.4708460000000 1.0
C      1  0.5375240000000  0.5601270000000  0.4939500000000 1.0
C      1  0.5179690000000  0.5721150000000  0.4522470000000 1.0
C      1  0.4384530000000  0.4278860000000  0.5813720000000 1.0
C      1  0.6022490000000  0.5476100000000  0.5074660000000 1.0
C      1  0.5547040000000  0.3952230000000  0.4735110000000 1.0
C      1  0.6141500000000  0.4854150000000  0.5362120000000 1.0
C      1  0.5503030000000  0.4544720000000  0.5848630000000 1.0
C      1  0.4544470000000  0.5035720000000  0.5496370000000 1.0
C      1  0.5463380000000  0.5743170000000  0.4414880000000 1.0
C      1  0.5634240000000  0.5735870000000  0.5609080000000 1.0
C      1  0.5803540000000  0.5798400000000  0.5372580000000 1.0
C      1  0.5116910000000  0.3831570000000  0.5435850000000 1.0
C      1  0.4216380000000  0.4377370000000  0.4549450000000 1.0
C      1  0.4438700000000  0.5051380000000  0.5956430000000 1.0
C      1  0.4233520000000  0.5928790000000  0.4493030000000 1.0
C      1  0.4349960000000  0.5102030000000  0.5688300000000 1.0
C      1  0.4781510000000  0.4403450000000  0.4922930000000 1.0
C      1  0.5722920000000  0.4733120000000  0.5790710000000 1.0
C      1  0.4235670000000  0.4694790000000  0.4509780000000 1.0
C      1  0.5975780000000  0.5370720000000  0.5529380000000 1.0
C      1  0.4031130000000  0.5346620000000  0.4327590000000 1.0
C      1  0.3931780000000  0.5233470000000  0.5403700000000 1.0
C      1  0.5476260000000  0.5167590000000  0.5057340000000 1.0
C      1  0.4889290000000  0.4787900000000  0.5152700000000 1.0
C      1  0.3899310000000  0.5485200000000  0.5280210000000 1.0
C      1  0.4485660000000  0.5843860000000  0.5314620000000 1.0
C      1  0.5670620000000  0.5806450000000  0.4611520000000 1.0
C      1  0.3696400000000  0.4656550000000  0.4823830000000 1.0
C      1  0.5192900000000  0.4797660000000  0.4696340000000 1.0
C      1  0.4088570000000  0.5136340000000  0.5597520000000 1.0
C      1  0.5920090000000  0.4424830000000  0.5445360000000 1.0
C      1  0.5362570000000  0.5837110000000  0.5711990000000 1.0
C      1  0.5720190000000  0.5052100000000  0.5006060000000 1.0
C      1  0.4994440000000  0.4509750000000  0.5573960000000 1.0
C      1  0.4234220000000  0.4269380000000  0.5570050000000 1.0
C      1  0.5210940000000  0.4352370000000  0.5459840000000 1.0
C      1  0.4794980000000  0.5459980000000  0.3910050000000 1.0
C      1  0.5237390000000  0.5372530000000  0.5683830000000 1.0
C      1  0.3805640000000  0.4973970000000  0.4466900000000 1.0
C      1  0.4911220000000  0.4215890000000  0.5080800000000 1.0
C      1  0.5614870000000  0.3966420000000  0.5378880000000 1.0
C      1  0.5194580000000  0.5461520000000  0.4716840000000 1.0
C      1  0.5521340000000  0.3716420000000  0.4856810000000 1.0
C      1  0.4826930000000  0.6200450000000  0.5246410000000 1.0
C      1  0.4963190000000  0.5257420000000  0.4022760000000 1.0
C      1  0.4157770000000  0.4810680000000  0.4803290000000 1.0
C      1  0.5944460000000  0.4587140000000  0.5690830000000 1.0
C      1  0.3964840000000  0.4223550000000  0.5570690000000 1.0
C      1  0.5736450000000  0.5457050000000  0.5678380000000 1.0
C      1  0.5485530000000  0.4612800000000  0.5078570000000 1.0
C      1  0.5130770000000  0.4140050000000  0.4488010000000 1.0
C      1  0.3948120000000  0.4658980000000  0.4926370000000 1.0
C      1  0.4475100000000  0.5860860000000  0.4350320000000 1.0
C      1  0.5386540000000  0.3795980000000  0.5321710000000 1.0
C      1  0.5415880000000  0.5079790000000  0.4414080000000 1.0
C      1  0.4589160000000  0.4948220000000  0.3975500000000 1.0
C      1  0.4939800000000  0.5628560000000  0.5976060000000 1.0
C      1  0.5948660000000  0.5198470000000  0.5094730000000 1.0
C      1  0.4449600000000  0.5706200000000  0.5978920000000 1.0
C      1  0.5168110000000  0.4310150000000  0.4264770000000 1.0
C      1  0.4562970000000  0.4695690000000  0.4103280000000 1.0
C      1  0.4168260000000  0.5089120000000  0.4882850000000 1.0
END
