TITL C-612601-4209-76 0.166926420825173 125000 -787.612517315064 0 0 130 (C1) n - 1
REM
REM in /home/nfs/bkarasulu/CARBON/AIRSS/Generating-Clusters/TERSOFF/Only-C1/FIRE-HFTN
REM
REM
REM
REM
REM
REM ./C.cell (11c1c37f851c82e70ff6c80c92926a4b)
REM AIRSS Version 0.9.1 bugfix July 2018 build 013d7b7c2542+ Fri, 06 Jul 2018 19:26:36 +0100
REM compiler GCC version 9.2.1 20190827 (Red Hat 9.2.1-1)
REM options -cpp -mtune=generic -march=x86-64 -g -O0 -fpre-include=/usr/include/finclude/math-vector-fortran.h
REM seed -579069932 197339294 -1875805957 860353912 -1880892753 -530687341 1596085963 1865530932 -27757945 -563373722 -632213049 1062844443 -1378783327 137351021 -490003327 -301808633 1084582551 457296236 -859108841 -307633595 -348677003 314823091 -1474425253 1933020035 1935535477 -616836833 671162394 -705939329 -775166570 -2145904220 1797948689 -1989379369 -83550002
REM
CELL 1.54180   50.00000   50.00000   50.00000   90.00000   90.00000   90.00000
LATT -1
SFAC C  
C      1  0.4579500000000  0.5951500000000  0.4527550000000 1.0
C      1  0.4895150000000  0.4171450000000  0.6268810000000 1.0
C      1  0.4992980000000  0.4687050000000  0.4106440000000 1.0
C      1  0.4618970000000  0.5374360000000  0.5895260000000 1.0
C      1  0.5417820000000  0.4270740000000  0.5406080000000 1.0
C      1  0.5446060000000  0.4806350000000  0.5861280000000 1.0
C      1  0.4835960000000  0.6044510000000  0.4569600000000 1.0
C      1  0.5266210000000  0.4710570000000  0.5039060000000 1.0
C      1  0.5912930000000  0.5027180000000  0.4546870000000 1.0
C      1  0.6042360000000  0.4980420000000  0.5374310000000 1.0
C      1  0.5578850000000  0.5738660000000  0.4660780000000 1.0
C      1  0.4248540000000  0.4502390000000  0.4610030000000 1.0
C      1  0.4647210000000  0.4266860000000  0.6243460000000 1.0
C      1  0.5165290000000  0.5130670000000  0.4183560000000 1.0
C      1  0.6408790000000  0.5274170000000  0.5641980000000 1.0
C      1  0.4202130000000  0.5367460000000  0.4275580000000 1.0
C      1  0.4478030000000  0.4661900000000  0.5434580000000 1.0
C      1  0.4615800000000  0.5101510000000  0.5308320000000 1.0
C      1  0.4046920000000  0.5158420000000  0.4437260000000 1.0
C      1  0.5318210000000  0.4895760000000  0.5265390000000 1.0
C      1  0.4178960000000  0.4293010000000  0.4433440000000 1.0
C      1  0.4518670000000  0.5885120000000  0.5110300000000 1.0
C      1  0.5687440000000  0.5734660000000  0.5605860000000 1.0
C      1  0.4893920000000  0.4961050000000  0.4227460000000 1.0
C      1  0.6237630000000  0.5128140000000  0.5510470000000 1.0
C      1  0.5323420000000  0.5880660000000  0.4745040000000 1.0
C      1  0.5197520000000  0.5446810000000  0.5117250000000 1.0
C      1  0.5460820000000  0.6016440000000  0.5230210000000 1.0
C      1  0.4876380000000  0.5759450000000  0.5684380000000 1.0
C      1  0.4505580000000  0.4460120000000  0.6124980000000 1.0
C      1  0.5063140000000  0.5233890000000  0.4975370000000 1.0
C      1  0.5472790000000  0.3883810000000  0.4443700000000 1.0
C      1  0.5395370000000  0.4108160000000  0.4336060000000 1.0
C      1  0.4327560000000  0.4415910000000  0.4871720000000 1.0
C      1  0.5152930000000  0.4309490000000  0.5422280000000 1.0
C      1  0.4456750000000  0.4945360000000  0.5927860000000 1.0
C      1  0.4683880000000  0.4736910000000  0.4648690000000 1.0
C      1  0.4967280000000  0.5617070000000  0.4549670000000 1.0
C      1  0.5207070000000  0.5490760000000  0.5958990000000 1.0
C      1  0.4596850000000  0.5022260000000  0.4147390000000 1.0
C      1  0.4872220000000  0.5086520000000  0.5409730000000 1.0
C      1  0.4270790000000  0.4025870000000  0.4404480000000 1.0
C      1  0.4689920000000  0.5494980000000  0.4149000000000 1.0
C      1  0.5297740000000  0.5064850000000  0.4448350000000 1.0
C      1  0.5628460000000  0.4974850000000  0.4030030000000 1.0
C      1  0.4053800000000  0.3686060000000  0.4047380000000 1.0
C      1  0.4309950000000  0.5289570000000  0.4979550000000 1.0
C      1  0.5369750000000  0.5267430000000  0.4625200000000 1.0
C      1  0.5629690000000  0.4975110000000  0.4884840000000 1.0
C      1  0.5465670000000  0.4734440000000  0.4800460000000 1.0
C      1  0.4711620000000  0.5110620000000  0.5971110000000 1.0
C      1  0.4788340000000  0.5733270000000  0.5182570000000 1.0
C      1  0.4942890000000  0.5543740000000  0.4272470000000 1.0
C      1  0.5305450000000  0.4806020000000  0.4559100000000 1.0
C      1  0.5807230000000  0.4756340000000  0.4441630000000 1.0
C      1  0.3871510000000  0.5305970000000  0.4621010000000 1.0
C      1  0.4004870000000  0.5552540000000  0.4717220000000 1.0
C      1  0.5688370000000  0.4729360000000  0.4180290000000 1.0
C      1  0.5757200000000  0.5705380000000  0.4884470000000 1.0
C      1  0.5179090000000  0.5427460000000  0.4170720000000 1.0
C      1  0.5461170000000  0.4550820000000  0.4105460000000 1.0
C      1  0.4711330000000  0.5687450000000  0.5472220000000 1.0
C      1  0.4553060000000  0.5292210000000  0.5121430000000 1.0
C      1  0.5672560000000  0.4359860000000  0.5323940000000 1.0
C      1  0.5796700000000  0.4569380000000  0.5465270000000 1.0
C      1  0.5016740000000  0.4417260000000  0.4210020000000 1.0
C      1  0.3983970000000  0.4233540000000  0.5768590000000 1.0
C      1  0.5487370000000  0.5361090000000  0.5127330000000 1.0
C      1  0.4127300000000  0.4355450000000  0.5588270000000 1.0
C      1  0.5506580000000  0.5225460000000  0.4860310000000 1.0
C      1  0.5093730000000  0.4945150000000  0.5422610000000 1.0
C      1  0.4809790000000  0.4243120000000  0.4232040000000 1.0
C      1  0.4635690000000  0.4068940000000  0.4764130000000 1.0
C      1  0.5349950000000  0.4338360000000  0.6092320000000 1.0
C      1  0.5697710000000  0.4579800000000  0.4659580000000 1.0
C      1  0.4727770000000  0.5490570000000  0.5017570000000 1.0
C      1  0.5668460000000  0.4958310000000  0.5732320000000 1.0
C      1  0.4937080000000  0.4927490000000  0.5899810000000 1.0
C      1  0.4782810000000  0.4548430000000  0.4852950000000 1.0
C      1  0.5825810000000  0.5305700000000  0.4456260000000 1.0
C      1  0.5912240000000  0.4989610000000  0.4843750000000 1.0
C      1  0.5501290000000  0.5114350000000  0.5295030000000 1.0
C      1  0.4857200000000  0.4940230000000  0.4557410000000 1.0
C      1  0.4962530000000  0.5095170000000  0.4767860000000 1.0
C      1  0.4480500000000  0.5295490000000  0.4158820000000 1.0
C      1  0.5595430000000  0.5931540000000  0.5447920000000 1.0
C      1  0.4749560000000  0.4585990000000  0.5515710000000 1.0
C      1  0.5071950000000  0.5878760000000  0.4603070000000 1.0
C      1  0.4403650000000  0.5373760000000  0.5689290000000 1.0
C      1  0.4158220000000  0.3850370000000  0.4220640000000 1.0
C      1  0.4265410000000  0.4482830000000  0.5382640000000 1.0
C      1  0.5638020000000  0.5549110000000  0.4432710000000 1.0
C      1  0.5711130000000  0.5484730000000  0.5701130000000 1.0
C      1  0.4425330000000  0.4944420000000  0.5445760000000 1.0
C      1  0.5600220000000  0.5240400000000  0.5784380000000 1.0
C      1  0.4783610000000  0.5509090000000  0.4736850000000 1.0
C      1  0.4423020000000  0.5713400000000  0.4520470000000 1.0
C      1  0.5334160000000  0.5250310000000  0.5904360000000 1.0
C      1  0.4538500000000  0.5459720000000  0.4612860000000 1.0
C      1  0.4548830000000  0.4671910000000  0.5950510000000 1.0
C      1  0.4484860000000  0.3949500000000  0.4574230000000 1.0
C      1  0.4197200000000  0.4439680000000  0.5114810000000 1.0
C      1  0.5705020000000  0.5557790000000  0.5107220000000 1.0
C      1  0.4801660000000  0.4677350000000  0.5789650000000 1.0
C      1  0.5842800000000  0.4840370000000  0.5533050000000 1.0
C      1  0.5796970000000  0.4366970000000  0.4813350000000 1.0
C      1  0.5452710000000  0.4547740000000  0.5964510000000 1.0
C      1  0.4602310000000  0.4326350000000  0.4873610000000 1.0
C      1  0.4391550000000  0.5228860000000  0.4713040000000 1.0
C      1  0.5216540000000  0.4984430000000  0.5912900000000 1.0
C      1  0.4290780000000  0.5700980000000  0.5211700000000 1.0
C      1  0.4995610000000  0.4579540000000  0.5054180000000 1.0
C      1  0.5095670000000  0.5721510000000  0.5144330000000 1.0
C      1  0.6054050000000  0.4975350000000  0.5087050000000 1.0
C      1  0.5773860000000  0.4290480000000  0.5069860000000 1.0
C      1  0.4159470000000  0.5626140000000  0.4462270000000 1.0
C      1  0.5345040000000  0.4999110000000  0.3976350000000 1.0
C      1  0.4424420000000  0.5584040000000  0.5484480000000 1.0
C      1  0.4255630000000  0.5014690000000  0.4583230000000 1.0
C      1  0.4435690000000  0.4792790000000  0.4220580000000 1.0
C      1  0.4149820000000  0.5537910000000  0.4992500000000 1.0
C      1  0.5298810000000  0.4343330000000  0.4226130000000 1.0
C      1  0.5056440000000  0.5689190000000  0.5866630000000 1.0
C      1  0.5152580000000  0.4201400000000  0.6206880000000 1.0
C      1  0.5252740000000  0.4724850000000  0.3971180000000 1.0
C      1  0.5437910000000  0.5541170000000  0.4222490000000 1.0
C      1  0.4943230000000  0.4477010000000  0.5328830000000 1.0
C      1  0.4339380000000  0.5076770000000  0.5687030000000 1.0
C      1  0.5282080000000  0.5912830000000  0.5037100000000 1.0
C      1  0.4392550000000  0.4751010000000  0.4520300000000 1.0
END
