TITL C-612602-9376-1064 0.00115500709226068 125000 -1154.97242030041 0 0 186 (C1) n - 1
REM
REM in /home/nfs/bkarasulu/CARBON/AIRSS/Generating-Clusters/TERSOFF/Only-C1/FIRE-HFTN
REM
REM
REM
REM
REM
REM ./C.cell (11c1c37f851c82e70ff6c80c92926a4b)
REM AIRSS Version 0.9.1 bugfix July 2018 build 013d7b7c2542+ Fri, 06 Jul 2018 19:26:36 +0100
REM compiler GCC version 9.2.1 20190827 (Red Hat 9.2.1-1)
REM options -cpp -mtune=generic -march=x86-64 -g -O0 -fpre-include=/usr/include/finclude/math-vector-fortran.h
REM seed 1025350245 1052680378 -416827709 -151293292 378218467 -1299661987 -1141805358 -469984562 -1036219440 -371364135 687514693 1105181579 818972223 -1524611097 971566547 463108280 -319736146 1061706904 -885120899 -1379087105 -1421519965 242484797 -1195877144 158617505 -960047411 799416491 -867856073 1136490184 1055389205 291099545 1922490023 83034807 -68274754
REM
CELL 1.54180   50.00000   50.00000   50.00000   90.00000   90.00000   90.00000
LATT -1
SFAC C  
C      1  0.5129930000000  0.5413680000000  0.5343920000000 1.0
C      1  0.4828520000000  0.5314590000000  0.5729920000000 1.0
C      1  0.5579410000000  0.5917390000000  0.4531860000000 1.0
C      1  0.4759060000000  0.5092740000000  0.6287870000000 1.0
C      1  0.6144920000000  0.5614380000000  0.4868490000000 1.0
C      1  0.4224050000000  0.4263700000000  0.5588840000000 1.0
C      1  0.5373020000000  0.4666600000000  0.5976730000000 1.0
C      1  0.4431190000000  0.5621750000000  0.5564060000000 1.0
C      1  0.5870430000000  0.4232590000000  0.4106950000000 1.0
C      1  0.4720560000000  0.4404990000000  0.5546050000000 1.0
C      1  0.5826050000000  0.4896290000000  0.5867800000000 1.0
C      1  0.5997690000000  0.4322540000000  0.4632980000000 1.0
C      1  0.5916710000000  0.4266150000000  0.5101230000000 1.0
C      1  0.4809340000000  0.5850660000000  0.4563670000000 1.0
C      1  0.5370070000000  0.4011880000000  0.4908610000000 1.0
C      1  0.3891530000000  0.5700520000000  0.5225650000000 1.0
C      1  0.5043580000000  0.4629740000000  0.3656730000000 1.0
C      1  0.4192870000000  0.4889840000000  0.5846900000000 1.0
C      1  0.5072000000000  0.5238090000000  0.5590870000000 1.0
C      1  0.5697180000000  0.6068020000000  0.5307480000000 1.0
C      1  0.5165490000000  0.6104230000000  0.5777830000000 1.0
C      1  0.4204590000000  0.4533760000000  0.4416870000000 1.0
C      1  0.4987080000000  0.5589210000000  0.4217050000000 1.0
C      1  0.4547920000000  0.3945670000000  0.4657960000000 1.0
C      1  0.3974750000000  0.5837090000000  0.4990660000000 1.0
C      1  0.4645840000000  0.5851230000000  0.5031110000000 1.0
C      1  0.5412700000000  0.4332490000000  0.5632160000000 1.0
C      1  0.4192570000000  0.5406040000000  0.4739510000000 1.0
C      1  0.4237410000000  0.4411840000000  0.5063000000000 1.0
C      1  0.4156060000000  0.4344220000000  0.4599100000000 1.0
C      1  0.4044250000000  0.4985860000000  0.4942620000000 1.0
C      1  0.4050900000000  0.5957080000000  0.4762030000000 1.0
C      1  0.5136440000000  0.4837810000000  0.4598560000000 1.0
C      1  0.4570740000000  0.4647470000000  0.4110230000000 1.0
C      1  0.5103140000000  0.5634780000000  0.4879490000000 1.0
C      1  0.3666170000000  0.5791530000000  0.5354040000000 1.0
C      1  0.4798100000000  0.4186780000000  0.3804950000000 1.0
C      1  0.4418720000000  0.5460320000000  0.4100660000000 1.0
C      1  0.5404410000000  0.4135160000000  0.4256340000000 1.0
C      1  0.5562990000000  0.4811590000000  0.4306970000000 1.0
C      1  0.5775010000000  0.4141340000000  0.4572570000000 1.0
C      1  0.4423530000000  0.5181270000000  0.4050050000000 1.0
C      1  0.4642780000000  0.3754050000000  0.5248550000000 1.0
C      1  0.5642650000000  0.5931060000000  0.5768600000000 1.0
C      1  0.4807740000000  0.6395460000000  0.4934640000000 1.0
C      1  0.5239460000000  0.4593610000000  0.4733770000000 1.0
C      1  0.4388190000000  0.5595550000000  0.4699410000000 1.0
C      1  0.4872830000000  0.4331460000000  0.4630800000000 1.0
C      1  0.5686160000000  0.4129170000000  0.4295350000000 1.0
C      1  0.6138460000000  0.5090090000000  0.4904130000000 1.0
C      1  0.3667350000000  0.4752520000000  0.4725980000000 1.0
C      1  0.5527290000000  0.5478460000000  0.4965250000000 1.0
C      1  0.5429050000000  0.6140920000000  0.5252410000000 1.0
C      1  0.5369580000000  0.4559450000000  0.5445160000000 1.0
C      1  0.5898140000000  0.5316020000000  0.4314950000000 1.0
C      1  0.5034260000000  0.4363460000000  0.5917510000000 1.0
C      1  0.5600450000000  0.4020820000000  0.4764370000000 1.0
C      1  0.3981160000000  0.5050760000000  0.4258690000000 1.0
C      1  0.5355690000000  0.3790650000000  0.5479060000000 1.0
C      1  0.4714370000000  0.4323770000000  0.5263140000000 1.0
C      1  0.5226180000000  0.3920760000000  0.4316890000000 1.0
C      1  0.4575690000000  0.4844570000000  0.5398530000000 1.0
C      1  0.3993390000000  0.4831660000000  0.5174060000000 1.0
C      1  0.4761280000000  0.5748400000000  0.4298300000000 1.0
C      1  0.5962330000000  0.5830760000000  0.4882250000000 1.0
C      1  0.4925480000000  0.4622520000000  0.5999690000000 1.0
C      1  0.6059690000000  0.4417070000000  0.4169120000000 1.0
C      1  0.5232120000000  0.6210410000000  0.4362870000000 1.0
C      1  0.4825900000000  0.4652790000000  0.4232930000000 1.0
C      1  0.5905730000000  0.4747030000000  0.5658480000000 1.0
C      1  0.5022310000000  0.5088230000000  0.4158240000000 1.0
C      1  0.4883450000000  0.5541200000000  0.6133910000000 1.0
C      1  0.5276890000000  0.5518370000000  0.5092580000000 1.0
C      1  0.5052940000000  0.4117420000000  0.5483820000000 1.0
C      1  0.5784530000000  0.6089110000000  0.5578940000000 1.0
C      1  0.4646210000000  0.5705120000000  0.4771450000000 1.0
C      1  0.5334240000000  0.4662520000000  0.4216830000000 1.0
C      1  0.4318410000000  0.5468350000000  0.5349190000000 1.0
C      1  0.4037750000000  0.3833190000000  0.5466530000000 1.0
C      1  0.3958660000000  0.5387550000000  0.4587620000000 1.0
C      1  0.5287890000000  0.4388950000000  0.4306040000000 1.0
C      1  0.5153640000000  0.6191750000000  0.5298180000000 1.0
C      1  0.5686350000000  0.5042570000000  0.6046220000000 1.0
C      1  0.5328720000000  0.4393620000000  0.5896290000000 1.0
C      1  0.4239810000000  0.5204540000000  0.4938490000000 1.0
C      1  0.5232430000000  0.5735150000000  0.4225420000000 1.0
C      1  0.4398420000000  0.6265610000000  0.4632420000000 1.0
C      1  0.5815340000000  0.5901590000000  0.4653030000000 1.0
C      1  0.5547090000000  0.4918400000000  0.4794520000000 1.0
C      1  0.6244110000000  0.4963540000000  0.4321380000000 1.0
C      1  0.5092010000000  0.5844620000000  0.4665680000000 1.0
C      1  0.3951760000000  0.4962310000000  0.5428750000000 1.0
C      1  0.5630200000000  0.5420790000000  0.4723070000000 1.0
C      1  0.3906420000000  0.5238870000000  0.5433180000000 1.0
C      1  0.4974010000000  0.4192390000000  0.5211230000000 1.0
C      1  0.5026100000000  0.6085000000000  0.5534880000000 1.0
C      1  0.4593180000000  0.5162150000000  0.5755520000000 1.0
C      1  0.5466110000000  0.4989080000000  0.5057850000000 1.0
C      1  0.4809530000000  0.5905460000000  0.5509390000000 1.0
C      1  0.4421340000000  0.3927570000000  0.5183090000000 1.0
C      1  0.6121930000000  0.5187880000000  0.4240380000000 1.0
C      1  0.5159250000000  0.6450200000000  0.4292020000000 1.0
C      1  0.5213410000000  0.4803970000000  0.5431280000000 1.0
C      1  0.5779800000000  0.4456710000000  0.5256400000000 1.0
C      1  0.5296500000000  0.5932740000000  0.4450100000000 1.0
C      1  0.4837820000000  0.5468130000000  0.4816090000000 1.0
C      1  0.5937810000000  0.5077950000000  0.5103190000000 1.0
C      1  0.5699970000000  0.5257170000000  0.4504030000000 1.0
C      1  0.4337040000000  0.4720390000000  0.4255460000000 1.0
C      1  0.4749780000000  0.4784100000000  0.4941000000000 1.0
C      1  0.3859250000000  0.4947310000000  0.4722870000000 1.0
C      1  0.4488060000000  0.3926520000000  0.4149810000000 1.0
C      1  0.4583620000000  0.4910870000000  0.6152720000000 1.0
C      1  0.5873180000000  0.5951610000000  0.5120860000000 1.0
C      1  0.4746130000000  0.5305050000000  0.5063690000000 1.0
C      1  0.4657990000000  0.5747060000000  0.5697320000000 1.0
C      1  0.4620630000000  0.5054030000000  0.3878510000000 1.0
C      1  0.4753410000000  0.4565310000000  0.4750140000000 1.0
C      1  0.4343740000000  0.4285380000000  0.5850340000000 1.0
C      1  0.4561220000000  0.4772180000000  0.3853360000000 1.0
C      1  0.4488450000000  0.5710810000000  0.4216520000000 1.0
C      1  0.4939030000000  0.5010310000000  0.5001590000000 1.0
C      1  0.5146570000000  0.4964360000000  0.5657250000000 1.0
C      1  0.5038950000000  0.5061660000000  0.4725430000000 1.0
C      1  0.4629130000000  0.4039580000000  0.3951780000000 1.0
C      1  0.5194600000000  0.4207280000000  0.5023960000000 1.0
C      1  0.4384910000000  0.4002260000000  0.4892650000000 1.0
C      1  0.4805970000000  0.5567200000000  0.5863690000000 1.0
C      1  0.5685640000000  0.5423130000000  0.5640320000000 1.0
C      1  0.4961410000000  0.5294160000000  0.6259570000000 1.0
C      1  0.5140440000000  0.4392100000000  0.4550860000000 1.0
C      1  0.4646860000000  0.4671450000000  0.5592190000000 1.0
C      1  0.4083100000000  0.4506200000000  0.5507900000000 1.0
C      1  0.5688230000000  0.5655590000000  0.5768110000000 1.0
C      1  0.6191340000000  0.6412160000000  0.5722050000000 1.0
C      1  0.5324740000000  0.4470210000000  0.4982410000000 1.0
C      1  0.3878740000000  0.5131080000000  0.4506020000000 1.0
C      1  0.4476630000000  0.4432660000000  0.6036610000000 1.0
C      1  0.4884750000000  0.3648690000000  0.5308290000000 1.0
C      1  0.4214410000000  0.4232390000000  0.4850570000000 1.0
C      1  0.4911150000000  0.5069620000000  0.3892210000000 1.0
C      1  0.5405370000000  0.6036510000000  0.5874860000000 1.0
C      1  0.4780450000000  0.5766600000000  0.5262270000000 1.0
C      1  0.4663590000000  0.4640810000000  0.6103410000000 1.0
C      1  0.4230600000000  0.6049470000000  0.4560860000000 1.0
C      1  0.4431580000000  0.5013830000000  0.5932420000000 1.0
C      1  0.5654430000000  0.5235320000000  0.5455690000000 1.0
C      1  0.5145040000000  0.3641250000000  0.5385580000000 1.0
C      1  0.6083230000000  0.4368150000000  0.4897860000000 1.0
C      1  0.5959530000000  0.4625400000000  0.5409770000000 1.0
C      1  0.5330700000000  0.4068550000000  0.5537430000000 1.0
C      1  0.4948010000000  0.4382520000000  0.3699680000000 1.0
C      1  0.4029540000000  0.5475880000000  0.5338660000000 1.0
C      1  0.4432870000000  0.3871040000000  0.4408010000000 1.0
C      1  0.5994100000000  0.6256120000000  0.5653790000000 1.0
C      1  0.6216160000000  0.4833560000000  0.4792730000000 1.0
C      1  0.4936060000000  0.5288990000000  0.4596640000000 1.0
C      1  0.5078300000000  0.4816520000000  0.4291730000000 1.0
C      1  0.6216310000000  0.5355430000000  0.4843550000000 1.0
C      1  0.4048090000000  0.4776100000000  0.5633580000000 1.0
C      1  0.6106490000000  0.4503160000000  0.4434670000000 1.0
C      1  0.5508840000000  0.4514490000000  0.5201680000000 1.0
C      1  0.5681710000000  0.5092710000000  0.5217870000000 1.0
C      1  0.4054230000000  0.4553900000000  0.5219330000000 1.0
C      1  0.4998720000000  0.6331990000000  0.5109760000000 1.0
C      1  0.4810640000000  0.4052950000000  0.4616900000000 1.0
C      1  0.5614550000000  0.4985230000000  0.4527680000000 1.0
C      1  0.4984410000000  0.5321850000000  0.4317530000000 1.0
C      1  0.4245550000000  0.4989070000000  0.4187300000000 1.0
C      1  0.4561660000000  0.4742620000000  0.5140230000000 1.0
C      1  0.4906190000000  0.4249390000000  0.5691880000000 1.0
C      1  0.6217090000000  0.4613480000000  0.4977990000000 1.0
C      1  0.5238560000000  0.5230460000000  0.6266420000000 1.0
C      1  0.4858240000000  0.5490610000000  0.5271610000000 1.0
C      1  0.4598890000000  0.6376950000000  0.4769390000000 1.0
C      1  0.4504250000000  0.4463570000000  0.5135770000000 1.0
C      1  0.4438860000000  0.5295760000000  0.5134930000000 1.0
C      1  0.6201270000000  0.4667480000000  0.5260230000000 1.0
C      1  0.5044770000000  0.4894050000000  0.3711120000000 1.0
C      1  0.5005940000000  0.3897300000000  0.4474120000000 1.0
C      1  0.6206800000000  0.4761530000000  0.4513230000000 1.0
C      1  0.4239760000000  0.4019370000000  0.5410360000000 1.0
C      1  0.4299080000000  0.5895010000000  0.4328920000000 1.0
C      1  0.5197030000000  0.4937910000000  0.5170210000000 1.0
C      1  0.5133200000000  0.4821510000000  0.5911660000000 1.0
C      1  0.5483560000000  0.5157000000000  0.6182140000000 1.0
END
