TITL C-612607-4507-578 -6.95931997089874 125000 -944.132722534226 0 0 155 (C1) n - 1
REM
REM in /home/nfs/bkarasulu/CARBON/AIRSS/Generating-Clusters/TERSOFF/Only-C1/FIRE-HFTN
REM
REM
REM
REM
REM
REM ./C.cell (11c1c37f851c82e70ff6c80c92926a4b)
REM AIRSS Version 0.9.1 bugfix July 2018 build 013d7b7c2542+ Fri, 06 Jul 2018 19:26:36 +0100
REM compiler GCC version 9.2.1 20190827 (Red Hat 9.2.1-1)
REM options -cpp -mtune=generic -march=x86-64 -g -O0 -fpre-include=/usr/include/finclude/math-vector-fortran.h
REM seed 1467865196 -856135151 258580323 1903344197 2053784204 1757337832 -1247496649 484951175 -1640487366 -1024969797 27634382 -1642648743 246321603 -1776952484 1014536212 1477122346 242638629 -1161938560 1828686190 452910815 606965663 -965147534 224791382 1893315005 793227617 1185790577 -539065104 -1889787801 -1736104413 -268727278 -1830349117 -185845201 101666221
REM
CELL 1.54180   50.00000   50.00000   50.00000   90.00000   90.00000   90.00000
LATT -1
SFAC C  
C      1  0.5029760000000  0.3667450000000  0.4650260000000 1.0
C      1  0.5092200000000  0.5998850000000  0.4400990000000 1.0
C      1  0.4088480000000  0.4952230000000  0.4077390000000 1.0
C      1  0.5725440000000  0.5193120000000  0.3981280000000 1.0
C      1  0.6066160000000  0.5389080000000  0.4492720000000 1.0
C      1  0.5424680000000  0.6246890000000  0.4732900000000 1.0
C      1  0.5323260000000  0.6038530000000  0.4567410000000 1.0
C      1  0.6122460000000  0.4639860000000  0.5031150000000 1.0
C      1  0.5406150000000  0.4029920000000  0.5553160000000 1.0
C      1  0.4456050000000  0.5573990000000  0.5803960000000 1.0
C      1  0.5337040000000  0.4728230000000  0.5687600000000 1.0
C      1  0.5275270000000  0.4406100000000  0.4203180000000 1.0
C      1  0.4299980000000  0.5716190000000  0.5107750000000 1.0
C      1  0.4892390000000  0.4552820000000  0.5440760000000 1.0
C      1  0.4325630000000  0.5400470000000  0.5957550000000 1.0
C      1  0.5098330000000  0.5749500000000  0.4253910000000 1.0
C      1  0.4352530000000  0.3561390000000  0.4983580000000 1.0
C      1  0.4573610000000  0.4438740000000  0.4685790000000 1.0
C      1  0.4409300000000  0.3958280000000  0.5257340000000 1.0
C      1  0.4578110000000  0.4912980000000  0.4576820000000 1.0
C      1  0.4463470000000  0.4653530000000  0.4522850000000 1.0
C      1  0.5489310000000  0.4675990000000  0.4856210000000 1.0
C      1  0.6006500000000  0.4576770000000  0.4132230000000 1.0
C      1  0.4327390000000  0.5557690000000  0.4596810000000 1.0
C      1  0.5877160000000  0.5606150000000  0.4477810000000 1.0
C      1  0.4597440000000  0.3946080000000  0.4805840000000 1.0
C      1  0.4712960000000  0.6337800000000  0.4383510000000 1.0
C      1  0.5680380000000  0.5506230000000  0.5171180000000 1.0
C      1  0.5955760000000  0.4789860000000  0.5549250000000 1.0
C      1  0.5732440000000  0.5725100000000  0.4693440000000 1.0
C      1  0.5204200000000  0.5453780000000  0.5863390000000 1.0
C      1  0.5200300000000  0.5129740000000  0.4766920000000 1.0
C      1  0.5400170000000  0.5603290000000  0.5267940000000 1.0
C      1  0.5143010000000  0.4575210000000  0.5573340000000 1.0
C      1  0.4487690000000  0.4165740000000  0.4659070000000 1.0
C      1  0.5771820000000  0.4321190000000  0.4773390000000 1.0
C      1  0.4620830000000  0.5165810000000  0.4444120000000 1.0
C      1  0.5060990000000  0.5590690000000  0.3815150000000 1.0
C      1  0.3634460000000  0.4831790000000  0.5504510000000 1.0
C      1  0.5804370000000  0.5260000000000  0.5411720000000 1.0
C      1  0.5798130000000  0.4283740000000  0.5439250000000 1.0
C      1  0.4977610000000  0.6230290000000  0.5412210000000 1.0
C      1  0.4716590000000  0.5379850000000  0.5072850000000 1.0
C      1  0.4165520000000  0.4332560000000  0.5506990000000 1.0
C      1  0.4796900000000  0.5632710000000  0.5060710000000 1.0
C      1  0.5125910000000  0.5060860000000  0.4308350000000 1.0
C      1  0.4037000000000  0.4595100000000  0.4705630000000 1.0
C      1  0.5158970000000  0.5002070000000  0.5225030000000 1.0
C      1  0.5596270000000  0.5317900000000  0.4947960000000 1.0
C      1  0.4940770000000  0.5961130000000  0.5389450000000 1.0
C      1  0.6005850000000  0.5080840000000  0.4904720000000 1.0
C      1  0.6101710000000  0.4917190000000  0.5113220000000 1.0
C      1  0.3590280000000  0.4987490000000  0.5716660000000 1.0
C      1  0.5979370000000  0.5084550000000  0.4063040000000 1.0
C      1  0.5285050000000  0.5634020000000  0.4810510000000 1.0
C      1  0.5725350000000  0.5076940000000  0.4933990000000 1.0
C      1  0.4726340000000  0.4927080000000  0.4021780000000 1.0
C      1  0.4550780000000  0.5445330000000  0.4015000000000 1.0
C      1  0.4863730000000  0.4811360000000  0.4899400000000 1.0
C      1  0.5853400000000  0.5651410000000  0.6121410000000 1.0
C      1  0.4835880000000  0.3826620000000  0.4721240000000 1.0
C      1  0.4411170000000  0.5756550000000  0.5353520000000 1.0
C      1  0.5229020000000  0.5426680000000  0.5403260000000 1.0
C      1  0.4262730000000  0.3319890000000  0.4944520000000 1.0
C      1  0.4179460000000  0.4653090000000  0.4466080000000 1.0
C      1  0.4702120000000  0.4427760000000  0.6777570000000 1.0
C      1  0.5131570000000  0.5361710000000  0.3950990000000 1.0
C      1  0.5422400000000  0.4912100000000  0.5276950000000 1.0
C      1  0.5030880000000  0.5227600000000  0.5880500000000 1.0
C      1  0.4986260000000  0.5818770000000  0.5148100000000 1.0
C      1  0.4851110000000  0.5798250000000  0.5608450000000 1.0
C      1  0.4721470000000  0.4919300000000  0.6779960000000 1.0
C      1  0.5489840000000  0.5036650000000  0.3938390000000 1.0
C      1  0.4571800000000  0.5715610000000  0.5590530000000 1.0
C      1  0.5493620000000  0.4815980000000  0.3776790000000 1.0
C      1  0.5229410000000  0.4234300000000  0.4615970000000 1.0
C      1  0.4608560000000  0.4679900000000  0.5855500000000 1.0
C      1  0.4897390000000  0.5243450000000  0.4374790000000 1.0
C      1  0.5463080000000  0.4786450000000  0.4589440000000 1.0
C      1  0.4648320000000  0.4438280000000  0.6278750000000 1.0
C      1  0.4271590000000  0.5252930000000  0.4969690000000 1.0
C      1  0.4629700000000  0.4953320000000  0.4855070000000 1.0
C      1  0.4855390000000  0.4711920000000  0.4143370000000 1.0
C      1  0.4698040000000  0.5012950000000  0.6529370000000 1.0
C      1  0.4135210000000  0.5109710000000  0.4542000000000 1.0
C      1  0.4980410000000  0.5805540000000  0.3984010000000 1.0
C      1  0.5068260000000  0.5194530000000  0.5405780000000 1.0
C      1  0.5676630000000  0.5523660000000  0.5978800000000 1.0
C      1  0.4391220000000  0.5744870000000  0.4393670000000 1.0
C      1  0.5864640000000  0.4536550000000  0.5546460000000 1.0
C      1  0.5430890000000  0.4255490000000  0.4408650000000 1.0
C      1  0.4037320000000  0.4734800000000  0.6090330000000 1.0
C      1  0.5267510000000  0.4980330000000  0.4536580000000 1.0
C      1  0.5710100000000  0.4305900000000  0.4482840000000 1.0
C      1  0.4118530000000  0.4329140000000  0.5781660000000 1.0
C      1  0.4667040000000  0.4916980000000  0.6281280000000 1.0
C      1  0.4542810000000  0.5171880000000  0.5009040000000 1.0
C      1  0.4263870000000  0.5537610000000  0.4886110000000 1.0
C      1  0.5750500000000  0.6028580000000  0.5063020000000 1.0
C      1  0.3722360000000  0.5060910000000  0.5937290000000 1.0
C      1  0.5024560000000  0.4536930000000  0.4305760000000 1.0
C      1  0.5598260000000  0.5196840000000  0.5620440000000 1.0
C      1  0.4671510000000  0.4338410000000  0.6526200000000 1.0
C      1  0.4249530000000  0.4623620000000  0.5137840000000 1.0
C      1  0.5347260000000  0.5360510000000  0.4820120000000 1.0
C      1  0.5073250000000  0.4977100000000  0.4965630000000 1.0
C      1  0.5012950000000  0.5488800000000  0.4297760000000 1.0
C      1  0.5575880000000  0.4864070000000  0.5046210000000 1.0
C      1  0.3813260000000  0.4673960000000  0.5387020000000 1.0
C      1  0.4168290000000  0.5207970000000  0.6052330000000 1.0
C      1  0.4355870000000  0.5293790000000  0.4483190000000 1.0
C      1  0.4119310000000  0.5050730000000  0.4834270000000 1.0
C      1  0.4729480000000  0.5922660000000  0.4080040000000 1.0
C      1  0.4486910000000  0.4428780000000  0.5175470000000 1.0
C      1  0.4837640000000  0.4518350000000  0.4831480000000 1.0
C      1  0.4119440000000  0.4766700000000  0.4921240000000 1.0
C      1  0.5701790000000  0.5473260000000  0.4018510000000 1.0
C      1  0.5450560000000  0.5789420000000  0.4641710000000 1.0
C      1  0.5102150000000  0.4246650000000  0.5129490000000 1.0
C      1  0.4090460000000  0.4899320000000  0.4351510000000 1.0
C      1  0.4297970000000  0.4103550000000  0.4469490000000 1.0
C      1  0.6116730000000  0.5241260000000  0.4255430000000 1.0
C      1  0.5026950000000  0.4442010000000  0.4599250000000 1.0
C      1  0.4531300000000  0.5715880000000  0.4142180000000 1.0
C      1  0.3974420000000  0.5006090000000  0.6050010000000 1.0
C      1  0.4677690000000  0.4631000000000  0.5603200000000 1.0
C      1  0.4273880000000  0.5059000000000  0.3914860000000 1.0
C      1  0.5489650000000  0.5389110000000  0.5817480000000 1.0
C      1  0.4639380000000  0.4679350000000  0.6132580000000 1.0
C      1  0.5245010000000  0.5128740000000  0.4050250000000 1.0
C      1  0.6013800000000  0.4435230000000  0.4884910000000 1.0
C      1  0.5530840000000  0.4200200000000  0.5376370000000 1.0
C      1  0.6000860000000  0.4101590000000  0.5402090000000 1.0
C      1  0.4723430000000  0.4672540000000  0.6887190000000 1.0
C      1  0.5600970000000  0.6222010000000  0.4940560000000 1.0
C      1  0.5820450000000  0.4526300000000  0.4334760000000 1.0
C      1  0.5787380000000  0.5752850000000  0.4988600000000 1.0
C      1  0.6127400000000  0.5259670000000  0.4732670000000 1.0
C      1  0.4062190000000  0.4555080000000  0.5354140000000 1.0
C      1  0.4834470000000  0.6110080000000  0.4299780000000 1.0
C      1  0.4934180000000  0.5131730000000  0.5645650000000 1.0
C      1  0.4539110000000  0.5152060000000  0.3964080000000 1.0
C      1  0.5769310000000  0.5642290000000  0.4216760000000 1.0
C      1  0.6056120000000  0.4817010000000  0.4018710000000 1.0
C      1  0.4452840000000  0.3819640000000  0.5017720000000 1.0
C      1  0.5391410000000  0.4273930000000  0.5135350000000 1.0
C      1  0.5246320000000  0.5747190000000  0.5070280000000 1.0
C      1  0.5990810000000  0.5012300000000  0.5370560000000 1.0
C      1  0.5479360000000  0.4937310000000  0.5558570000000 1.0
C      1  0.4831360000000  0.4412920000000  0.5140780000000 1.0
C      1  0.5676860000000  0.4757280000000  0.4414000000000 1.0
C      1  0.4375640000000  0.4218950000000  0.5347270000000 1.0
C      1  0.5054590000000  0.5689820000000  0.5784210000000 1.0
C      1  0.5537260000000  0.4402990000000  0.4924690000000 1.0
C      1  0.4070550000000  0.4489130000000  0.5990640000000 1.0
END
