TITL C-612606-7351-1422 1.04736617831619 125000 -432.135796723458 0 0 74 (C1) n - 1
REM
REM in /home/nfs/bkarasulu/CARBON/AIRSS/Generating-Clusters/TERSOFF/Only-C1/FIRE-HFTN
REM
REM
REM
REM
REM
REM ./C.cell (11c1c37f851c82e70ff6c80c92926a4b)
REM AIRSS Version 0.9.1 bugfix July 2018 build 013d7b7c2542+ Fri, 06 Jul 2018 19:26:36 +0100
REM compiler GCC version 9.2.1 20190827 (Red Hat 9.2.1-1)
REM options -cpp -mtune=generic -march=x86-64 -g -O0 -fpre-include=/usr/include/finclude/math-vector-fortran.h
REM seed 951375367 693324965 -1593947397 1489396006 -1649788053 1414820607 21188623 -490060202 554113917 899465194 -1793053963 338457311 1326714316 -1088567239 -1297696607 1387242974 -523869555 -715392591 85548333 1955224008 2022916819 -565506450 -1211936119 819076256 439495325 853992644 -1476354883 1579742323 -476786468 593575246 -1738674021 1715501173 -1127133659
REM
CELL 1.54180   50.00000   50.00000   50.00000   90.00000   90.00000   90.00000
LATT -1
SFAC C  
C      1  0.5101230000000  0.5373920000000  0.5768390000000 1.0
C      1  0.4968650000000  0.5380150000000  0.5051260000000 1.0
C      1  0.5405840000000  0.4562850000000  0.4435130000000 1.0
C      1  0.5418520000000  0.5088590000000  0.4670500000000 1.0
C      1  0.4582030000000  0.4155260000000  0.4753840000000 1.0
C      1  0.5504950000000  0.4387220000000  0.5280450000000 1.0
C      1  0.4616690000000  0.5085720000000  0.5122880000000 1.0
C      1  0.4738630000000  0.4156540000000  0.4977630000000 1.0
C      1  0.4642460000000  0.5313470000000  0.5910070000000 1.0
C      1  0.4281840000000  0.4922840000000  0.5502600000000 1.0
C      1  0.5289240000000  0.5453070000000  0.4377470000000 1.0
C      1  0.4154080000000  0.4556900000000  0.4994110000000 1.0
C      1  0.6020680000000  0.5170830000000  0.5256640000000 1.0
C      1  0.4400460000000  0.4603520000000  0.4907450000000 1.0
C      1  0.4885300000000  0.5209470000000  0.5804600000000 1.0
C      1  0.5045720000000  0.4367480000000  0.4685690000000 1.0
C      1  0.5190960000000  0.4716150000000  0.4317370000000 1.0
C      1  0.5215510000000  0.5309470000000  0.4618780000000 1.0
C      1  0.4458690000000  0.5448000000000  0.4716420000000 1.0
C      1  0.5684670000000  0.4622050000000  0.4450490000000 1.0
C      1  0.4641990000000  0.5659600000000  0.4788990000000 1.0
C      1  0.6210010000000  0.5303320000000  0.5386090000000 1.0
C      1  0.5539540000000  0.5070920000000  0.5193070000000 1.0
C      1  0.5562910000000  0.5375130000000  0.4330220000000 1.0
C      1  0.5063880000000  0.4771090000000  0.5899910000000 1.0
C      1  0.5008030000000  0.4971650000000  0.4860530000000 1.0
C      1  0.4486470000000  0.4735180000000  0.5555380000000 1.0
C      1  0.4301710000000  0.5032280000000  0.4494730000000 1.0
C      1  0.5198770000000  0.5524040000000  0.5132130000000 1.0
C      1  0.5088440000000  0.5491100000000  0.4188630000000 1.0
C      1  0.5311090000000  0.4568840000000  0.5213030000000 1.0
C      1  0.4640290000000  0.4274520000000  0.5432170000000 1.0
C      1  0.5634270000000  0.5164600000000  0.4494660000000 1.0
C      1  0.4836130000000  0.4276890000000  0.5220980000000 1.0
C      1  0.4517670000000  0.5527260000000  0.5779970000000 1.0
C      1  0.5384610000000  0.4833280000000  0.5109290000000 1.0
C      1  0.4415930000000  0.5733280000000  0.5656970000000 1.0
C      1  0.6398940000000  0.5436370000000  0.5515800000000 1.0
C      1  0.6587910000000  0.5569470000000  0.5645550000000 1.0
C      1  0.5839990000000  0.4593600000000  0.4226340000000 1.0
C      1  0.5870210000000  0.4856520000000  0.4907980000000 1.0
C      1  0.4181820000000  0.5129470000000  0.5361360000000 1.0
C      1  0.5125770000000  0.5788950000000  0.5029640000000 1.0
C      1  0.3910100000000  0.4506310000000  0.5070620000000 1.0
C      1  0.4880150000000  0.4743530000000  0.5284320000000 1.0
C      1  0.4859680000000  0.5355160000000  0.4158900000000 1.0
C      1  0.4177300000000  0.5296380000000  0.5149060000000 1.0
C      1  0.5284280000000  0.4901350000000  0.4850000000000 1.0
C      1  0.4787050000000  0.4864810000000  0.5027350000000 1.0
C      1  0.4904980000000  0.4932150000000  0.5745270000000 1.0
C      1  0.4491790000000  0.5269180000000  0.4481660000000 1.0
C      1  0.5279010000000  0.6012350000000  0.5061110000000 1.0
C      1  0.4454620000000  0.4283020000000  0.4548580000000 1.0
C      1  0.4533990000000  0.5207340000000  0.6137810000000 1.0
C      1  0.4666810000000  0.4665290000000  0.4843930000000 1.0
C      1  0.5806060000000  0.4707160000000  0.4693570000000 1.0
C      1  0.4428950000000  0.4794320000000  0.4382500000000 1.0
C      1  0.4733440000000  0.5321090000000  0.5188040000000 1.0
C      1  0.5300930000000  0.4354730000000  0.4597440000000 1.0
C      1  0.4699030000000  0.5179880000000  0.4302220000000 1.0
C      1  0.5414970000000  0.5340730000000  0.5206760000000 1.0
C      1  0.5817290000000  0.5037010000000  0.5122450000000 1.0
C      1  0.4915770000000  0.4731320000000  0.4400820000000 1.0
C      1  0.5003510000000  0.5252150000000  0.4800130000000 1.0
C      1  0.4854540000000  0.4573440000000  0.4640470000000 1.0
C      1  0.4125660000000  0.5109120000000  0.4705880000000 1.0
C      1  0.4387060000000  0.4514120000000  0.4419230000000 1.0
C      1  0.4231990000000  0.5323750000000  0.4873110000000 1.0
C      1  0.4866640000000  0.5787200000000  0.4886610000000 1.0
C      1  0.4759980000000  0.4821050000000  0.5530000000000 1.0
C      1  0.6773770000000  0.5700370000000  0.5773160000000 1.0
C      1  0.4468380000000  0.4452090000000  0.5544500000000 1.0
C      1  0.4700900000000  0.4889690000000  0.4305240000000 1.0
C      1  0.5028840000000  0.4503050000000  0.5244100000000 1.0
END
