TITL C-612602-9376-831 0.0273881379283691 125000 -616.263244277678 0 0 100 (C1) n - 1
REM
REM in /home/nfs/bkarasulu/CARBON/AIRSS/Generating-Clusters/TERSOFF/Only-C1/FIRE-HFTN
REM
REM
REM
REM
REM
REM ./C.cell (11c1c37f851c82e70ff6c80c92926a4b)
REM AIRSS Version 0.9.1 bugfix July 2018 build 013d7b7c2542+ Fri, 06 Jul 2018 19:26:36 +0100
REM compiler GCC version 9.2.1 20190827 (Red Hat 9.2.1-1)
REM options -cpp -mtune=generic -march=x86-64 -g -O0 -fpre-include=/usr/include/finclude/math-vector-fortran.h
REM seed -126913119 601811585 -1129806551 872972094 -1017739845 823921493 648601998 -2048907472 -1060259728 1758613434 393593076 -679396408 -510054806 -2119085827 -73322344 351314024 650770307 -1222432172 -296994367 1626913455 -737813067 -297835722 -401493806 -1576033362 753660487 2071355134 1697951866 1767033922 1537088849 674578691 231310537 559010529 446271467
REM
CELL 1.54180   50.00000   50.00000   50.00000   90.00000   90.00000   90.00000
LATT -1
SFAC C  
C      1  0.4569960000000  0.4313370000000  0.5362070000000 1.0
C      1  0.5640490000000  0.4758230000000  0.4109730000000 1.0
C      1  0.5356650000000  0.4703280000000  0.4101880000000 1.0
C      1  0.4004960000000  0.5072100000000  0.4672280000000 1.0
C      1  0.5367550000000  0.4130090000000  0.4463600000000 1.0
C      1  0.5302280000000  0.5221090000000  0.4555190000000 1.0
C      1  0.4716180000000  0.5257610000000  0.4659250000000 1.0
C      1  0.4580070000000  0.5016140000000  0.4630490000000 1.0
C      1  0.6480430000000  0.5402490000000  0.4968000000000 1.0
C      1  0.4590920000000  0.6190040000000  0.5703570000000 1.0
C      1  0.5627520000000  0.5600170000000  0.4608560000000 1.0
C      1  0.6025730000000  0.4798700000000  0.5170450000000 1.0
C      1  0.6066670000000  0.5612470000000  0.4840260000000 1.0
C      1  0.5011140000000  0.4773640000000  0.4718300000000 1.0
C      1  0.3655480000000  0.4821260000000  0.4912190000000 1.0
C      1  0.4820240000000  0.4816370000000  0.4270570000000 1.0
C      1  0.5169120000000  0.4180400000000  0.5410360000000 1.0
C      1  0.5892550000000  0.6011160000000  0.4621800000000 1.0
C      1  0.4370530000000  0.4924060000000  0.5055310000000 1.0
C      1  0.5660850000000  0.4973170000000  0.4300370000000 1.0
C      1  0.4422930000000  0.6120820000000  0.5212820000000 1.0
C      1  0.4929540000000  0.5122280000000  0.5685000000000 1.0
C      1  0.4715290000000  0.4245540000000  0.4630560000000 1.0
C      1  0.4400630000000  0.5310690000000  0.5427190000000 1.0
C      1  0.4565580000000  0.4858220000000  0.4865650000000 1.0
C      1  0.4301840000000  0.4398640000000  0.5351020000000 1.0
C      1  0.4950640000000  0.4980870000000  0.4074750000000 1.0
C      1  0.4385090000000  0.5973890000000  0.4995260000000 1.0
C      1  0.4778480000000  0.4669700000000  0.4868460000000 1.0
C      1  0.4593930000000  0.5490570000000  0.4236890000000 1.0
C      1  0.4125190000000  0.4779860000000  0.5052190000000 1.0
C      1  0.5153260000000  0.5052740000000  0.4781580000000 1.0
C      1  0.4705440000000  0.4392920000000  0.4872610000000 1.0
C      1  0.4064250000000  0.5344290000000  0.4730620000000 1.0
C      1  0.4620560000000  0.4653610000000  0.6245210000000 1.0
C      1  0.4689200000000  0.4228010000000  0.5106840000000 1.0
C      1  0.4742880000000  0.5289900000000  0.5809680000000 1.0
C      1  0.4928170000000  0.5247830000000  0.4851800000000 1.0
C      1  0.4563980000000  0.4887680000000  0.4376350000000 1.0
C      1  0.5231140000000  0.4975720000000  0.4105220000000 1.0
C      1  0.4196140000000  0.5573530000000  0.4780510000000 1.0
C      1  0.5397910000000  0.5109570000000  0.4309880000000 1.0
C      1  0.4647220000000  0.5723030000000  0.4664720000000 1.0
C      1  0.5343410000000  0.5002760000000  0.5010500000000 1.0
C      1  0.5504950000000  0.4394120000000  0.4982860000000 1.0
C      1  0.5332410000000  0.4589200000000  0.5679340000000 1.0
C      1  0.5674630000000  0.5872760000000  0.4538210000000 1.0
C      1  0.6232940000000  0.5496740000000  0.5037700000000 1.0
C      1  0.5766740000000  0.4741330000000  0.4724730000000 1.0
C      1  0.3924190000000  0.4888280000000  0.4880340000000 1.0
C      1  0.4751390000000  0.5359390000000  0.6084990000000 1.0
C      1  0.4690060000000  0.4470000000000  0.6065360000000 1.0
C      1  0.5836510000000  0.4581740000000  0.5572490000000 1.0
C      1  0.5364300000000  0.4148190000000  0.4991490000000 1.0
C      1  0.4913700000000  0.5813540000000  0.4696600000000 1.0
C      1  0.4697900000000  0.5159820000000  0.6273230000000 1.0
C      1  0.4987820000000  0.5574260000000  0.5272160000000 1.0
C      1  0.4811410000000  0.5173810000000  0.3929850000000 1.0
C      1  0.6143800000000  0.5480030000000  0.5296130000000 1.0
C      1  0.5154520000000  0.5696680000000  0.4656620000000 1.0
C      1  0.4635990000000  0.4906600000000  0.6326300000000 1.0
C      1  0.5018290000000  0.4929860000000  0.5523750000000 1.0
C      1  0.5584330000000  0.4505840000000  0.4717560000000 1.0
C      1  0.5547490000000  0.4846410000000  0.5119880000000 1.0
C      1  0.6031380000000  0.4690770000000  0.5418790000000 1.0
C      1  0.4404940000000  0.5766490000000  0.4810090000000 1.0
C      1  0.4385610000000  0.5148890000000  0.5218350000000 1.0
C      1  0.5427870000000  0.4405010000000  0.4494590000000 1.0
C      1  0.5125660000000  0.4676410000000  0.5487720000000 1.0
C      1  0.4641800000000  0.5484860000000  0.4511080000000 1.0
C      1  0.4661680000000  0.5383340000000  0.4002260000000 1.0
C      1  0.5154980000000  0.4465420000000  0.5882270000000 1.0
C      1  0.5255950000000  0.4570630000000  0.4336880000000 1.0
C      1  0.5358710000000  0.5503100000000  0.4610000000000 1.0
C      1  0.4858750000000  0.4411520000000  0.5849840000000 1.0
C      1  0.5808670000000  0.4834950000000  0.4995120000000 1.0
C      1  0.4781480000000  0.5628710000000  0.6152660000000 1.0
C      1  0.5012290000000  0.4422100000000  0.5427520000000 1.0
C      1  0.4497680000000  0.6198840000000  0.5455200000000 1.0
C      1  0.4937960000000  0.5397050000000  0.5087450000000 1.0
C      1  0.5810570000000  0.4951990000000  0.4535450000000 1.0
C      1  0.4125920000000  0.4550970000000  0.5216000000000 1.0
C      1  0.5292100000000  0.4044560000000  0.5612800000000 1.0
C      1  0.5016380000000  0.4685650000000  0.4444800000000 1.0
C      1  0.4870840000000  0.4077370000000  0.4491660000000 1.0
C      1  0.5126420000000  0.4011330000000  0.4444530000000 1.0
C      1  0.4079220000000  0.4962600000000  0.4420730000000 1.0
C      1  0.4764540000000  0.4376390000000  0.5569250000000 1.0
C      1  0.5563190000000  0.4548200000000  0.5507300000000 1.0
C      1  0.4525470000000  0.5371440000000  0.5653410000000 1.0
C      1  0.5152610000000  0.4063320000000  0.5154080000000 1.0
C      1  0.4683300000000  0.6083730000000  0.5928690000000 1.0
C      1  0.4880940000000  0.4014810000000  0.5092290000000 1.0
C      1  0.5915010000000  0.5195460000000  0.4629700000000 1.0
C      1  0.5511140000000  0.4574170000000  0.5215600000000 1.0
C      1  0.6082300000000  0.5887320000000  0.4770990000000 1.0
C      1  0.4297130000000  0.4872020000000  0.4287820000000 1.0
C      1  0.3404730000000  0.4757110000000  0.4942540000000 1.0
C      1  0.4753540000000  0.5885830000000  0.6091430000000 1.0
C      1  0.5863850000000  0.5460560000000  0.4701970000000 1.0
END
