TITL C-612602-9376-478 6.83920973559439 125000 -511.923807969194 0 0 83 (C1) n - 1
REM
REM in /home/nfs/bkarasulu/CARBON/AIRSS/Generating-Clusters/TERSOFF/Only-C1/FIRE-HFTN
REM
REM
REM
REM
REM
REM ./C.cell (11c1c37f851c82e70ff6c80c92926a4b)
REM AIRSS Version 0.9.1 bugfix July 2018 build 013d7b7c2542+ Fri, 06 Jul 2018 19:26:36 +0100
REM compiler GCC version 9.2.1 20190827 (Red Hat 9.2.1-1)
REM options -cpp -mtune=generic -march=x86-64 -g -O0 -fpre-include=/usr/include/finclude/math-vector-fortran.h
REM seed 587927340 -1357298317 1838742726 498018363 500409348 -827564619 1315959382 -1796668015 1362327611 -1364205815 637937895 627658403 -403007908 1511799809 -2098916228 1434833267 -264744848 99922779 1255586290 -1326941284 733178568 1021445090 -1846351198 1175626970 2092503921 -1851634976 -2129205726 168001481 1267552200 -1751240654 -800916772 804866772 -1636561409
REM
CELL 1.54180   50.00000   50.00000   50.00000   90.00000   90.00000   90.00000
LATT -1
SFAC C  
C      1  0.3644320000000  0.4635710000000  0.4708610000000 1.0
C      1  0.4947990000000  0.5655190000000  0.5456750000000 1.0
C      1  0.4582320000000  0.4370660000000  0.5029220000000 1.0
C      1  0.4186840000000  0.4624290000000  0.3867880000000 1.0
C      1  0.4351000000000  0.5351830000000  0.5085770000000 1.0
C      1  0.4969560000000  0.5520680000000  0.4794290000000 1.0
C      1  0.5548080000000  0.5621570000000  0.5626600000000 1.0
C      1  0.4749470000000  0.5636320000000  0.5252740000000 1.0
C      1  0.4446070000000  0.4437680000000  0.4791480000000 1.0
C      1  0.4028470000000  0.4381440000000  0.4537040000000 1.0
C      1  0.5392810000000  0.4493860000000  0.4531130000000 1.0
C      1  0.4726860000000  0.5181800000000  0.3917510000000 1.0
C      1  0.6001820000000  0.5692860000000  0.5469400000000 1.0
C      1  0.4530580000000  0.5256960000000  0.5497730000000 1.0
C      1  0.5170750000000  0.5628140000000  0.4627260000000 1.0
C      1  0.4324650000000  0.5045670000000  0.5445160000000 1.0
C      1  0.5526270000000  0.5845260000000  0.4957980000000 1.0
C      1  0.5726190000000  0.5734970000000  0.5441130000000 1.0
C      1  0.5762980000000  0.4932560000000  0.4978660000000 1.0
C      1  0.4380100000000  0.4713040000000  0.4756500000000 1.0
C      1  0.5825240000000  0.4620800000000  0.5580990000000 1.0
C      1  0.5111530000000  0.5528440000000  0.4083360000000 1.0
C      1  0.5259050000000  0.4883210000000  0.4810130000000 1.0
C      1  0.4305810000000  0.5522070000000  0.4630240000000 1.0
C      1  0.3982320000000  0.4362720000000  0.4262180000000 1.0
C      1  0.5080790000000  0.5075840000000  0.5215950000000 1.0
C      1  0.5501150000000  0.4591730000000  0.4302720000000 1.0
C      1  0.4904040000000  0.5242310000000  0.4796340000000 1.0
C      1  0.6193740000000  0.5509310000000  0.5493970000000 1.0
C      1  0.4360440000000  0.4546470000000  0.5463360000000 1.0
C      1  0.5389690000000  0.5226250000000  0.5885030000000 1.0
C      1  0.5208670000000  0.4037490000000  0.5108910000000 1.0
C      1  0.5014230000000  0.5135580000000  0.6178870000000 1.0
C      1  0.5436920000000  0.4234270000000  0.4649940000000 1.0
C      1  0.4104190000000  0.4770760000000  0.4815570000000 1.0
C      1  0.5258090000000  0.4182430000000  0.4866780000000 1.0
C      1  0.5897310000000  0.5093660000000  0.5866980000000 1.0
C      1  0.4861040000000  0.4345240000000  0.5046290000000 1.0
C      1  0.4902420000000  0.4406480000000  0.5695450000000 1.0
C      1  0.5628540000000  0.5844410000000  0.5202920000000 1.0
C      1  0.4206270000000  0.5120190000000  0.5192280000000 1.0
C      1  0.5381270000000  0.4629680000000  0.5837900000000 1.0
C      1  0.5381610000000  0.5764870000000  0.4750340000000 1.0
C      1  0.4700700000000  0.4848730000000  0.5662900000000 1.0
C      1  0.5196760000000  0.4625780000000  0.4707420000000 1.0
C      1  0.5919500000000  0.4886790000000  0.5188870000000 1.0
C      1  0.5715330000000  0.5962210000000  0.3313800000000 1.0
C      1  0.5532720000000  0.4942730000000  0.4845890000000 1.0
C      1  0.5957540000000  0.4838340000000  0.5462090000000 1.0
C      1  0.4425660000000  0.5357910000000  0.4812170000000 1.0
C      1  0.4946270000000  0.4216160000000  0.5513400000000 1.0
C      1  0.4908400000000  0.5348910000000  0.4014670000000 1.0
C      1  0.4985950000000  0.4166810000000  0.5242040000000 1.0
C      1  0.4430950000000  0.4380940000000  0.5266370000000 1.0
C      1  0.5109770000000  0.5440670000000  0.5544710000000 1.0
C      1  0.4266410000000  0.4271040000000  0.4649540000000 1.0
C      1  0.4058650000000  0.4953590000000  0.5023200000000 1.0
C      1  0.5157300000000  0.5594540000000  0.4350920000000 1.0
C      1  0.4634030000000  0.5174480000000  0.4738960000000 1.0
C      1  0.5074340000000  0.5059260000000  0.4934540000000 1.0
C      1  0.5180100000000  0.5052030000000  0.5977050000000 1.0
C      1  0.4905080000000  0.4680360000000  0.5761670000000 1.0
C      1  0.4529130000000  0.5459110000000  0.5291270000000 1.0
C      1  0.5065630000000  0.4416500000000  0.4857800000000 1.0
C      1  0.4765800000000  0.5116860000000  0.5582670000000 1.0
C      1  0.5568460000000  0.5856790000000  0.3501630000000 1.0
C      1  0.4841440000000  0.5678990000000  0.4989660000000 1.0
C      1  0.4432260000000  0.4799320000000  0.5555460000000 1.0
C      1  0.5419130000000  0.5749610000000  0.3692600000000 1.0
C      1  0.4557420000000  0.4912580000000  0.4681090000000 1.0
C      1  0.6221020000000  0.5249010000000  0.5548770000000 1.0
C      1  0.5655340000000  0.5164990000000  0.5952420000000 1.0
C      1  0.5345150000000  0.5441670000000  0.5699710000000 1.0
C      1  0.4047600000000  0.4459240000000  0.4022880000000 1.0
C      1  0.3913980000000  0.4599000000000  0.4688160000000 1.0
C      1  0.4362130000000  0.4815530000000  0.3811020000000 1.0
C      1  0.5150720000000  0.4788200000000  0.5867370000000 1.0
C      1  0.5008570000000  0.5188650000000  0.5461280000000 1.0
C      1  0.5269740000000  0.5642340000000  0.3883230000000 1.0
C      1  0.4546160000000  0.5005050000000  0.3836840000000 1.0
C      1  0.5343700000000  0.3819470000000  0.5197230000000 1.0
C      1  0.5609980000000  0.4556220000000  0.5724080000000 1.0
C      1  0.6049700000000  0.5044900000000  0.5635280000000 1.0
END
