TITL C-612602-9376-118 384.339897363951 125000 -777.770346003655 0 0 128 (C1) n - 1
REM
REM in /home/nfs/bkarasulu/CARBON/AIRSS/Generating-Clusters/TERSOFF/Only-C1/FIRE-HFTN
REM
REM
REM
REM
REM
REM ./C.cell (11c1c37f851c82e70ff6c80c92926a4b)
REM AIRSS Version 0.9.1 bugfix July 2018 build 013d7b7c2542+ Fri, 06 Jul 2018 19:26:36 +0100
REM compiler GCC version 9.2.1 20190827 (Red Hat 9.2.1-1)
REM options -cpp -mtune=generic -march=x86-64 -g -O0 -fpre-include=/usr/include/finclude/math-vector-fortran.h
REM seed 884651338 1090880316 1633521412 -1968190987 1269437593 -27650117 1957410670 236195436 -2090728520 1518508267 402493794 -1446355240 1283458993 1812149475 625542104 -496752795 -1843877087 486369434 480658067 -499929668 -741227001 1113173331 383922508 -1383104024 1380712786 -575990639 -992785073 1024013726 1036086168 -1936553440 1335870144 -45227954 -775551138
REM
CELL 1.54180   50.00000   50.00000   50.00000   90.00000   90.00000   90.00000
LATT -1
SFAC C  
C      1  0.4184070000000  0.4537950000000  0.5136570000000 1.0
C      1  0.5219840000000  0.5785840000000  0.4572280000000 1.0
C      1  0.4999980000000  0.5890860000000  0.4725830000000 1.0
C      1  0.5387000000000  0.5260510000000  0.5024260000000 1.0
C      1  0.5672500000000  0.4601360000000  0.5538840000000 1.0
C      1  0.4654210000000  0.5151090000000  0.4622000000000 1.0
C      1  0.4567620000000  0.4439670000000  0.4409020000000 1.0
C      1  0.5850820000000  0.5032810000000  0.4552660000000 1.0
C      1  0.5783210000000  0.4810980000000  0.5053080000000 1.0
C      1  0.4810880000000  0.5374230000000  0.4660570000000 1.0
C      1  0.4021060000000  0.4754750000000  0.5008950000000 1.0
C      1  0.5783630000000  0.4981510000000  0.4266080000000 1.0
C      1  0.4056840000000  0.5536990000000  0.4140250000000 1.0
C      1  0.4694850000000  0.5784990000000  0.4361760000000 1.0
C      1  0.3995900000000  0.5563510000000  0.4872100000000 1.0
C      1  0.4088600000000  0.4455620000000  0.5392650000000 1.0
C      1  0.4931820000000  0.5030540000000  0.5364220000000 1.0
C      1  0.4905880000000  0.4468650000000  0.4881520000000 1.0
C      1  0.4055770000000  0.5370810000000  0.4358410000000 1.0
C      1  0.4685800000000  0.5853140000000  0.5338740000000 1.0
C      1  0.6031180000000  0.5942460000000  0.5343860000000 1.0
C      1  0.4483900000000  0.5048360000000  0.4849440000000 1.0
C      1  0.5759770000000  0.5465280000000  0.4824570000000 1.0
C      1  0.3921740000000  0.4982600000000  0.5157800000000 1.0
C      1  0.5016000000000  0.5121400000000  0.4006250000000 1.0
C      1  0.4808140000000  0.4154460000000  0.5433270000000 1.0
C      1  0.4759610000000  0.4451750000000  0.3937260000000 1.0
C      1  0.5100890000000  0.5026840000000  0.4521620000000 1.0
C      1  0.4615070000000  0.5769840000000  0.5613150000000 1.0
C      1  0.4696080000000  0.4863970000000  0.4987330000000 1.0
C      1  0.5700040000000  0.5671480000000  0.5539920000000 1.0
C      1  0.5541880000000  0.5102420000000  0.5710340000000 1.0
C      1  0.5465860000000  0.4506920000000  0.5722450000000 1.0
C      1  0.5209420000000  0.3928930000000  0.5248170000000 1.0
C      1  0.5641270000000  0.4899230000000  0.4728400000000 1.0
C      1  0.4943190000000  0.4487310000000  0.5171590000000 1.0
C      1  0.4432290000000  0.5329500000000  0.5584890000000 1.0
C      1  0.5943040000000  0.5254210000000  0.4727980000000 1.0
C      1  0.4465180000000  0.4889470000000  0.5425920000000 1.0
C      1  0.5970900000000  0.5072810000000  0.5436210000000 1.0
C      1  0.5873740000000  0.4314970000000  0.5239130000000 1.0
C      1  0.4958200000000  0.5735020000000  0.4969600000000 1.0
C      1  0.4218460000000  0.5679420000000  0.5306490000000 1.0
C      1  0.5875480000000  0.5877440000000  0.5555970000000 1.0
C      1  0.4545710000000  0.5495420000000  0.5034090000000 1.0
C      1  0.4971750000000  0.4952170000000  0.4922050000000 1.0
C      1  0.5211840000000  0.4237700000000  0.4574140000000 1.0
C      1  0.5198590000000  0.4626300000000  0.5205710000000 1.0
C      1  0.5493230000000  0.5284900000000  0.4375850000000 1.0
C      1  0.4832640000000  0.5699570000000  0.5810560000000 1.0
C      1  0.5178010000000  0.4866680000000  0.5411530000000 1.0
C      1  0.5824110000000  0.5101860000000  0.5666040000000 1.0
C      1  0.4889030000000  0.4541880000000  0.5723980000000 1.0
C      1  0.4690630000000  0.4366400000000  0.5276480000000 1.0
C      1  0.4513960000000  0.5931800000000  0.4842710000000 1.0
C      1  0.6102200000000  0.5158710000000  0.4947540000000 1.0
C      1  0.5287240000000  0.4266650000000  0.5621760000000 1.0
C      1  0.4697690000000  0.4884200000000  0.5994960000000 1.0
C      1  0.5605970000000  0.4115110000000  0.4785100000000 1.0
C      1  0.4203230000000  0.4534030000000  0.5624470000000 1.0
C      1  0.5476640000000  0.5427940000000  0.4819060000000 1.0
C      1  0.5513850000000  0.4292350000000  0.4996160000000 1.0
C      1  0.4944770000000  0.5758280000000  0.5250430000000 1.0
C      1  0.3939790000000  0.4915990000000  0.4497210000000 1.0
C      1  0.4457220000000  0.5776330000000  0.5121810000000 1.0
C      1  0.5670600000000  0.5512470000000  0.5307580000000 1.0
C      1  0.4914290000000  0.3954740000000  0.5258800000000 1.0
C      1  0.5205390000000  0.3876320000000  0.4889520000000 1.0
C      1  0.4427180000000  0.4703000000000  0.5640120000000 1.0
C      1  0.5406580000000  0.5086600000000  0.5456030000000 1.0
C      1  0.4019130000000  0.5513640000000  0.5154320000000 1.0
C      1  0.4874240000000  0.3926190000000  0.4948100000000 1.0
C      1  0.4895720000000  0.4667090000000  0.3831100000000 1.0
C      1  0.4648210000000  0.4665560000000  0.5817870000000 1.0
C      1  0.5314180000000  0.4730850000000  0.5855390000000 1.0
C      1  0.4809200000000  0.4926590000000  0.4516460000000 1.0
C      1  0.4811270000000  0.5129710000000  0.5917910000000 1.0
C      1  0.4695810000000  0.5267250000000  0.5689030000000 1.0
C      1  0.5342300000000  0.4512240000000  0.4966950000000 1.0
C      1  0.5263330000000  0.5513220000000  0.4662530000000 1.0
C      1  0.5972770000000  0.5015340000000  0.5154950000000 1.0
C      1  0.4712870000000  0.4018830000000  0.4731590000000 1.0
C      1  0.5831170000000  0.5597550000000  0.5072810000000 1.0
C      1  0.4787150000000  0.5598840000000  0.4183160000000 1.0
C      1  0.4335360000000  0.4839070000000  0.4684090000000 1.0
C      1  0.4622420000000  0.4181540000000  0.4529510000000 1.0
C      1  0.5036920000000  0.5531440000000  0.5917340000000 1.0
C      1  0.4551430000000  0.4839250000000  0.4094620000000 1.0
C      1  0.4369070000000  0.5154290000000  0.5364330000000 1.0
C      1  0.4575280000000  0.4538140000000  0.4142420000000 1.0
C      1  0.5604600000000  0.4199550000000  0.5250240000000 1.0
C      1  0.4705070000000  0.4884360000000  0.5278860000000 1.0
C      1  0.5021600000000  0.5522120000000  0.5390740000000 1.0
C      1  0.4367970000000  0.5607380000000  0.5561550000000 1.0
C      1  0.4896490000000  0.5284440000000  0.5477830000000 1.0
C      1  0.4814860000000  0.4917940000000  0.3957960000000 1.0
C      1  0.4062070000000  0.4804140000000  0.4729130000000 1.0
C      1  0.4314600000000  0.4983600000000  0.4167370000000 1.0
C      1  0.5377940000000  0.5781410000000  0.4332750000000 1.0
C      1  0.5071360000000  0.5322380000000  0.4575210000000 1.0
C      1  0.5342910000000  0.5030310000000  0.5914720000000 1.0
C      1  0.4017360000000  0.5481630000000  0.4617020000000 1.0
C      1  0.4785450000000  0.5516010000000  0.4892970000000 1.0
C      1  0.4559100000000  0.4660010000000  0.4600470000000 1.0
C      1  0.5801790000000  0.4597830000000  0.5275370000000 1.0
C      1  0.4467740000000  0.4459380000000  0.5090890000000 1.0
C      1  0.4721160000000  0.5914540000000  0.4620130000000 1.0
C      1  0.4091330000000  0.5087740000000  0.4319530000000 1.0
C      1  0.4916650000000  0.5386320000000  0.4070380000000 1.0
C      1  0.5388670000000  0.4997260000000  0.4554950000000 1.0
C      1  0.6191280000000  0.5875380000000  0.4889160000000 1.0
C      1  0.5091260000000  0.4734420000000  0.5674270000000 1.0
C      1  0.5565530000000  0.4970780000000  0.4085920000000 1.0
C      1  0.5353270000000  0.4014500000000  0.4691610000000 1.0
C      1  0.3923100000000  0.5248400000000  0.5221780000000 1.0
C      1  0.5493850000000  0.5537860000000  0.4268920000000 1.0
C      1  0.5199160000000  0.5068570000000  0.4976400000000 1.0
C      1  0.4641310000000  0.4585470000000  0.4866410000000 1.0
C      1  0.4422890000000  0.5240530000000  0.5079720000000 1.0
C      1  0.6024310000000  0.5807790000000  0.5094030000000 1.0
C      1  0.5488390000000  0.5292690000000  0.5278710000000 1.0
C      1  0.5389050000000  0.4095380000000  0.5402500000000 1.0
C      1  0.6020320000000  0.4199690000000  0.5021770000000 1.0
C      1  0.5303720000000  0.5038810000000  0.4011370000000 1.0
C      1  0.4982250000000  0.4279130000000  0.5640510000000 1.0
C      1  0.5888270000000  0.4090130000000  0.4804490000000 1.0
C      1  0.5151730000000  0.4455440000000  0.4747280000000 1.0
C      1  0.5090050000000  0.5230730000000  0.5957550000000 1.0
END
