TITL C-612607-4507-19 27.2056846871509 125000 -1104.30508758598 0 0 179 (C1) n - 1
REM
REM in /home/nfs/bkarasulu/CARBON/AIRSS/Generating-Clusters/TERSOFF/Only-C1/FIRE-HFTN
REM
REM
REM
REM
REM
REM ./C.cell (11c1c37f851c82e70ff6c80c92926a4b)
REM AIRSS Version 0.9.1 bugfix July 2018 build 013d7b7c2542+ Fri, 06 Jul 2018 19:26:36 +0100
REM compiler GCC version 9.2.1 20190827 (Red Hat 9.2.1-1)
REM options -cpp -mtune=generic -march=x86-64 -g -O0 -fpre-include=/usr/include/finclude/math-vector-fortran.h
REM seed 1832552964 -445009849 1639280370 -2004761869 -1923076242 2018086307 -1881376780 1544851146 -422570877 1119388788 -901814469 1483751571 1758660996 1312705914 1667036721 -1279871102 -1980817501 1428353720 -1464173528 702637897 1644923961 721426509 -797800613 -1950251469 -78081489 -169473893 1368278647 1982042664 -611964524 1298809222 1374909216 -1414219814 1600524461
REM
CELL 1.54180   50.00000   50.00000   50.00000   90.00000   90.00000   90.00000
LATT -1
SFAC C  
C      1  0.5938810000000  0.4632860000000  0.5243310000000 1.0
C      1  0.4439510000000  0.5846590000000  0.4366970000000 1.0
C      1  0.5753620000000  0.5218380000000  0.5625570000000 1.0
C      1  0.4240810000000  0.4686000000000  0.4027660000000 1.0
C      1  0.4590690000000  0.4927490000000  0.4208460000000 1.0
C      1  0.4318860000000  0.4717100000000  0.6325030000000 1.0
C      1  0.3775210000000  0.5317690000000  0.4588480000000 1.0
C      1  0.5503790000000  0.4842580000000  0.5832500000000 1.0
C      1  0.4892920000000  0.5463110000000  0.5474260000000 1.0
C      1  0.3851880000000  0.4440040000000  0.5069860000000 1.0
C      1  0.5409620000000  0.4632130000000  0.4988650000000 1.0
C      1  0.4149730000000  0.5127600000000  0.5521320000000 1.0
C      1  0.5298110000000  0.4490860000000  0.4438160000000 1.0
C      1  0.5823370000000  0.5159170000000  0.5172030000000 1.0
C      1  0.5463550000000  0.5307900000000  0.3647290000000 1.0
C      1  0.5140580000000  0.5125400000000  0.6096670000000 1.0
C      1  0.5145470000000  0.5331360000000  0.5455750000000 1.0
C      1  0.4202890000000  0.4877810000000  0.5127840000000 1.0
C      1  0.4560790000000  0.4001670000000  0.5465020000000 1.0
C      1  0.4029540000000  0.4757020000000  0.4188370000000 1.0
C      1  0.5680500000000  0.4195700000000  0.5369960000000 1.0
C      1  0.5051250000000  0.5280160000000  0.4565420000000 1.0
C      1  0.5553150000000  0.4577540000000  0.5944840000000 1.0
C      1  0.4789360000000  0.4645420000000  0.3920320000000 1.0
C      1  0.5768090000000  0.5891960000000  0.3337560000000 1.0
C      1  0.4712450000000  0.5232700000000  0.6591830000000 1.0
C      1  0.4964810000000  0.5773180000000  0.4822350000000 1.0
C      1  0.4646440000000  0.5171040000000  0.4831820000000 1.0
C      1  0.5505990000000  0.4870940000000  0.4884800000000 1.0
C      1  0.5443350000000  0.4042320000000  0.5351140000000 1.0
C      1  0.5859290000000  0.5125250000000  0.4696920000000 1.0
C      1  0.3817040000000  0.4947800000000  0.4888820000000 1.0
C      1  0.5290460000000  0.5352340000000  0.5214680000000 1.0
C      1  0.4623140000000  0.3486860000000  0.5971690000000 1.0
C      1  0.5778220000000  0.4426510000000  0.5836020000000 1.0
C      1  0.4913240000000  0.5730600000000  0.5839510000000 1.0
C      1  0.4046120000000  0.5295640000000  0.5302730000000 1.0
C      1  0.4789600000000  0.5228870000000  0.4619010000000 1.0
C      1  0.5259990000000  0.4540000000000  0.5432500000000 1.0
C      1  0.4293350000000  0.4570290000000  0.5847760000000 1.0
C      1  0.5479610000000  0.5586240000000  0.3682500000000 1.0
C      1  0.5495660000000  0.5949760000000  0.4990200000000 1.0
C      1  0.5755990000000  0.4218590000000  0.5644160000000 1.0
C      1  0.5360390000000  0.4988470000000  0.4678960000000 1.0
C      1  0.4199660000000  0.4862310000000  0.5416780000000 1.0
C      1  0.4280130000000  0.5139090000000  0.4546670000000 1.0
C      1  0.4606240000000  0.5272130000000  0.5088400000000 1.0
C      1  0.5025060000000  0.3456330000000  0.5109290000000 1.0
C      1  0.5198580000000  0.4057740000000  0.5499820000000 1.0
C      1  0.4284850000000  0.5045280000000  0.5973450000000 1.0
C      1  0.4383960000000  0.4883900000000  0.4645040000000 1.0
C      1  0.6149310000000  0.4772860000000  0.5090000000000 1.0
C      1  0.4864730000000  0.5364100000000  0.6417840000000 1.0
C      1  0.4835080000000  0.4598670000000  0.4804330000000 1.0
C      1  0.5024320000000  0.5372260000000  0.6188450000000 1.0
C      1  0.5010280000000  0.4512750000000  0.4370740000000 1.0
C      1  0.3997310000000  0.5092530000000  0.5074250000000 1.0
C      1  0.5025650000000  0.3830590000000  0.5479820000000 1.0
C      1  0.5701780000000  0.5745040000000  0.4960110000000 1.0
C      1  0.5897760000000  0.4747590000000  0.5516780000000 1.0
C      1  0.5359800000000  0.5686450000000  0.6039470000000 1.0
C      1  0.6118910000000  0.5020100000000  0.4673040000000 1.0
C      1  0.5391040000000  0.5054540000000  0.3685050000000 1.0
C      1  0.4852430000000  0.4684610000000  0.4538600000000 1.0
C      1  0.4441910000000  0.5466740000000  0.5718490000000 1.0
C      1  0.5036490000000  0.4282580000000  0.5133740000000 1.0
C      1  0.4687380000000  0.3647690000000  0.5776970000000 1.0
C      1  0.5711220000000  0.4935980000000  0.5646670000000 1.0
C      1  0.4932420000000  0.4708480000000  0.5049640000000 1.0
C      1  0.4569300000000  0.4098060000000  0.5190930000000 1.0
C      1  0.5903580000000  0.4108120000000  0.3695900000000 1.0
C      1  0.4862090000000  0.5117850000000  0.3792510000000 1.0
C      1  0.4969710000000  0.6046290000000  0.4731370000000 1.0
C      1  0.4612620000000  0.5575300000000  0.5051450000000 1.0
C      1  0.4395550000000  0.4129380000000  0.5658200000000 1.0
C      1  0.5916360000000  0.5282930000000  0.5408220000000 1.0
C      1  0.4454040000000  0.4334320000000  0.5845960000000 1.0
C      1  0.4611300000000  0.4817880000000  0.4466660000000 1.0
C      1  0.4125970000000  0.5574100000000  0.5332960000000 1.0
C      1  0.4738170000000  0.5519970000000  0.5719010000000 1.0
C      1  0.6188370000000  0.6336740000000  0.2836720000000 1.0
C      1  0.5083730000000  0.5621690000000  0.6050980000000 1.0
C      1  0.4670970000000  0.5082390000000  0.5289260000000 1.0
C      1  0.4625290000000  0.4404470000000  0.4781680000000 1.0
C      1  0.4564440000000  0.5704430000000  0.4552750000000 1.0
C      1  0.5444940000000  0.6102960000000  0.4743170000000 1.0
C      1  0.4415180000000  0.5825550000000  0.5062310000000 1.0
C      1  0.4780010000000  0.4808110000000  0.5264340000000 1.0
C      1  0.3763980000000  0.4675110000000  0.4965860000000 1.0
C      1  0.5398510000000  0.4303990000000  0.4662690000000 1.0
C      1  0.4305830000000  0.5662970000000  0.5553970000000 1.0
C      1  0.5763300000000  0.4384560000000  0.5151940000000 1.0
C      1  0.4841860000000  0.4091530000000  0.5048450000000 1.0
C      1  0.4556470000000  0.5024720000000  0.6649320000000 1.0
C      1  0.5365110000000  0.5385340000000  0.4947590000000 1.0
C      1  0.4320760000000  0.4748510000000  0.4901020000000 1.0
C      1  0.4414770000000  0.4821490000000  0.6550960000000 1.0
C      1  0.5212970000000  0.6044750000000  0.4576330000000 1.0
C      1  0.4049690000000  0.4269290000000  0.5148860000000 1.0
C      1  0.5617050000000  0.6304760000000  0.4671710000000 1.0
C      1  0.5127730000000  0.4328420000000  0.5580820000000 1.0
C      1  0.5417490000000  0.4682270000000  0.3993460000000 1.0
C      1  0.3968110000000  0.5702740000000  0.4883160000000 1.0
C      1  0.5627470000000  0.5742950000000  0.3505440000000 1.0
C      1  0.5736110000000  0.5022700000000  0.4940990000000 1.0
C      1  0.5207490000000  0.5867910000000  0.4340990000000 1.0
C      1  0.4724130000000  0.3489540000000  0.4689860000000 1.0
C      1  0.5252040000000  0.5949990000000  0.5476470000000 1.0
C      1  0.4310200000000  0.5985500000000  0.4182020000000 1.0
C      1  0.4196720000000  0.4650000000000  0.5594880000000 1.0
C      1  0.5220550000000  0.4074320000000  0.4708790000000 1.0
C      1  0.4733180000000  0.4360210000000  0.5896510000000 1.0
C      1  0.3841640000000  0.5552010000000  0.4701430000000 1.0
C      1  0.5344510000000  0.5704360000000  0.3898670000000 1.0
C      1  0.6350110000000  0.5538750000000  0.5590670000000 1.0
C      1  0.5403120000000  0.4717190000000  0.4277630000000 1.0
C      1  0.5748520000000  0.5377700000000  0.4636790000000 1.0
C      1  0.5588650000000  0.4489410000000  0.3886260000000 1.0
C      1  0.4665890000000  0.5112120000000  0.5572330000000 1.0
C      1  0.4585560000000  0.5213040000000  0.4167080000000 1.0
C      1  0.5548670000000  0.5395060000000  0.5706700000000 1.0
C      1  0.5286900000000  0.5038340000000  0.5870160000000 1.0
C      1  0.4811710000000  0.5300390000000  0.4008550000000 1.0
C      1  0.4593650000000  0.4198970000000  0.4592330000000 1.0
C      1  0.5567000000000  0.4399750000000  0.4908310000000 1.0
C      1  0.4282450000000  0.5226130000000  0.5757500000000 1.0
C      1  0.5277700000000  0.5904010000000  0.5188140000000 1.0
C      1  0.4989210000000  0.3976200000000  0.4823750000000 1.0
C      1  0.4522240000000  0.4738230000000  0.4005440000000 1.0
C      1  0.5908880000000  0.6041020000000  0.3169680000000 1.0
C      1  0.4734840000000  0.5933650000000  0.5394750000000 1.0
C      1  0.4605980000000  0.3685060000000  0.4551830000000 1.0
C      1  0.3881600000000  0.4872310000000  0.4387290000000 1.0
C      1  0.4799160000000  0.4676510000000  0.5535440000000 1.0
C      1  0.5170630000000  0.4558040000000  0.5146210000000 1.0
C      1  0.4881470000000  0.3408740000000  0.4889600000000 1.0
C      1  0.5054720000000  0.5404270000000  0.4132390000000 1.0
C      1  0.6298590000000  0.5275660000000  0.5012370000000 1.0
C      1  0.5983150000000  0.5710770000000  0.5009160000000 1.0
C      1  0.4180610000000  0.6118880000000  0.3999340000000 1.0
C      1  0.4912470000000  0.4466110000000  0.4107050000000 1.0
C      1  0.5133740000000  0.4386180000000  0.6208180000000 1.0
C      1  0.5257460000000  0.4843440000000  0.3817710000000 1.0
C      1  0.5058520000000  0.5750140000000  0.5087550000000 1.0
C      1  0.4967970000000  0.4851070000000  0.3810600000000 1.0
C      1  0.6150430000000  0.5419970000000  0.5472050000000 1.0
C      1  0.5376090000000  0.4468210000000  0.6132380000000 1.0
C      1  0.5299020000000  0.5251470000000  0.5677400000000 1.0
C      1  0.5230230000000  0.5225110000000  0.4768300000000 1.0
C      1  0.4757970000000  0.3827020000000  0.5574320000000 1.0
C      1  0.5481250000000  0.5876430000000  0.5627230000000 1.0
C      1  0.6247370000000  0.4999230000000  0.4931360000000 1.0
C      1  0.5990910000000  0.4589730000000  0.5737240000000 1.0
C      1  0.5592430000000  0.5515180000000  0.4833940000000 1.0
C      1  0.4369420000000  0.5295980000000  0.4337430000000 1.0
C      1  0.6187550000000  0.5527610000000  0.5001130000000 1.0
C      1  0.4290540000000  0.4771230000000  0.6052220000000 1.0
C      1  0.5746300000000  0.4299280000000  0.3790650000000 1.0
C      1  0.5518630000000  0.5660930000000  0.5805340000000 1.0
C      1  0.4827710000000  0.5660320000000  0.5261370000000 1.0
C      1  0.4774610000000  0.6174610000000  0.4907990000000 1.0
C      1  0.4332260000000  0.4265540000000  0.5109270000000 1.0
C      1  0.6058260000000  0.3920080000000  0.3602730000000 1.0
C      1  0.4148420000000  0.5735920000000  0.5095910000000 1.0
C      1  0.5171700000000  0.5210980000000  0.4311240000000 1.0
C      1  0.5184450000000  0.5667430000000  0.4129020000000 1.0
C      1  0.4743020000000  0.4894150000000  0.5712920000000 1.0
C      1  0.6049770000000  0.6190110000000  0.3001810000000 1.0
C      1  0.4880740000000  0.4340810000000  0.6132960000000 1.0
C      1  0.4405600000000  0.4476780000000  0.4934020000000 1.0
C      1  0.4613200000000  0.6054090000000  0.5120990000000 1.0
C      1  0.4466080000000  0.5901440000000  0.5542330000000 1.0
C      1  0.5094440000000  0.3611800000000  0.5314850000000 1.0
C      1  0.4562790000000  0.3945770000000  0.4514050000000 1.0
C      1  0.5343830000000  0.4974530000000  0.4387090000000 1.0
C      1  0.4722030000000  0.5638550000000  0.4773190000000 1.0
C      1  0.3802480000000  0.5036030000000  0.4613060000000 1.0
C      1  0.4879370000000  0.4435290000000  0.5664200000000 1.0
C      1  0.4977070000000  0.5939540000000  0.5610490000000 1.0
END
