TITL C-612603-7354-441 -72.3018287794256 125000 -838.687662697267 0 0 136 (C1) n - 1
REM
REM in /home/nfs/bkarasulu/CARBON/AIRSS/Generating-Clusters/TERSOFF/Only-C1/FIRE-HFTN
REM
REM
REM
REM
REM
REM ./C.cell (11c1c37f851c82e70ff6c80c92926a4b)
REM AIRSS Version 0.9.1 bugfix July 2018 build 013d7b7c2542+ Fri, 06 Jul 2018 19:26:36 +0100
REM compiler GCC version 9.2.1 20190827 (Red Hat 9.2.1-1)
REM options -cpp -mtune=generic -march=x86-64 -g -O0 -fpre-include=/usr/include/finclude/math-vector-fortran.h
REM seed 1084857460 -1454608935 -1966627183 1210709356 158511222 720836811 109229240 153256793 1947792248 1550932700 1156319655 1564736705 -2046839409 2015727078 1125409706 -252070274 936037683 -305293244 -1449107628 -2035036980 -797700844 133452484 -670481063 -144762042 1878060997 337978040 -999549217 -1382292841 -473535765 1400757780 1227642884 -705419584 -1790701365
REM
CELL 1.54180   50.00000   50.00000   50.00000   90.00000   90.00000   90.00000
LATT -1
SFAC C  
C      1  0.6044570000000  0.4934830000000  0.5174880000000 1.0
C      1  0.3901740000000  0.5297060000000  0.5016650000000 1.0
C      1  0.3924350000000  0.5353610000000  0.4736360000000 1.0
C      1  0.4323430000000  0.4201960000000  0.4731420000000 1.0
C      1  0.4825340000000  0.5672530000000  0.5841030000000 1.0
C      1  0.4784190000000  0.5609820000000  0.5084580000000 1.0
C      1  0.4453500000000  0.5106750000000  0.6029430000000 1.0
C      1  0.4918300000000  0.4057670000000  0.5040410000000 1.0
C      1  0.4453620000000  0.4372290000000  0.5760500000000 1.0
C      1  0.3957810000000  0.4877630000000  0.4786450000000 1.0
C      1  0.5005640000000  0.4602900000000  0.5227290000000 1.0
C      1  0.4332720000000  0.5371740000000  0.4344730000000 1.0
C      1  0.4209570000000  0.4799290000000  0.5653940000000 1.0
C      1  0.4746620000000  0.5663430000000  0.5367000000000 1.0
C      1  0.4633880000000  0.5297460000000  0.6087620000000 1.0
C      1  0.5957190000000  0.4800240000000  0.5500930000000 1.0
C      1  0.4360930000000  0.4736260000000  0.3812740000000 1.0
C      1  0.5240510000000  0.5281420000000  0.4898290000000 1.0
C      1  0.5831010000000  0.4802180000000  0.5761770000000 1.0
C      1  0.5408160000000  0.4274830000000  0.5535540000000 1.0
C      1  0.4889910000000  0.4684220000000  0.5970960000000 1.0
C      1  0.5387560000000  0.4763110000000  0.5705340000000 1.0
C      1  0.4538450000000  0.4397810000000  0.5165460000000 1.0
C      1  0.3991630000000  0.5592180000000  0.4605110000000 1.0
C      1  0.5159010000000  0.6168730000000  0.5061450000000 1.0
C      1  0.6279210000000  0.5148160000000  0.4605410000000 1.0
C      1  0.4260440000000  0.5643880000000  0.5191750000000 1.0
C      1  0.4946630000000  0.5664320000000  0.5580130000000 1.0
C      1  0.5505530000000  0.5803880000000  0.4692980000000 1.0
C      1  0.5982720000000  0.4512500000000  0.5259950000000 1.0
C      1  0.5441890000000  0.4737540000000  0.5424110000000 1.0
C      1  0.4877760000000  0.4684900000000  0.4987390000000 1.0
C      1  0.5332120000000  0.5489820000000  0.5866170000000 1.0
C      1  0.4811640000000  0.4407660000000  0.4234840000000 1.0
C      1  0.5132460000000  0.5506810000000  0.4756150000000 1.0
C      1  0.5594550000000  0.5696100000000  0.5280290000000 1.0
C      1  0.4926330000000  0.4405850000000  0.5953990000000 1.0
C      1  0.4655490000000  0.5784020000000  0.4879570000000 1.0
C      1  0.4078330000000  0.4343190000000  0.5137970000000 1.0
C      1  0.4408450000000  0.4921990000000  0.4012680000000 1.0
C      1  0.3868020000000  0.5002190000000  0.5034920000000 1.0
C      1  0.5101890000000  0.4940240000000  0.4293670000000 1.0
C      1  0.5615130000000  0.5243540000000  0.4240580000000 1.0
C      1  0.4137830000000  0.4655760000000  0.4783340000000 1.0
C      1  0.4542000000000  0.5170520000000  0.3973620000000 1.0
C      1  0.4298040000000  0.4347340000000  0.3458390000000 1.0
C      1  0.4327860000000  0.4543490000000  0.3634150000000 1.0
C      1  0.5542000000000  0.5971030000000  0.5316330000000 1.0
C      1  0.5510000000000  0.5209190000000  0.4796360000000 1.0
C      1  0.5967900000000  0.5135270000000  0.4987030000000 1.0
C      1  0.4291770000000  0.4419510000000  0.5309510000000 1.0
C      1  0.5470560000000  0.5653110000000  0.4457870000000 1.0
C      1  0.5788170000000  0.5016960000000  0.4282240000000 1.0
C      1  0.5743080000000  0.5317620000000  0.4978330000000 1.0
C      1  0.4850670000000  0.5918300000000  0.4690980000000 1.0
C      1  0.4584030000000  0.5159790000000  0.5070830000000 1.0
C      1  0.5742140000000  0.5781580000000  0.4839280000000 1.0
C      1  0.4525350000000  0.5121610000000  0.5343290000000 1.0
C      1  0.4461570000000  0.5025220000000  0.4862730000000 1.0
C      1  0.4984720000000  0.4800000000000  0.4757210000000 1.0
C      1  0.6160180000000  0.4563720000000  0.4529270000000 1.0
C      1  0.4426860000000  0.4745190000000  0.4763010000000 1.0
C      1  0.5179720000000  0.4172510000000  0.5412020000000 1.0
C      1  0.5442240000000  0.4656150000000  0.4711000000000 1.0
C      1  0.5124650000000  0.5351700000000  0.6015220000000 1.0
C      1  0.4322710000000  0.4920130000000  0.5887030000000 1.0
C      1  0.5252780000000  0.5765250000000  0.4820550000000 1.0
C      1  0.3995960000000  0.5102820000000  0.4599450000000 1.0
C      1  0.5078400000000  0.4239770000000  0.4602960000000 1.0
C      1  0.4486300000000  0.4727810000000  0.4463770000000 1.0
C      1  0.5445750000000  0.3996680000000  0.5047530000000 1.0
C      1  0.4298590000000  0.4528770000000  0.5576380000000 1.0
C      1  0.5199390000000  0.4313040000000  0.5964800000000 1.0
C      1  0.4963800000000  0.4358840000000  0.5371190000000 1.0
C      1  0.5651450000000  0.5100440000000  0.5872300000000 1.0
C      1  0.5149100000000  0.5075250000000  0.5973820000000 1.0
C      1  0.5234180000000  0.5582760000000  0.5602920000000 1.0
C      1  0.4993620000000  0.5861370000000  0.4415130000000 1.0
C      1  0.5449080000000  0.4334370000000  0.5817560000000 1.0
C      1  0.4045820000000  0.5432690000000  0.5223850000000 1.0
C      1  0.5937730000000  0.4830200000000  0.3853840000000 1.0
C      1  0.5293560000000  0.4424840000000  0.4680730000000 1.0
C      1  0.5241090000000  0.5730060000000  0.4284520000000 1.0
C      1  0.4462950000000  0.5592640000000  0.5413650000000 1.0
C      1  0.5299930000000  0.5583730000000  0.4039340000000 1.0
C      1  0.4584570000000  0.4127130000000  0.4696260000000 1.0
C      1  0.4739040000000  0.4639540000000  0.4376140000000 1.0
C      1  0.4922070000000  0.4982530000000  0.5573670000000 1.0
C      1  0.5052670000000  0.5204100000000  0.5096740000000 1.0
C      1  0.5034020000000  0.5070750000000  0.5345240000000 1.0
C      1  0.4044460000000  0.4978740000000  0.5494130000000 1.0
C      1  0.6085350000000  0.4643320000000  0.4282570000000 1.0
C      1  0.5569600000000  0.4916270000000  0.4707400000000 1.0
C      1  0.5185900000000  0.4016680000000  0.5160380000000 1.0
C      1  0.4575830000000  0.5346600000000  0.4199090000000 1.0
C      1  0.5604480000000  0.4592980000000  0.5818730000000 1.0
C      1  0.4941320000000  0.4928410000000  0.5850280000000 1.0
C      1  0.5479530000000  0.5372130000000  0.4021140000000 1.0
C      1  0.3873580000000  0.4886040000000  0.5290030000000 1.0
C      1  0.5529850000000  0.4472960000000  0.5365310000000 1.0
C      1  0.5820620000000  0.4961490000000  0.4562840000000 1.0
C      1  0.4375100000000  0.5781050000000  0.4961940000000 1.0
C      1  0.4198050000000  0.5117190000000  0.4400400000000 1.0
C      1  0.4959270000000  0.4788800000000  0.4478940000000 1.0
C      1  0.5615780000000  0.5389260000000  0.5893610000000 1.0
C      1  0.4928180000000  0.5448370000000  0.4563590000000 1.0
C      1  0.5492930000000  0.4980510000000  0.5300860000000 1.0
C      1  0.4328120000000  0.4888220000000  0.4286780000000 1.0
C      1  0.5547300000000  0.5378600000000  0.4484940000000 1.0
C      1  0.4395050000000  0.5321490000000  0.5497940000000 1.0
C      1  0.4684950000000  0.4282160000000  0.5869580000000 1.0
C      1  0.5005840000000  0.4242710000000  0.4327110000000 1.0
C      1  0.4802940000000  0.5329960000000  0.5035790000000 1.0
C      1  0.5080860000000  0.5988150000000  0.4864090000000 1.0
C      1  0.5394100000000  0.4984950000000  0.5877790000000 1.0
C      1  0.5677490000000  0.4138950000000  0.5070150000000 1.0
C      1  0.5741890000000  0.5597590000000  0.5054620000000 1.0
C      1  0.4112130000000  0.5261020000000  0.5462610000000 1.0
C      1  0.5421840000000  0.5510680000000  0.5402440000000 1.0
C      1  0.5747470000000  0.4371130000000  0.5219510000000 1.0
C      1  0.6039200000000  0.5073820000000  0.4712200000000 1.0
C      1  0.4857660000000  0.5458570000000  0.6023510000000 1.0
C      1  0.5021620000000  0.5174860000000  0.4193070000000 1.0
C      1  0.6170300000000  0.4584450000000  0.4797540000000 1.0
C      1  0.4196250000000  0.5602840000000  0.4428070000000 1.0
C      1  0.5484780000000  0.5240090000000  0.5362310000000 1.0
C      1  0.4836820000000  0.5351410000000  0.4314410000000 1.0
C      1  0.5936580000000  0.4830910000000  0.4126140000000 1.0
C      1  0.4269100000000  0.4154080000000  0.3285830000000 1.0
C      1  0.6099480000000  0.4669750000000  0.5054580000000 1.0
C      1  0.5824300000000  0.5560240000000  0.5938790000000 1.0
C      1  0.4867570000000  0.4118550000000  0.4767400000000 1.0
C      1  0.4604900000000  0.4594860000000  0.4965110000000 1.0
C      1  0.4751740000000  0.4220570000000  0.5226150000000 1.0
C      1  0.5360000000000  0.6153850000000  0.5240440000000 1.0
C      1  0.4125790000000  0.4377130000000  0.4856060000000 1.0
END
