TITL C-612606-7351-1387 432.01782993893 125000 -359.328081121532 0 0 62 (C1) n - 1
REM
REM in /home/nfs/bkarasulu/CARBON/AIRSS/Generating-Clusters/TERSOFF/Only-C1/FIRE-HFTN
REM
REM
REM
REM
REM
REM ./C.cell (11c1c37f851c82e70ff6c80c92926a4b)
REM AIRSS Version 0.9.1 bugfix July 2018 build 013d7b7c2542+ Fri, 06 Jul 2018 19:26:36 +0100
REM compiler GCC version 9.2.1 20190827 (Red Hat 9.2.1-1)
REM options -cpp -mtune=generic -march=x86-64 -g -O0 -fpre-include=/usr/include/finclude/math-vector-fortran.h
REM seed -1601335325 -1104421194 -426851699 -1696104834 -55890282 2007988074 2056260385 -1245430714 -1249039564 370195504 -1469606333 -719258478 220227825 879057643 -447820592 -1195968367 -1927531258 -409006488 -673083554 -460435848 827077429 -2075689593 121281144 -460455602 1113062433 -755370620 -155539171 -832446528 609646023 -257573760 708139738 -1509328578 107519709
REM
CELL 1.54180   50.00000   50.00000   50.00000   90.00000   90.00000   90.00000
LATT -1
SFAC C  
C      1  0.5897600000000  0.5777190000000  0.4792280000000 1.0
C      1  0.4786660000000  0.4996610000000  0.4008540000000 1.0
C      1  0.4175030000000  0.4720290000000  0.5939700000000 1.0
C      1  0.5180050000000  0.5641310000000  0.5302180000000 1.0
C      1  0.4424200000000  0.4467020000000  0.4628900000000 1.0
C      1  0.5194490000000  0.5215270000000  0.4200610000000 1.0
C      1  0.4383890000000  0.4734020000000  0.5765280000000 1.0
C      1  0.6181160000000  0.5506140000000  0.4513700000000 1.0
C      1  0.4946500000000  0.4049610000000  0.5072190000000 1.0
C      1  0.5657990000000  0.4912350000000  0.4338570000000 1.0
C      1  0.4569240000000  0.5354820000000  0.5985950000000 1.0
C      1  0.5679880000000  0.6044710000000  0.4020020000000 1.0
C      1  0.4970690000000  0.4701280000000  0.6959490000000 1.0
C      1  0.4807600000000  0.4895280000000  0.6498850000000 1.0
C      1  0.4949070000000  0.5044060000000  0.4986810000000 1.0
C      1  0.5598280000000  0.5158950000000  0.4217320000000 1.0
C      1  0.4718910000000  0.5205840000000  0.5049570000000 1.0
C      1  0.5187080000000  0.5372180000000  0.4664340000000 1.0
C      1  0.4889810000000  0.4797470000000  0.6731080000000 1.0
C      1  0.6335320000000  0.5041520000000  0.4370400000000 1.0
C      1  0.4995080000000  0.4813590000000  0.5150700000000 1.0
C      1  0.5735610000000  0.5628940000000  0.4360630000000 1.0
C      1  0.5022100000000  0.4816630000000  0.4394420000000 1.0
C      1  0.4609200000000  0.4907320000000  0.5801910000000 1.0
C      1  0.5128580000000  0.5599320000000  0.4822220000000 1.0
C      1  0.6331060000000  0.5296640000000  0.4447770000000 1.0
C      1  0.5287260000000  0.5667800000000  0.5050910000000 1.0
C      1  0.4806780000000  0.4748530000000  0.5352320000000 1.0
C      1  0.4459060000000  0.5107680000000  0.5030070000000 1.0
C      1  0.4559880000000  0.3912210000000  0.5330220000000 1.0
C      1  0.4848940000000  0.5630350000000  0.4879170000000 1.0
C      1  0.4547030000000  0.4873470000000  0.4011730000000 1.0
C      1  0.4554060000000  0.4574210000000  0.4407220000000 1.0
C      1  0.4767320000000  0.5479500000000  0.5109260000000 1.0
C      1  0.4592740000000  0.4558820000000  0.5325820000000 1.0
C      1  0.5279660000000  0.5395460000000  0.4397730000000 1.0
C      1  0.4832190000000  0.4616060000000  0.4427270000000 1.0
C      1  0.4436370000000  0.4693690000000  0.4180350000000 1.0
C      1  0.4515090000000  0.5607280000000  0.5926590000000 1.0
C      1  0.4604650000000  0.3897860000000  0.5600050000000 1.0
C      1  0.5010150000000  0.5006820000000  0.4178780000000 1.0
C      1  0.6168850000000  0.4841150000000  0.4311740000000 1.0
C      1  0.4803650000000  0.4891050000000  0.5597360000000 1.0
C      1  0.3963190000000  0.4934590000000  0.5020090000000 1.0
C      1  0.4206580000000  0.5027930000000  0.5021390000000 1.0
C      1  0.4382810000000  0.3743130000000  0.5207430000000 1.0
C      1  0.4443240000000  0.4403080000000  0.4886350000000 1.0
C      1  0.5708160000000  0.5844140000000  0.4183990000000 1.0
C      1  0.4634270000000  0.5085270000000  0.6019490000000 1.0
C      1  0.4725170000000  0.4992040000000  0.6266480000000 1.0
C      1  0.5125370000000  0.5104790000000  0.4766330000000 1.0
C      1  0.5222280000000  0.4662900000000  0.5125480000000 1.0
C      1  0.4699210000000  0.4105750000000  0.5175140000000 1.0
C      1  0.5906810000000  0.4792040000000  0.4299370000000 1.0
C      1  0.4923100000000  0.5551980000000  0.5338940000000 1.0
C      1  0.5565060000000  0.5408660000000  0.4337530000000 1.0
C      1  0.4466520000000  0.5854000000000  0.5857820000000 1.0
C      1  0.4576950000000  0.4358180000000  0.5127950000000 1.0
C      1  0.5939080000000  0.5639410000000  0.4559630000000 1.0
C      1  0.5477780000000  0.4827640000000  0.4539210000000 1.0
C      1  0.5208710000000  0.4886600000000  0.4597420000000 1.0
C      1  0.4396970000000  0.4577560000000  0.5529910000000 1.0
END
