TITL C-612605-9286-594 1108.21563082146 125000 -1142.53720671641 0 0 186 (C1) n - 1
REM
REM in /home/nfs/bkarasulu/CARBON/AIRSS/Generating-Clusters/TERSOFF/Only-C1/FIRE-HFTN
REM
REM
REM
REM
REM
REM ./C.cell (11c1c37f851c82e70ff6c80c92926a4b)
REM AIRSS Version 0.9.1 bugfix July 2018 build 013d7b7c2542+ Fri, 06 Jul 2018 19:26:36 +0100
REM compiler GCC version 9.2.1 20190827 (Red Hat 9.2.1-1)
REM options -cpp -mtune=generic -march=x86-64 -g -O0 -fpre-include=/usr/include/finclude/math-vector-fortran.h
REM seed 93672934 942815312 -1265115485 -946807625 1289080919 -1927042375 762913192 2058895776 -264218660 -1928546923 -596689532 -1223426571 -933593704 477108682 314258573 1534460593 -1603634640 -1843640142 -703816047 -330492778 1035086480 -1852811877 668486978 -86684488 -444381948 -379655108 -490945332 -1001952702 -1460435371 1318962733 806404392 -382713130 1581134467
REM
CELL 1.54180   50.00000   50.00000   50.00000   90.00000   90.00000   90.00000
LATT -1
SFAC C  
C      1  0.4386820000000  0.5306190000000  0.4335280000000 1.0
C      1  0.4110900000000  0.4433600000000  0.5133420000000 1.0
C      1  0.4386500000000  0.4904850000000  0.4583950000000 1.0
C      1  0.4439060000000  0.5988750000000  0.5292690000000 1.0
C      1  0.4579960000000  0.3899630000000  0.5370520000000 1.0
C      1  0.4237920000000  0.4965550000000  0.5966360000000 1.0
C      1  0.5577020000000  0.5734620000000  0.5580520000000 1.0
C      1  0.4545630000000  0.5737590000000  0.5216040000000 1.0
C      1  0.4234880000000  0.5101090000000  0.4440960000000 1.0
C      1  0.5282820000000  0.5378070000000  0.4847840000000 1.0
C      1  0.5124860000000  0.5380450000000  0.4145660000000 1.0
C      1  0.5644800000000  0.5714550000000  0.4252330000000 1.0
C      1  0.4727210000000  0.4515340000000  0.4654950000000 1.0
C      1  0.5674930000000  0.4766890000000  0.4436680000000 1.0
C      1  0.4507910000000  0.5450100000000  0.4540260000000 1.0
C      1  0.5883740000000  0.5491210000000  0.5086390000000 1.0
C      1  0.4170390000000  0.4288000000000  0.4628790000000 1.0
C      1  0.5162650000000  0.3712120000000  0.4649860000000 1.0
C      1  0.5344290000000  0.4795490000000  0.5673200000000 1.0
C      1  0.3683020000000  0.5252360000000  0.5023030000000 1.0
C      1  0.4451820000000  0.5819530000000  0.4175950000000 1.0
C      1  0.5708760000000  0.5944620000000  0.5200860000000 1.0
C      1  0.5172260000000  0.5193710000000  0.5557080000000 1.0
C      1  0.4942350000000  0.3759740000000  0.4228730000000 1.0
C      1  0.3733610000000  0.5075080000000  0.5220710000000 1.0
C      1  0.4949990000000  0.4486590000000  0.5135210000000 1.0
C      1  0.4535110000000  0.4361340000000  0.4206840000000 1.0
C      1  0.5665910000000  0.5802210000000  0.4763000000000 1.0
C      1  0.5222780000000  0.6066690000000  0.4774110000000 1.0
C      1  0.4496300000000  0.4959300000000  0.4834390000000 1.0
C      1  0.6052970000000  0.5179360000000  0.5412400000000 1.0
C      1  0.4156620000000  0.4229510000000  0.4925240000000 1.0
C      1  0.4589270000000  0.5922240000000  0.4634870000000 1.0
C      1  0.4842520000000  0.5745830000000  0.4659500000000 1.0
C      1  0.5825950000000  0.4426970000000  0.4732940000000 1.0
C      1  0.4846240000000  0.6022810000000  0.5029240000000 1.0
C      1  0.5491940000000  0.4902320000000  0.6474810000000 1.0
C      1  0.4499810000000  0.5340380000000  0.4076710000000 1.0
C      1  0.4804490000000  0.5152760000000  0.6065650000000 1.0
C      1  0.4787880000000  0.3987810000000  0.4277830000000 1.0
C      1  0.4925060000000  0.5721220000000  0.4963880000000 1.0
C      1  0.5901970000000  0.5212780000000  0.4977350000000 1.0
C      1  0.3884280000000  0.5000200000000  0.5450550000000 1.0
C      1  0.4191860000000  0.5402060000000  0.5562480000000 1.0
C      1  0.4430830000000  0.5292440000000  0.5432530000000 1.0
C      1  0.6010060000000  0.5421040000000  0.4333040000000 1.0
C      1  0.4228670000000  0.4449450000000  0.5742290000000 1.0
C      1  0.5761140000000  0.4429370000000  0.6184310000000 1.0
C      1  0.4535770000000  0.4103330000000  0.5557500000000 1.0
C      1  0.4812630000000  0.4351770000000  0.4891480000000 1.0
C      1  0.5396950000000  0.5841880000000  0.4816980000000 1.0
C      1  0.5741060000000  0.4205780000000  0.5735840000000 1.0
C      1  0.5725920000000  0.5048490000000  0.4818970000000 1.0
C      1  0.5121330000000  0.5028130000000  0.3696900000000 1.0
C      1  0.5506420000000  0.4365020000000  0.5665090000000 1.0
C      1  0.5815690000000  0.4184730000000  0.4877540000000 1.0
C      1  0.5136360000000  0.4711590000000  0.4520080000000 1.0
C      1  0.5801920000000  0.5487500000000  0.4132600000000 1.0
C      1  0.4740060000000  0.5845870000000  0.5674990000000 1.0
C      1  0.4619360000000  0.5357430000000  0.5962150000000 1.0
C      1  0.5118190000000  0.6127530000000  0.5058860000000 1.0
C      1  0.5143530000000  0.3990180000000  0.4713800000000 1.0
C      1  0.5801670000000  0.5753050000000  0.5006920000000 1.0
C      1  0.6014330000000  0.4243300000000  0.4286360000000 1.0
C      1  0.5091110000000  0.4710360000000  0.4981900000000 1.0
C      1  0.6220050000000  0.4561200000000  0.4952990000000 1.0
C      1  0.5433200000000  0.4811800000000  0.6224080000000 1.0
C      1  0.3792960000000  0.4965160000000  0.4508100000000 1.0
C      1  0.4561610000000  0.3972100000000  0.4469800000000 1.0
C      1  0.4371780000000  0.3840290000000  0.5192810000000 1.0
C      1  0.4714860000000  0.5370590000000  0.5404670000000 1.0
C      1  0.5489020000000  0.5924950000000  0.5385160000000 1.0
C      1  0.4543440000000  0.4614490000000  0.5454040000000 1.0
C      1  0.4156380000000  0.4697900000000  0.5039060000000 1.0
C      1  0.4885000000000  0.4079660000000  0.4819020000000 1.0
C      1  0.5368560000000  0.5325150000000  0.4584290000000 1.0
C      1  0.4197300000000  0.5471070000000  0.4977350000000 1.0
C      1  0.4694990000000  0.4893940000000  0.6131100000000 1.0
C      1  0.5324850000000  0.4147000000000  0.4560800000000 1.0
C      1  0.6036140000000  0.5652060000000  0.4495530000000 1.0
C      1  0.5234900000000  0.5267810000000  0.5832780000000 1.0
C      1  0.4717330000000  0.5643370000000  0.5911790000000 1.0
C      1  0.3736370000000  0.5426710000000  0.4821560000000 1.0
C      1  0.4993110000000  0.5932860000000  0.5533400000000 1.0
C      1  0.6220630000000  0.4824380000000  0.5061650000000 1.0
C      1  0.5510530000000  0.4887470000000  0.4928200000000 1.0
C      1  0.5384430000000  0.5815400000000  0.4198980000000 1.0
C      1  0.5013930000000  0.4476340000000  0.5787570000000 1.0
C      1  0.4424830000000  0.5434560000000  0.4815620000000 1.0
C      1  0.5055310000000  0.5951790000000  0.4548680000000 1.0
C      1  0.5805590000000  0.4800090000000  0.5606340000000 1.0
C      1  0.4527290000000  0.4645760000000  0.4214390000000 1.0
C      1  0.5901870000000  0.5069040000000  0.5642740000000 1.0
C      1  0.4482520000000  0.5973360000000  0.5582900000000 1.0
C      1  0.6089430000000  0.5057210000000  0.5150690000000 1.0
C      1  0.4811730000000  0.5760490000000  0.6149790000000 1.0
C      1  0.5318510000000  0.5304070000000  0.4320990000000 1.0
C      1  0.5104860000000  0.4285770000000  0.5328530000000 1.0
C      1  0.5088540000000  0.3617220000000  0.4406480000000 1.0
C      1  0.4596890000000  0.6085670000000  0.4875500000000 1.0
C      1  0.5755090000000  0.4152840000000  0.4269520000000 1.0
C      1  0.5289570000000  0.4742190000000  0.4777620000000 1.0
C      1  0.5640610000000  0.4504930000000  0.4535040000000 1.0
C      1  0.5182280000000  0.5184250000000  0.5015590000000 1.0
C      1  0.6100880000000  0.4517850000000  0.4687020000000 1.0
C      1  0.4299430000000  0.4678630000000  0.5944030000000 1.0
C      1  0.5212120000000  0.6017750000000  0.5335910000000 1.0
C      1  0.4122320000000  0.5775470000000  0.4611140000000 1.0
C      1  0.3824430000000  0.4696710000000  0.4515460000000 1.0
C      1  0.5509110000000  0.4878500000000  0.5223470000000 1.0
C      1  0.5342930000000  0.4975960000000  0.5450610000000 1.0
C      1  0.4731610000000  0.4462020000000  0.5853780000000 1.0
C      1  0.5507880000000  0.5299090000000  0.5896190000000 1.0
C      1  0.3928820000000  0.5469000000000  0.4606640000000 1.0
C      1  0.4914530000000  0.5584920000000  0.4221020000000 1.0
C      1  0.3970390000000  0.5187460000000  0.4499150000000 1.0
C      1  0.5782080000000  0.4201250000000  0.6017120000000 1.0
C      1  0.6146930000000  0.4478670000000  0.4396500000000 1.0
C      1  0.4587210000000  0.4654700000000  0.6023090000000 1.0
C      1  0.5740430000000  0.4746520000000  0.5330400000000 1.0
C      1  0.4824800000000  0.4277260000000  0.4250470000000 1.0
C      1  0.5591540000000  0.4653420000000  0.5764170000000 1.0
C      1  0.4048960000000  0.4770720000000  0.5487120000000 1.0
C      1  0.5306480000000  0.4657840000000  0.3936620000000 1.0
C      1  0.3976390000000  0.5220690000000  0.5601890000000 1.0
C      1  0.4130190000000  0.5915420000000  0.4890950000000 1.0
C      1  0.5188130000000  0.4876710000000  0.6093540000000 1.0
C      1  0.5059220000000  0.4009050000000  0.5287380000000 1.0
C      1  0.5974340000000  0.4220940000000  0.5577610000000 1.0
C      1  0.4968400000000  0.4981490000000  0.5030830000000 1.0
C      1  0.4659710000000  0.5354100000000  0.4952690000000 1.0
C      1  0.4760900000000  0.5093950000000  0.4847920000000 1.0
C      1  0.4340260000000  0.4824070000000  0.5470210000000 1.0
C      1  0.5110730000000  0.5833660000000  0.4284150000000 1.0
C      1  0.6038000000000  0.4116230000000  0.5016370000000 1.0
C      1  0.6177710000000  0.4689850000000  0.4208040000000 1.0
C      1  0.4906100000000  0.5171900000000  0.5461940000000 1.0
C      1  0.4052050000000  0.5698830000000  0.5069390000000 1.0
C      1  0.4246940000000  0.5871620000000  0.5706760000000 1.0
C      1  0.5534150000000  0.4267370000000  0.4415110000000 1.0
C      1  0.4323160000000  0.4928280000000  0.5046350000000 1.0
C      1  0.5922400000000  0.5049280000000  0.3912490000000 1.0
C      1  0.4106390000000  0.5672310000000  0.5564630000000 1.0
C      1  0.5209260000000  0.4347320000000  0.5595620000000 1.0
C      1  0.4932150000000  0.4900860000000  0.4127930000000 1.0
C      1  0.4358890000000  0.5215870000000  0.5966450000000 1.0
C      1  0.5221720000000  0.5639840000000  0.4924520000000 1.0
C      1  0.5124780000000  0.4861930000000  0.3922090000000 1.0
C      1  0.5773740000000  0.5529630000000  0.5583210000000 1.0
C      1  0.5616230000000  0.4649390000000  0.6069430000000 1.0
C      1  0.5795010000000  0.5288440000000  0.3931800000000 1.0
C      1  0.4781710000000  0.4665130000000  0.5321860000000 1.0
C      1  0.6160350000000  0.4326490000000  0.5413740000000 1.0
C      1  0.4754760000000  0.5544320000000  0.5152930000000 1.0
C      1  0.4378510000000  0.5045030000000  0.5299810000000 1.0
C      1  0.3967310000000  0.4470050000000  0.4537520000000 1.0
C      1  0.5877170000000  0.4439300000000  0.6430840000000 1.0
C      1  0.5992450000000  0.5162090000000  0.4436780000000 1.0
C      1  0.6075210000000  0.4854470000000  0.4020120000000 1.0
C      1  0.6189430000000  0.4329300000000  0.5133410000000 1.0
C      1  0.5745720000000  0.5295560000000  0.5752600000000 1.0
C      1  0.5781190000000  0.5785780000000  0.4508610000000 1.0
C      1  0.4536550000000  0.5091340000000  0.3947820000000 1.0
C      1  0.4345840000000  0.6082380000000  0.5023880000000 1.0
C      1  0.4653660000000  0.4859010000000  0.4065660000000 1.0
C      1  0.4374810000000  0.4198550000000  0.4423630000000 1.0
C      1  0.5947650000000  0.5455480000000  0.5368460000000 1.0
C      1  0.4356870000000  0.5999630000000  0.3991060000000 1.0
C      1  0.4813450000000  0.5482000000000  0.4507310000000 1.0
C      1  0.5083860000000  0.5141850000000  0.6039960000000 1.0
C      1  0.5005020000000  0.4949500000000  0.4404120000000 1.0
C      1  0.4956430000000  0.4472320000000  0.4450590000000 1.0
C      1  0.4529350000000  0.4682480000000  0.4500350000000 1.0
C      1  0.4517730000000  0.4380490000000  0.5645710000000 1.0
C      1  0.4634720000000  0.5602900000000  0.4085780000000 1.0
C      1  0.3962480000000  0.5740240000000  0.5330720000000 1.0
C      1  0.4849670000000  0.3843160000000  0.5315270000000 1.0
C      1  0.5798790000000  0.4994360000000  0.4550040000000 1.0
C      1  0.4213110000000  0.3970410000000  0.5021270000000 1.0
C      1  0.4371850000000  0.5845600000000  0.4457720000000 1.0
C      1  0.4890250000000  0.5169300000000  0.4569620000000 1.0
C      1  0.4865410000000  0.4938560000000  0.5305800000000 1.0
C      1  0.4056970000000  0.4484670000000  0.5493280000000 1.0
C      1  0.5140830000000  0.4721930000000  0.5858610000000 1.0
C      1  0.4660100000000  0.3925760000000  0.4731040000000 1.0
C      1  0.5116600000000  0.5187140000000  0.3490470000000 1.0
END
