TITL C-612605-9286-267 0.807983637908567 125000 -200.751298719544 0 0 37 (C1) n - 1
REM
REM in /home/nfs/bkarasulu/CARBON/AIRSS/Generating-Clusters/TERSOFF/Only-C1/FIRE-HFTN
REM
REM
REM
REM
REM
REM ./C.cell (11c1c37f851c82e70ff6c80c92926a4b)
REM AIRSS Version 0.9.1 bugfix July 2018 build 013d7b7c2542+ Fri, 06 Jul 2018 19:26:36 +0100
REM compiler GCC version 9.2.1 20190827 (Red Hat 9.2.1-1)
REM options -cpp -mtune=generic -march=x86-64 -g -O0 -fpre-include=/usr/include/finclude/math-vector-fortran.h
REM seed 900335294 -793901914 -1514879414 -1477675878 608003409 1080035778 -1519071487 2008833498 -1703779676 100129418 -458452343 716199326 -1622038997 -2074857172 -2108083835 442750402 1596845281 1993475267 1495058914 310236383 769620448 738957663 -670539460 -507081829 1012873063 1233294398 1704602962 1506844613 1025530904 1405526340 285115262 -870110437 1733247611
REM
CELL 1.54180   50.00000   50.00000   50.00000   90.00000   90.00000   90.00000
LATT -1
SFAC C  
C      1  0.3980820000000  0.5028410000000  0.5087250000000 1.0
C      1  0.4850070000000  0.4369750000000  0.6402420000000 1.0
C      1  0.5142070000000  0.5954990000000  0.4631270000000 1.0
C      1  0.5147860000000  0.4874680000000  0.5865470000000 1.0
C      1  0.5202670000000  0.4962400000000  0.4277270000000 1.0
C      1  0.4936060000000  0.5524210000000  0.4576020000000 1.0
C      1  0.4749100000000  0.4201680000000  0.6580790000000 1.0
C      1  0.4770790000000  0.5194990000000  0.4257830000000 1.0
C      1  0.5296680000000  0.5206760000000  0.5480860000000 1.0
C      1  0.5519200000000  0.5153890000000  0.3884520000000 1.0
C      1  0.4247510000000  0.5085290000000  0.5108500000000 1.0
C      1  0.5051400000000  0.4705900000000  0.6045550000000 1.0
C      1  0.5343990000000  0.5351020000000  0.5263680000000 1.0
C      1  0.4649790000000  0.4036380000000  0.6756230000000 1.0
C      1  0.5311270000000  0.4878720000000  0.4520320000000 1.0
C      1  0.4951010000000  0.4537770000000  0.6224090000000 1.0
C      1  0.4379150000000  0.5056960000000  0.5353650000000 1.0
C      1  0.4965120000000  0.4792290000000  0.5049660000000 1.0
C      1  0.4507480000000  0.5030250000000  0.5578910000000 1.0
C      1  0.5364260000000  0.4788100000000  0.4778880000000 1.0
C      1  0.4552680000000  0.5251400000000  0.4690540000000 1.0
C      1  0.5231190000000  0.5043880000000  0.5679350000000 1.0
C      1  0.4751630000000  0.5325660000000  0.4509390000000 1.0
C      1  0.4648950000000  0.5300180000000  0.4036580000000 1.0
C      1  0.5605980000000  0.5521050000000  0.4608350000000 1.0
C      1  0.5613750000000  0.4832520000000  0.4896050000000 1.0
C      1  0.5382890000000  0.5556100000000  0.4762750000000 1.0
C      1  0.4792830000000  0.4711510000000  0.4191280000000 1.0
C      1  0.5161940000000  0.4649890000000  0.4923300000000 1.0
C      1  0.5165930000000  0.4376190000000  0.4932470000000 1.0
C      1  0.5842040000000  0.4884120000000  0.5010670000000 1.0
C      1  0.5376480000000  0.5465900000000  0.5027250000000 1.0
C      1  0.4921130000000  0.4954580000000  0.4240140000000 1.0
C      1  0.5152090000000  0.5682680000000  0.4655110000000 1.0
C      1  0.4674350000000  0.4482150000000  0.4155680000000 1.0
C      1  0.4391760000000  0.5172400000000  0.4885370000000 1.0
C      1  0.5368070000000  0.5055340000000  0.4072560000000 1.0
END
