TITL C-612601-4209-290 0.000283420045204269 125000 -522.591559605164 0 0 86 (C1) n - 1
REM
REM in /home/nfs/bkarasulu/CARBON/AIRSS/Generating-Clusters/TERSOFF/Only-C1/FIRE-HFTN
REM
REM
REM
REM
REM
REM ./C.cell (11c1c37f851c82e70ff6c80c92926a4b)
REM AIRSS Version 0.9.1 bugfix July 2018 build 013d7b7c2542+ Fri, 06 Jul 2018 19:26:36 +0100
REM compiler GCC version 9.2.1 20190827 (Red Hat 9.2.1-1)
REM options -cpp -mtune=generic -march=x86-64 -g -O0 -fpre-include=/usr/include/finclude/math-vector-fortran.h
REM seed -1063708567 -2125498601 114415798 728663258 563161526 -1164033987 -991410196 -1846359670 -109701029 901500705 -1426300909 -1266896493 -2055783490 96871571 -618334189 -178275191 157353879 1656365544 1271427761 -1097058973 -1373349299 1207215299 1437485763 -2116646625 1599517876 1033844408 822170619 -469471144 -643913634 -1452001597 1852099135 -1854552487 472203605
REM
CELL 1.54180   50.00000   50.00000   50.00000   90.00000   90.00000   90.00000
LATT -1
SFAC C  
C      1  0.4956430000000  0.4764990000000  0.5186910000000 1.0
C      1  0.5264880000000  0.5904770000000  0.5335820000000 1.0
C      1  0.4870340000000  0.5008940000000  0.5307760000000 1.0
C      1  0.4913230000000  0.5205680000000  0.5115690000000 1.0
C      1  0.5624590000000  0.4544810000000  0.5024010000000 1.0
C      1  0.5332420000000  0.4776180000000  0.5457860000000 1.0
C      1  0.5756930000000  0.5105090000000  0.4657620000000 1.0
C      1  0.4532170000000  0.5097790000000  0.4891460000000 1.0
C      1  0.5001320000000  0.5810860000000  0.4631440000000 1.0
C      1  0.5418690000000  0.4232990000000  0.5313240000000 1.0
C      1  0.5907950000000  0.4571330000000  0.4962940000000 1.0
C      1  0.5346550000000  0.5398780000000  0.5613150000000 1.0
C      1  0.4789080000000  0.4504950000000  0.4802590000000 1.0
C      1  0.4711150000000  0.4670060000000  0.5749590000000 1.0
C      1  0.4340560000000  0.4899530000000  0.4850860000000 1.0
C      1  0.5103400000000  0.5400100000000  0.5178960000000 1.0
C      1  0.5366770000000  0.5680770000000  0.5504950000000 1.0
C      1  0.5241380000000  0.5399140000000  0.4739620000000 1.0
C      1  0.4736690000000  0.5436810000000  0.4373770000000 1.0
C      1  0.5753310000000  0.5609080000000  0.5195380000000 1.0
C      1  0.4969350000000  0.5272520000000  0.4378050000000 1.0
C      1  0.5374860000000  0.4791770000000  0.4661760000000 1.0
C      1  0.4356700000000  0.4434620000000  0.5306860000000 1.0
C      1  0.4885770000000  0.4678230000000  0.4334890000000 1.0
C      1  0.5159870000000  0.4674030000000  0.5661650000000 1.0
C      1  0.5238330000000  0.4754990000000  0.5182630000000 1.0
C      1  0.5766500000000  0.5254020000000  0.4878640000000 1.0
C      1  0.4794860000000  0.5193220000000  0.4866950000000 1.0
C      1  0.5048030000000  0.5343880000000  0.5616720000000 1.0
C      1  0.5586920000000  0.4899150000000  0.5513760000000 1.0
C      1  0.4787320000000  0.5709320000000  0.4466210000000 1.0
C      1  0.5995930000000  0.4694460000000  0.5219050000000 1.0
C      1  0.4367890000000  0.5443000000000  0.4677230000000 1.0
C      1  0.5550610000000  0.4984780000000  0.4512160000000 1.0
C      1  0.5227640000000  0.4193980000000  0.4797440000000 1.0
C      1  0.5611440000000  0.4447570000000  0.5301310000000 1.0
C      1  0.4637760000000  0.4434490000000  0.5318640000000 1.0
C      1  0.5140960000000  0.4560660000000  0.4271780000000 1.0
C      1  0.5238630000000  0.4213340000000  0.5528210000000 1.0
C      1  0.4764490000000  0.4436250000000  0.5578290000000 1.0
C      1  0.5322840000000  0.4133680000000  0.5060330000000 1.0
C      1  0.4906960000000  0.4717440000000  0.4623220000000 1.0
C      1  0.5542090000000  0.5178790000000  0.5591620000000 1.0
C      1  0.4736190000000  0.4078770000000  0.4611610000000 1.0
C      1  0.3763500000000  0.5351380000000  0.5373700000000 1.0
C      1  0.5020530000000  0.5903700000000  0.5162990000000 1.0
C      1  0.5191560000000  0.5211330000000  0.4212190000000 1.0
C      1  0.4504250000000  0.4490920000000  0.4661090000000 1.0
C      1  0.4491400000000  0.4951890000000  0.4402590000000 1.0
C      1  0.5431180000000  0.5101660000000  0.4280240000000 1.0
C      1  0.5413850000000  0.4714030000000  0.4955920000000 1.0
C      1  0.4146090000000  0.4614660000000  0.5261560000000 1.0
C      1  0.3903410000000  0.5512170000000  0.5214770000000 1.0
C      1  0.4784360000000  0.4558310000000  0.5100940000000 1.0
C      1  0.5427490000000  0.4298620000000  0.4608200000000 1.0
C      1  0.4939760000000  0.4851580000000  0.5747820000000 1.0
C      1  0.5936130000000  0.5758770000000  0.5305810000000 1.0
C      1  0.5775850000000  0.4680560000000  0.5427290000000 1.0
C      1  0.4175430000000  0.4790990000000  0.5044830000000 1.0
C      1  0.5713900000000  0.4267570000000  0.4625330000000 1.0
C      1  0.4577660000000  0.5671080000000  0.5102440000000 1.0
C      1  0.5329120000000  0.5410650000000  0.5010960000000 1.0
C      1  0.4808020000000  0.5729080000000  0.5266530000000 1.0
C      1  0.5102710000000  0.4908580000000  0.4678020000000 1.0
C      1  0.5930650000000  0.4396940000000  0.4737090000000 1.0
C      1  0.5054670000000  0.4403670000000  0.5614900000000 1.0
C      1  0.5234010000000  0.5648440000000  0.4605170000000 1.0
C      1  0.4104590000000  0.5586950000000  0.5058220000000 1.0
C      1  0.3937010000000  0.4664070000000  0.5440430000000 1.0
C      1  0.5612600000000  0.5420300000000  0.5045890000000 1.0
C      1  0.5410170000000  0.6145870000000  0.5345190000000 1.0
C      1  0.4942570000000  0.4233990000000  0.4747430000000 1.0
C      1  0.4960560000000  0.5526670000000  0.5404960000000 1.0
C      1  0.4359150000000  0.5575730000000  0.4936830000000 1.0
C      1  0.3775710000000  0.4860490000000  0.5521840000000 1.0
C      1  0.5544190000000  0.6369350000000  0.5347580000000 1.0
C      1  0.5343050000000  0.4541240000000  0.4479320000000 1.0
C      1  0.4644750000000  0.4853950000000  0.3944700000000 1.0
C      1  0.4674920000000  0.4829360000000  0.4214670000000 1.0
C      1  0.3713700000000  0.5117860000000  0.5491260000000 1.0
C      1  0.4500090000000  0.4217410000000  0.4567100000000 1.0
C      1  0.4497370000000  0.5295340000000  0.4461770000000 1.0
C      1  0.4396030000000  0.4760270000000  0.4609280000000 1.0
C      1  0.4997530000000  0.5953140000000  0.4880520000000 1.0
C      1  0.4925520000000  0.5082860000000  0.5585940000000 1.0
C      1  0.5025210000000  0.5192910000000  0.4664060000000 1.0
END
