TITL C-612605-9286-257 0.000130862551174197 125000 -290.768568703994 0 0 50 (C1) n - 1
REM
REM in /home/nfs/bkarasulu/CARBON/AIRSS/Generating-Clusters/TERSOFF/Only-C1/FIRE-HFTN
REM
REM
REM
REM
REM
REM ./C.cell (11c1c37f851c82e70ff6c80c92926a4b)
REM AIRSS Version 0.9.1 bugfix July 2018 build 013d7b7c2542+ Fri, 06 Jul 2018 19:26:36 +0100
REM compiler GCC version 9.2.1 20190827 (Red Hat 9.2.1-1)
REM options -cpp -mtune=generic -march=x86-64 -g -O0 -fpre-include=/usr/include/finclude/math-vector-fortran.h
REM seed 772378463 1726628569 -138380455 648380551 -545701153 306819450 -720316187 1012944257 -1943716303 1380368638 -1390480909 -140408845 1874139576 -1113232431 1189304009 1041755575 -619863007 1054875382 1986901576 -52975037 -1589782343 178183731 1734780864 335574803 -929502299 -1518248817 -406505718 1053384590 -1404208531 835547938 -14353152 846824289 -1610021680
REM
CELL 1.54180   50.00000   50.00000   50.00000   90.00000   90.00000   90.00000
LATT -1
SFAC C  
C      1  0.4318360000000  0.5168650000000  0.5317760000000 1.0
C      1  0.4514420000000  0.4966290000000  0.4593800000000 1.0
C      1  0.5231030000000  0.4509610000000  0.5411620000000 1.0
C      1  0.5096300000000  0.4929440000000  0.5649810000000 1.0
C      1  0.4744760000000  0.5019040000000  0.4436640000000 1.0
C      1  0.5215390000000  0.5106280000000  0.4782140000000 1.0
C      1  0.5221510000000  0.5858980000000  0.4944600000000 1.0
C      1  0.5438230000000  0.5680820000000  0.4974700000000 1.0
C      1  0.5224390000000  0.5336820000000  0.4617830000000 1.0
C      1  0.5565330000000  0.4710560000000  0.4869560000000 1.0
C      1  0.4500150000000  0.4267730000000  0.4862380000000 1.0
C      1  0.5717240000000  0.4633370000000  0.5074820000000 1.0
C      1  0.5301370000000  0.4747290000000  0.5554660000000 1.0
C      1  0.4976970000000  0.4843340000000  0.4422060000000 1.0
C      1  0.4668610000000  0.5494340000000  0.4529510000000 1.0
C      1  0.5563160000000  0.5431130000000  0.5016290000000 1.0
C      1  0.5649540000000  0.5095620000000  0.4628400000000 1.0
C      1  0.5607380000000  0.5124810000000  0.5425560000000 1.0
C      1  0.4648600000000  0.4467870000000  0.4763290000000 1.0
C      1  0.5256500000000  0.6124040000000  0.5004390000000 1.0
C      1  0.5201780000000  0.4348010000000  0.4910190000000 1.0
C      1  0.5702830000000  0.5300630000000  0.4802950000000 1.0
C      1  0.4356960000000  0.5064370000000  0.5057250000000 1.0
C      1  0.4494410000000  0.4328100000000  0.5344540000000 1.0
C      1  0.5084460000000  0.5171500000000  0.5501160000000 1.0
C      1  0.4856330000000  0.4883240000000  0.5791870000000 1.0
C      1  0.4309990000000  0.4987480000000  0.4788650000000 1.0
C      1  0.4776620000000  0.4751100000000  0.5294440000000 1.0
C      1  0.5200400000000  0.4454310000000  0.4660520000000 1.0
C      1  0.4432020000000  0.5056310000000  0.5551360000000 1.0
C      1  0.5732670000000  0.4674630000000  0.5340030000000 1.0
C      1  0.4768460000000  0.5661360000000  0.4714810000000 1.0
C      1  0.4969320000000  0.5769810000000  0.4854150000000 1.0
C      1  0.5181810000000  0.5209470000000  0.5242120000000 1.0
C      1  0.5071800000000  0.5062730000000  0.5022590000000 1.0
C      1  0.5213370000000  0.4714360000000  0.4537180000000 1.0
C      1  0.4881650000000  0.4846350000000  0.5050680000000 1.0
C      1  0.5567430000000  0.4849570000000  0.5489620000000 1.0
C      1  0.4052490000000  0.4929300000000  0.4713320000000 1.0
C      1  0.4636590000000  0.4548090000000  0.5400720000000 1.0
C      1  0.5214900000000  0.5416360000000  0.4360100000000 1.0
C      1  0.5415870000000  0.4898300000000  0.4685450000000 1.0
C      1  0.4763460000000  0.5293630000000  0.4351320000000 1.0
C      1  0.4791510000000  0.4682140000000  0.4838790000000 1.0
C      1  0.4603890000000  0.4963720000000  0.5735980000000 1.0
C      1  0.4161860000000  0.5392690000000  0.5345130000000 1.0
C      1  0.4431650000000  0.4203310000000  0.5114590000000 1.0
C      1  0.5208460000000  0.4375470000000  0.5178510000000 1.0
C      1  0.5462840000000  0.5275350000000  0.5234010000000 1.0
C      1  0.4994920000000  0.5372280000000  0.4208150000000 1.0
END
