TITL C-612602-9376-20 0.0986673640350737 125000 -534.888698437784 0 0 90 (C1) n - 1
REM
REM in /home/nfs/bkarasulu/CARBON/AIRSS/Generating-Clusters/TERSOFF/Only-C1/FIRE-HFTN
REM
REM
REM
REM
REM
REM ./C.cell (11c1c37f851c82e70ff6c80c92926a4b)
REM AIRSS Version 0.9.1 bugfix July 2018 build 013d7b7c2542+ Fri, 06 Jul 2018 19:26:36 +0100
REM compiler GCC version 9.2.1 20190827 (Red Hat 9.2.1-1)
REM options -cpp -mtune=generic -march=x86-64 -g -O0 -fpre-include=/usr/include/finclude/math-vector-fortran.h
REM seed 2102847240 1483333116 -1123802205 -1747942448 -2035216101 -1499306652 1907474479 872894668 -465755013 61481877 1074368662 -1922758571 346547815 1705983473 -1577754075 233610856 1978450637 27898284 1157602978 695128814 -930326301 1082438303 -712383085 -856138292 2031587736 606548693 1795214800 449818062 605923475 1446099511 209073606 566819970 1325578075
REM
CELL 1.54180   50.00000   50.00000   50.00000   90.00000   90.00000   90.00000
LATT -1
SFAC C  
C      1  0.3924470000000  0.4822800000000  0.4863120000000 1.0
C      1  0.5127450000000  0.5209400000000  0.5248440000000 1.0
C      1  0.5144060000000  0.5431250000000  0.4235980000000 1.0
C      1  0.5073410000000  0.5407750000000  0.5726780000000 1.0
C      1  0.5350280000000  0.5053550000000  0.5708570000000 1.0
C      1  0.5997180000000  0.4748370000000  0.4466510000000 1.0
C      1  0.4273130000000  0.5402370000000  0.5018220000000 1.0
C      1  0.5400250000000  0.5647270000000  0.5490600000000 1.0
C      1  0.4962460000000  0.4841630000000  0.3963240000000 1.0
C      1  0.4659340000000  0.5082050000000  0.5469160000000 1.0
C      1  0.4743620000000  0.4695670000000  0.5746450000000 1.0
C      1  0.4708870000000  0.5765760000000  0.5118510000000 1.0
C      1  0.4845970000000  0.5763520000000  0.5589780000000 1.0
C      1  0.5457960000000  0.4539050000000  0.5405890000000 1.0
C      1  0.5160430000000  0.5753370000000  0.4672510000000 1.0
C      1  0.3492550000000  0.4528880000000  0.4732730000000 1.0
C      1  0.5770230000000  0.4833330000000  0.5129530000000 1.0
C      1  0.5189390000000  0.4891590000000  0.5881450000000 1.0
C      1  0.4985190000000  0.4595080000000  0.5186010000000 1.0
C      1  0.5128510000000  0.4643930000000  0.4038440000000 1.0
C      1  0.5266450000000  0.4485670000000  0.5191030000000 1.0
C      1  0.4591520000000  0.4792730000000  0.5520230000000 1.0
C      1  0.5289800000000  0.4231860000000  0.5056230000000 1.0
C      1  0.4569860000000  0.4820920000000  0.4925790000000 1.0
C      1  0.5754620000000  0.5325750000000  0.5245360000000 1.0
C      1  0.4909080000000  0.4101710000000  0.4795790000000 1.0
C      1  0.4143160000000  0.4715320000000  0.5013440000000 1.0
C      1  0.5182260000000  0.4216330000000  0.4784920000000 1.0
C      1  0.5307100000000  0.5018630000000  0.5105010000000 1.0
C      1  0.5076740000000  0.4619190000000  0.4516690000000 1.0
C      1  0.4308750000000  0.4490290000000  0.5119640000000 1.0
C      1  0.4933370000000  0.4271760000000  0.5582900000000 1.0
C      1  0.5593250000000  0.5255230000000  0.4397550000000 1.0
C      1  0.4660100000000  0.5255680000000  0.5715770000000 1.0
C      1  0.5381860000000  0.4853380000000  0.4882920000000 1.0
C      1  0.4850860000000  0.4413050000000  0.5366650000000 1.0
C      1  0.5687780000000  0.4704490000000  0.5368780000000 1.0
C      1  0.5256620000000  0.4606400000000  0.4287410000000 1.0
C      1  0.4120480000000  0.5169810000000  0.5422090000000 1.0
C      1  0.5691430000000  0.4515800000000  0.4729210000000 1.0
C      1  0.5905810000000  0.5150530000000  0.4781670000000 1.0
C      1  0.5839050000000  0.5112560000000  0.5067130000000 1.0
C      1  0.4251890000000  0.5165730000000  0.5182820000000 1.0
C      1  0.5115990000000  0.5754330000000  0.5447380000000 1.0
C      1  0.4748640000000  0.5291140000000  0.4488090000000 1.0
C      1  0.5251990000000  0.5538540000000  0.4812840000000 1.0
C      1  0.4540750000000  0.5521650000000  0.5033010000000 1.0
C      1  0.5768890000000  0.5337890000000  0.4611290000000 1.0
C      1  0.5176160000000  0.5215740000000  0.5545880000000 1.0
C      1  0.5825300000000  0.5610250000000  0.4644290000000 1.0
C      1  0.5623510000000  0.4716270000000  0.4912100000000 1.0
C      1  0.5170120000000  0.4273200000000  0.5713570000000 1.0
C      1  0.4704800000000  0.4293430000000  0.4751330000000 1.0
C      1  0.4118530000000  0.5338990000000  0.4776810000000 1.0
C      1  0.5165360000000  0.3990730000000  0.5172370000000 1.0
C      1  0.4474560000000  0.4330110000000  0.4935160000000 1.0
C      1  0.4490120000000  0.5393240000000  0.4446390000000 1.0
C      1  0.4938010000000  0.3921170000000  0.5023850000000 1.0
C      1  0.5530370000000  0.4711510000000  0.4321240000000 1.0
C      1  0.5018090000000  0.5685810000000  0.5181370000000 1.0
C      1  0.5399140000000  0.4400210000000  0.5645600000000 1.0
C      1  0.4753130000000  0.5949630000000  0.4884150000000 1.0
C      1  0.4805770000000  0.5506440000000  0.5712740000000 1.0
C      1  0.4915060000000  0.5271670000000  0.4258150000000 1.0
C      1  0.5753240000000  0.4596650000000  0.4465600000000 1.0
C      1  0.4735400000000  0.5100660000000  0.5950690000000 1.0
C      1  0.6054380000000  0.4953760000000  0.4636260000000 1.0
C      1  0.4718880000000  0.5300830000000  0.4996400000000 1.0
C      1  0.4239750000000  0.5416500000000  0.4536030000000 1.0
C      1  0.3700670000000  0.4672740000000  0.4795240000000 1.0
C      1  0.4790760000000  0.4527370000000  0.4584270000000 1.0
C      1  0.4643610000000  0.5857030000000  0.5402150000000 1.0
C      1  0.3952300000000  0.5101540000000  0.4785120000000 1.0
C      1  0.5592090000000  0.5209670000000  0.5688200000000 1.0
C      1  0.5877820000000  0.5861850000000  0.4687320000000 1.0
C      1  0.5607120000000  0.5419540000000  0.5478980000000 1.0
C      1  0.4903060000000  0.4867540000000  0.5911020000000 1.0
C      1  0.4873460000000  0.5073090000000  0.4063600000000 1.0
C      1  0.5565220000000  0.4993080000000  0.4296360000000 1.0
C      1  0.4952730000000  0.5924440000000  0.4700950000000 1.0
C      1  0.4840790000000  0.4802830000000  0.5024200000000 1.0
C      1  0.5173310000000  0.4819250000000  0.4698570000000 1.0
C      1  0.4428150000000  0.4598990000000  0.5373300000000 1.0
C      1  0.5158150000000  0.5470430000000  0.5069660000000 1.0
C      1  0.5404970000000  0.5435690000000  0.4292010000000 1.0
C      1  0.4966100000000  0.4963370000000  0.4813000000000 1.0
C      1  0.4586170000000  0.4728720000000  0.4647370000000 1.0
C      1  0.4818130000000  0.5171790000000  0.5238230000000 1.0
C      1  0.4338300000000  0.4929810000000  0.5047650000000 1.0
C      1  0.4824520000000  0.5201450000000  0.4749280000000 1.0
END
