TITL C-612601-4209-458 0.10874967602853 125000 -347.193011538722 0 0 57 (C1) n - 1
REM
REM in /home/nfs/bkarasulu/CARBON/AIRSS/Generating-Clusters/TERSOFF/Only-C1/FIRE-HFTN
REM
REM
REM
REM
REM
REM ./C.cell (11c1c37f851c82e70ff6c80c92926a4b)
REM AIRSS Version 0.9.1 bugfix July 2018 build 013d7b7c2542+ Fri, 06 Jul 2018 19:26:36 +0100
REM compiler GCC version 9.2.1 20190827 (Red Hat 9.2.1-1)
REM options -cpp -mtune=generic -march=x86-64 -g -O0 -fpre-include=/usr/include/finclude/math-vector-fortran.h
REM seed -1532435198 1130767800 -1518265777 2046664827 1471626640 812768333 -5705243 -2086893348 1224404670 -782446803 719524405 1018431319 -2010329827 673644467 1581855533 1400060019 -111558898 1521972386 -308184711 1499722049 -2001008042 591428486 689898679 -1088733659 2032784844 723797415 1237112929 597517011 -2069544544 -1898605073 -2097692071 2069158553 -809396248
REM
CELL 1.54180   50.00000   50.00000   50.00000   90.00000   90.00000   90.00000
LATT -1
SFAC C  
C      1  0.4714820000000  0.4709900000000  0.5513030000000 1.0
C      1  0.5215310000000  0.5440530000000  0.5718170000000 1.0
C      1  0.3915890000000  0.5391010000000  0.4975060000000 1.0
C      1  0.5119040000000  0.4004710000000  0.4656710000000 1.0
C      1  0.4765660000000  0.4625350000000  0.4840550000000 1.0
C      1  0.5025420000000  0.5151490000000  0.5364920000000 1.0
C      1  0.4884650000000  0.5147720000000  0.5116390000000 1.0
C      1  0.5074990000000  0.4424980000000  0.5439300000000 1.0
C      1  0.5777700000000  0.5647130000000  0.5403030000000 1.0
C      1  0.5674750000000  0.5629980000000  0.5648570000000 1.0
C      1  0.3681970000000  0.5508210000000  0.5017520000000 1.0
C      1  0.5147340000000  0.5164520000000  0.4298020000000 1.0
C      1  0.5465560000000  0.4454610000000  0.5126460000000 1.0
C      1  0.4303850000000  0.4570300000000  0.5332640000000 1.0
C      1  0.5036660000000  0.5397760000000  0.5506920000000 1.0
C      1  0.4465290000000  0.5062780000000  0.4406430000000 1.0
C      1  0.5010140000000  0.5606110000000  0.4511610000000 1.0
C      1  0.5424780000000  0.4371460000000  0.4555910000000 1.0
C      1  0.5623330000000  0.5449690000000  0.4951250000000 1.0
C      1  0.4901790000000  0.5783290000000  0.4679500000000 1.0
C      1  0.4997670000000  0.4687870000000  0.5518250000000 1.0
C      1  0.5012860000000  0.4348440000000  0.5168390000000 1.0
C      1  0.5364030000000  0.4982040000000  0.4314650000000 1.0
C      1  0.5554020000000  0.4720700000000  0.5165220000000 1.0
C      1  0.5035810000000  0.5065230000000  0.4890650000000 1.0
C      1  0.5607420000000  0.5002280000000  0.4754230000000 1.0
C      1  0.4252820000000  0.4722000000000  0.5559790000000 1.0
C      1  0.4905570000000  0.5620700000000  0.5395560000000 1.0
C      1  0.5130100000000  0.5354070000000  0.4511840000000 1.0
C      1  0.5485160000000  0.5244090000000  0.4825260000000 1.0
C      1  0.4393880000000  0.5146310000000  0.4891580000000 1.0
C      1  0.5627260000000  0.4982120000000  0.5562890000000 1.0
C      1  0.5535000000000  0.4862220000000  0.4503150000000 1.0
C      1  0.4982610000000  0.4803590000000  0.4800050000000 1.0
C      1  0.4430820000000  0.4969690000000  0.4669070000000 1.0
C      1  0.4492920000000  0.4808000000000  0.5669860000000 1.0
C      1  0.5261570000000  0.4229700000000  0.4739170000000 1.0
C      1  0.4646910000000  0.5094760000000  0.4212880000000 1.0
C      1  0.3451890000000  0.5623480000000  0.5059280000000 1.0
C      1  0.5246150000000  0.4320480000000  0.5009010000000 1.0
C      1  0.5164150000000  0.4908950000000  0.5438130000000 1.0
C      1  0.4523010000000  0.4708010000000  0.4724110000000 1.0
C      1  0.5611640000000  0.4580610000000  0.4541850000000 1.0
C      1  0.4589130000000  0.4555130000000  0.5284440000000 1.0
C      1  0.5744610000000  0.5582000000000  0.5147050000000 1.0
C      1  0.5447590000000  0.4874370000000  0.5384630000000 1.0
C      1  0.4610110000000  0.5186200000000  0.5069390000000 1.0
C      1  0.5713730000000  0.4810630000000  0.4945650000000 1.0
C      1  0.4908410000000  0.5115410000000  0.4159450000000 1.0
C      1  0.5800790000000  0.4596180000000  0.4764730000000 1.0
C      1  0.5209490000000  0.5247960000000  0.4763490000000 1.0
C      1  0.4844230000000  0.5780320000000  0.5191460000000 1.0
C      1  0.4842190000000  0.5842520000000  0.4932490000000 1.0
C      1  0.4766500000000  0.4468090000000  0.5077670000000 1.0
C      1  0.4149400000000  0.5273270000000  0.4933100000000 1.0
C      1  0.4975790000000  0.3798920000000  0.4585710000000 1.0
C      1  0.5455830000000  0.5542110000000  0.5773860000000 1.0
END
