TITL C-612605-9286-228 0.422942614198453 125000 -472.514279575688 0 0 80 (C1) n - 1
REM
REM in /home/nfs/bkarasulu/CARBON/AIRSS/Generating-Clusters/TERSOFF/Only-C1/FIRE-HFTN
REM
REM
REM
REM
REM
REM ./C.cell (11c1c37f851c82e70ff6c80c92926a4b)
REM AIRSS Version 0.9.1 bugfix July 2018 build 013d7b7c2542+ Fri, 06 Jul 2018 19:26:36 +0100
REM compiler GCC version 9.2.1 20190827 (Red Hat 9.2.1-1)
REM options -cpp -mtune=generic -march=x86-64 -g -O0 -fpre-include=/usr/include/finclude/math-vector-fortran.h
REM seed -2006737102 -80546551 -1831569705 968511411 -1310483802 -1151951325 -699263702 -1817755797 312712294 1277708098 95389403 1388739575 857262822 -1040063120 -1758934562 -1717133768 -10729101 -800941387 2047342074 1922909518 1797223024 -1936613311 809936907 56491400 -1825841814 1437578328 1343734151 -623851929 1862788145 -1365166239 -406380525 -672658442 118243308
REM
CELL 1.54180   50.00000   50.00000   50.00000   90.00000   90.00000   90.00000
LATT -1
SFAC C  
C      1  0.4844070000000  0.5249350000000  0.5185890000000 1.0
C      1  0.4555230000000  0.4929840000000  0.5786490000000 1.0
C      1  0.4969600000000  0.5705120000000  0.5321420000000 1.0
C      1  0.4641280000000  0.4722030000000  0.5614860000000 1.0
C      1  0.5294730000000  0.4663340000000  0.4190350000000 1.0
C      1  0.5769190000000  0.5585720000000  0.5036370000000 1.0
C      1  0.4231150000000  0.5113640000000  0.5311490000000 1.0
C      1  0.6326580000000  0.5243040000000  0.3812160000000 1.0
C      1  0.4730110000000  0.4969240000000  0.4617080000000 1.0
C      1  0.5919710000000  0.5017610000000  0.4057230000000 1.0
C      1  0.4124250000000  0.5374990000000  0.4508970000000 1.0
C      1  0.3875480000000  0.5366600000000  0.4638000000000 1.0
C      1  0.4155880000000  0.5221780000000  0.4270240000000 1.0
C      1  0.5831080000000  0.4065980000000  0.5401580000000 1.0
C      1  0.5307490000000  0.5432670000000  0.5079110000000 1.0
C      1  0.5517670000000  0.4775320000000  0.4608450000000 1.0
C      1  0.5081700000000  0.4091060000000  0.4704010000000 1.0
C      1  0.5495800000000  0.5655260000000  0.4991220000000 1.0
C      1  0.4832350000000  0.4053690000000  0.4598790000000 1.0
C      1  0.5218940000000  0.5396890000000  0.5573790000000 1.0
C      1  0.5023010000000  0.5609470000000  0.5586400000000 1.0
C      1  0.4400910000000  0.5045820000000  0.5097280000000 1.0
C      1  0.4944440000000  0.4524300000000  0.4830540000000 1.0
C      1  0.5413890000000  0.4412340000000  0.4918850000000 1.0
C      1  0.5339680000000  0.5198630000000  0.4899810000000 1.0
C      1  0.4524870000000  0.4469320000000  0.5622950000000 1.0
C      1  0.6412830000000  0.4852810000000  0.5221960000000 1.0
C      1  0.4575170000000  0.6312180000000  0.5377610000000 1.0
C      1  0.5291120000000  0.4940340000000  0.5692760000000 1.0
C      1  0.4604160000000  0.5418060000000  0.5826870000000 1.0
C      1  0.5715830000000  0.4903540000000  0.4182020000000 1.0
C      1  0.3825350000000  0.4322410000000  0.5162790000000 1.0
C      1  0.3639390000000  0.5003850000000  0.4914640000000 1.0
C      1  0.5465890000000  0.4809570000000  0.5509720000000 1.0
C      1  0.5852060000000  0.4430090000000  0.4701200000000 1.0
C      1  0.4348900000000  0.5471230000000  0.4647370000000 1.0
C      1  0.4686120000000  0.4503400000000  0.4710730000000 1.0
C      1  0.5337840000000  0.4600200000000  0.5360880000000 1.0
C      1  0.5667780000000  0.5242170000000  0.5360930000000 1.0
C      1  0.4914490000000  0.5063870000000  0.5401590000000 1.0
C      1  0.6124820000000  0.5131260000000  0.3933670000000 1.0
C      1  0.4128630000000  0.5335350000000  0.4023520000000 1.0
C      1  0.5950110000000  0.4850910000000  0.5382660000000 1.0
C      1  0.6172490000000  0.4974730000000  0.5258080000000 1.0
C      1  0.5437400000000  0.4998580000000  0.4756120000000 1.0
C      1  0.6096000000000  0.4341260000000  0.4678690000000 1.0
C      1  0.4766100000000  0.6151290000000  0.5302950000000 1.0
C      1  0.3896670000000  0.4566540000000  0.5063910000000 1.0
C      1  0.4524990000000  0.4755140000000  0.4687130000000 1.0
C      1  0.4809900000000  0.5580700000000  0.5768990000000 1.0
C      1  0.4337660000000  0.4764090000000  0.4452800000000 1.0
C      1  0.4845290000000  0.4786660000000  0.5426370000000 1.0
C      1  0.3705840000000  0.4765400000000  0.5011760000000 1.0
C      1  0.4965290000000  0.5971820000000  0.5229650000000 1.0
C      1  0.4452990000000  0.5191560000000  0.5755670000000 1.0
C      1  0.5509350000000  0.4781320000000  0.4324660000000 1.0
C      1  0.5650000000000  0.4227520000000  0.5306610000000 1.0
C      1  0.4601300000000  0.5238920000000  0.5038110000000 1.0
C      1  0.5868660000000  0.5372560000000  0.5195700000000 1.0
C      1  0.5693360000000  0.4960480000000  0.5426460000000 1.0
C      1  0.5053510000000  0.4606840000000  0.5362800000000 1.0
C      1  0.5597500000000  0.4536780000000  0.4741130000000 1.0
C      1  0.4638490000000  0.4246200000000  0.4599930000000 1.0
C      1  0.5471010000000  0.4411410000000  0.5197890000000 1.0
C      1  0.4248970000000  0.5209300000000  0.5561570000000 1.0
C      1  0.4528420000000  0.5426120000000  0.4840330000000 1.0
C      1  0.5388020000000  0.5911550000000  0.4956770000000 1.0
C      1  0.5085450000000  0.4547570000000  0.4086820000000 1.0
C      1  0.4164390000000  0.4630390000000  0.5010190000000 1.0
C      1  0.5158670000000  0.4336860000000  0.4825180000000 1.0
C      1  0.5176220000000  0.6042590000000  0.5056600000000 1.0
C      1  0.6115460000000  0.5239390000000  0.5173970000000 1.0
C      1  0.4370220000000  0.4809860000000  0.4941460000000 1.0
C      1  0.5108630000000  0.5138110000000  0.5606050000000 1.0
C      1  0.5417950000000  0.5379300000000  0.5365600000000 1.0
C      1  0.3701730000000  0.5225970000000  0.4782290000000 1.0
C      1  0.4411290000000  0.4235120000000  0.5610120000000 1.0
C      1  0.4891040000000  0.5121970000000  0.4480230000000 1.0
C      1  0.5013030000000  0.5482520000000  0.5140620000000 1.0
C      1  0.4217100000000  0.4949280000000  0.4302530000000 1.0
END
