TITL C-612607-4507-228 -100355.67782332 125000 -746.246019573073 0 0 122 (C1) n - 1
REM
REM in /home/nfs/bkarasulu/CARBON/AIRSS/Generating-Clusters/TERSOFF/Only-C1/FIRE-HFTN
REM
REM
REM
REM
REM
REM ./C.cell (11c1c37f851c82e70ff6c80c92926a4b)
REM AIRSS Version 0.9.1 bugfix July 2018 build 013d7b7c2542+ Fri, 06 Jul 2018 19:26:36 +0100
REM compiler GCC version 9.2.1 20190827 (Red Hat 9.2.1-1)
REM options -cpp -mtune=generic -march=x86-64 -g -O0 -fpre-include=/usr/include/finclude/math-vector-fortran.h
REM seed 52254168 917474410 113147030 632422107 1237201119 -780879851 -1190284339 1092416990 46387687 -59260108 -1003010631 1865270507 713899314 -93657052 -917621826 -90284292 1885801083 1456594931 -1577433998 -1339456397 760300244 1193558167 1571337622 1045473936 -1754657548 107538144 -1599076412 -521762113 -863370890 -1725153325 -1900389954 -1923276366 -594955479
REM
CELL 1.54180   50.00000   50.00000   50.00000   90.00000   90.00000   90.00000
LATT -1
SFAC C  
C      1  0.4822390000000  0.5281390000000  0.6076800000000 1.0
C      1  0.5670450000000  0.5393890000000  0.4696260000000 1.0
C      1  0.4563300000000  0.5298030000000  0.5111120000000 1.0
C      1  0.4760780000000  0.6157700000000  0.5158390000000 1.0
C      1  0.4482030000000  0.5441090000000  0.4312850000000 1.0
C      1  0.4970960000000  0.5302220000000  0.5457200000000 1.0
C      1  0.4009790000000  0.4370960000000  0.4597530000000 1.0
C      1  0.4448390000000  0.3988660000000  0.5194880000000 1.0
C      1  0.5245960000000  0.4943830000000  0.5863110000000 1.0
C      1  0.5950810000000  0.5356290000000  0.4691330000000 1.0
C      1  0.4955100000000  0.5984510000000  0.5274300000000 1.0
C      1  0.5381730000000  0.5602050000000  0.5565500000000 1.0
C      1  0.5972910000000  0.5204680000000  0.5660410000000 1.0
C      1  0.4760840000000  0.5462510000000  0.4254490000000 1.0
C      1  0.5158480000000  0.5753680000000  0.5677750000000 1.0
C      1  0.4836450000000  0.4991440000000  0.4651690000000 1.0
C      1  0.5686370000000  0.5402860000000  0.5234270000000 1.0
C      1  0.5077050000000  0.5394160000000  0.6020640000000 1.0
C      1  0.4644280000000  0.4781530000000  0.4623380000000 1.0
C      1  0.5710230000000  0.5041920000000  0.4227840000000 1.0
C      1  0.5180830000000  0.4457830000000  0.5524350000000 1.0
C      1  0.4140160000000  0.4574630000000  0.4772560000000 1.0
C      1  0.6084830000000  0.4653070000000  0.4618730000000 1.0
C      1  0.5229680000000  0.4665160000000  0.4401350000000 1.0
C      1  0.4082320000000  0.4783960000000  0.5668980000000 1.0
C      1  0.4517350000000  0.4639800000000  0.5864030000000 1.0
C      1  0.4374060000000  0.4645040000000  0.4031680000000 1.0
C      1  0.4207760000000  0.5260340000000  0.4722280000000 1.0
C      1  0.5119500000000  0.4442910000000  0.4551250000000 1.0
C      1  0.4395010000000  0.4618780000000  0.5416820000000 1.0
C      1  0.4898840000000  0.5039270000000  0.4918190000000 1.0
C      1  0.5486890000000  0.5606530000000  0.5293300000000 1.0
C      1  0.5096930000000  0.5668430000000  0.5945700000000 1.0
C      1  0.6075410000000  0.5341080000000  0.4957330000000 1.0
C      1  0.4551420000000  0.5532300000000  0.5575550000000 1.0
C      1  0.4646060000000  0.4188930000000  0.4514140000000 1.0
C      1  0.5007000000000  0.4970470000000  0.4064370000000 1.0
C      1  0.5387680000000  0.4627220000000  0.3959630000000 1.0
C      1  0.5222640000000  0.4454710000000  0.4840600000000 1.0
C      1  0.5443000000000  0.4807300000000  0.5700330000000 1.0
C      1  0.5755380000000  0.5331120000000  0.5757450000000 1.0
C      1  0.5946890000000  0.5494750000000  0.5156270000000 1.0
C      1  0.4620020000000  0.6160700000000  0.4926430000000 1.0
C      1  0.4781810000000  0.5791910000000  0.4643190000000 1.0
C      1  0.5431880000000  0.4977820000000  0.5078460000000 1.0
C      1  0.5279430000000  0.5228790000000  0.5896000000000 1.0
C      1  0.4513550000000  0.4840470000000  0.5283510000000 1.0
C      1  0.5323130000000  0.4695500000000  0.5465020000000 1.0
C      1  0.4283480000000  0.4785230000000  0.3825800000000 1.0
C      1  0.4894120000000  0.5197600000000  0.4213960000000 1.0
C      1  0.4225480000000  0.4659700000000  0.5886290000000 1.0
C      1  0.4044470000000  0.4833360000000  0.4864990000000 1.0
C      1  0.4611800000000  0.6011860000000  0.4698470000000 1.0
C      1  0.4205210000000  0.4408010000000  0.5028390000000 1.0
C      1  0.5167720000000  0.5790570000000  0.4384460000000 1.0
C      1  0.5189760000000  0.4748480000000  0.4127710000000 1.0
C      1  0.5580000000000  0.5258720000000  0.4142790000000 1.0
C      1  0.4149570000000  0.4947290000000  0.3664220000000 1.0
C      1  0.4145890000000  0.4561970000000  0.5343470000000 1.0
C      1  0.4938760000000  0.5728380000000  0.4870280000000 1.0
C      1  0.4764180000000  0.4728230000000  0.5215380000000 1.0
C      1  0.4609720000000  0.4131440000000  0.4793180000000 1.0
C      1  0.5089170000000  0.4269370000000  0.5334960000000 1.0
C      1  0.4399080000000  0.5064530000000  0.5131010000000 1.0
C      1  0.5368920000000  0.5363350000000  0.4269830000000 1.0
C      1  0.6079460000000  0.5138530000000  0.4555940000000 1.0
C      1  0.5394540000000  0.5330670000000  0.4744690000000 1.0
C      1  0.4827730000000  0.5291730000000  0.5025190000000 1.0
C      1  0.5470990000000  0.5842540000000  0.4814870000000 1.0
C      1  0.4857940000000  0.4117390000000  0.5429910000000 1.0
C      1  0.6227970000000  0.4435090000000  0.4699570000000 1.0
C      1  0.5447060000000  0.4780850000000  0.4558140000000 1.0
C      1  0.4678670000000  0.5781390000000  0.5603230000000 1.0
C      1  0.4402650000000  0.4547500000000  0.4289380000000 1.0
C      1  0.5099920000000  0.4262440000000  0.5031940000000 1.0
C      1  0.5832230000000  0.4475630000000  0.4181780000000 1.0
C      1  0.4351680000000  0.5129790000000  0.5879800000000 1.0
C      1  0.4541470000000  0.4486350000000  0.5622610000000 1.0
C      1  0.6123860000000  0.4911480000000  0.4736320000000 1.0
C      1  0.4728440000000  0.4513270000000  0.5046080000000 1.0
C      1  0.5066770000000  0.5339040000000  0.5185180000000 1.0
C      1  0.5686840000000  0.4841940000000  0.4423750000000 1.0
C      1  0.5092940000000  0.5825580000000  0.5085720000000 1.0
C      1  0.5697060000000  0.4711680000000  0.5769200000000 1.0
C      1  0.4980420000000  0.4876180000000  0.5139250000000 1.0
C      1  0.5292200000000  0.5243270000000  0.4999550000000 1.0
C      1  0.5937640000000  0.4980340000000  0.5232740000000 1.0
C      1  0.5626610000000  0.4502980000000  0.4003340000000 1.0
C      1  0.4912360000000  0.4274890000000  0.4452280000000 1.0
C      1  0.4150810000000  0.4191570000000  0.4444650000000 1.0
C      1  0.4393770000000  0.4707890000000  0.4519580000000 1.0
C      1  0.4729820000000  0.4837640000000  0.5897660000000 1.0
C      1  0.4715100000000  0.4563630000000  0.4786600000000 1.0
C      1  0.4140040000000  0.5068500000000  0.5686900000000 1.0
C      1  0.4938310000000  0.5873960000000  0.5534470000000 1.0
C      1  0.3995870000000  0.5113520000000  0.3534910000000 1.0
C      1  0.5410670000000  0.4721100000000  0.4836170000000 1.0
C      1  0.4682270000000  0.4246840000000  0.5606860000000 1.0
C      1  0.4413870000000  0.4267980000000  0.4361820000000 1.0
C      1  0.4728390000000  0.5301760000000  0.5615130000000 1.0
C      1  0.5241670000000  0.5285500000000  0.4512980000000 1.0
C      1  0.4856910000000  0.4079160000000  0.4961800000000 1.0
C      1  0.5366590000000  0.5853710000000  0.4561850000000 1.0
C      1  0.5885270000000  0.4635780000000  0.4412200000000 1.0
C      1  0.4096460000000  0.5294780000000  0.5524260000000 1.0
C      1  0.4370690000000  0.4169910000000  0.4981000000000 1.0
C      1  0.4656630000000  0.5133950000000  0.5871080000000 1.0
C      1  0.5063550000000  0.4500160000000  0.5785990000000 1.0
C      1  0.4735340000000  0.3975350000000  0.5216360000000 1.0
C      1  0.4300810000000  0.5372550000000  0.4498010000000 1.0
C      1  0.6104150000000  0.5042160000000  0.5004680000000 1.0
C      1  0.4995620000000  0.5147730000000  0.4480280000000 1.0
C      1  0.4895410000000  0.5691730000000  0.4393550000000 1.0
C      1  0.5940510000000  0.4735150000000  0.5655710000000 1.0
C      1  0.5234540000000  0.4859140000000  0.5258110000000 1.0
C      1  0.5373910000000  0.5774190000000  0.5077890000000 1.0
C      1  0.4195820000000  0.5061820000000  0.4925250000000 1.0
C      1  0.5675250000000  0.5101560000000  0.5203810000000 1.0
C      1  0.5008920000000  0.4766720000000  0.5889510000000 1.0
C      1  0.4279600000000  0.5494850000000  0.5506090000000 1.0
C      1  0.5477860000000  0.5383790000000  0.5742740000000 1.0
C      1  0.6013080000000  0.4965070000000  0.5509220000000 1.0
END
