TITL C-612600-6631-662 -6.94534674380122 125000 -886.396666125434 0 0 146 (C1) n - 1
REM
REM in /home/nfs/bkarasulu/CARBON/AIRSS/Generating-Clusters/TERSOFF/Only-C1/FIRE-HFTN
REM
REM
REM
REM
REM
REM ./C.cell (11c1c37f851c82e70ff6c80c92926a4b)
REM AIRSS Version 0.9.1 bugfix July 2018 build 013d7b7c2542+ Fri, 06 Jul 2018 19:26:36 +0100
REM compiler GCC version 9.2.1 20190827 (Red Hat 9.2.1-1)
REM options -cpp -mtune=generic -march=x86-64 -g -O0 -fpre-include=/usr/include/finclude/math-vector-fortran.h
REM seed 833724976 -1061361851 1424117116 -168961760 -2116820639 -1036776831 398469481 2006666668 1999807511 -332217395 -888000303 1100551186 -2023361696 -1680673674 2114218616 -1221425239 -294262809 1169380647 578143914 -1835609563 -2032276923 1210978778 2012147768 -176265233 1995112233 1875310799 -800044992 1563053540 -1029549417 -1769528611 -918998673 -1151242638 -1739860038
REM
CELL 1.54180   50.00000   50.00000   50.00000   90.00000   90.00000   90.00000
LATT -1
SFAC C  
C      1  0.4060320000000  0.4651040000000  0.5406000000000 1.0
C      1  0.4196110000000  0.4883480000000  0.5529800000000 1.0
C      1  0.4741290000000  0.5292320000000  0.4502650000000 1.0
C      1  0.6153890000000  0.4783710000000  0.4710790000000 1.0
C      1  0.4234130000000  0.5387360000000  0.5754860000000 1.0
C      1  0.4605070000000  0.4519020000000  0.4262630000000 1.0
C      1  0.4130100000000  0.5649100000000  0.5707410000000 1.0
C      1  0.4262820000000  0.5284340000000  0.4502750000000 1.0
C      1  0.5109230000000  0.5628510000000  0.4641810000000 1.0
C      1  0.5108670000000  0.5863270000000  0.4456280000000 1.0
C      1  0.5512060000000  0.4793400000000  0.5339960000000 1.0
C      1  0.4426320000000  0.4893110000000  0.4839940000000 1.0
C      1  0.4414670000000  0.4752510000000  0.4328200000000 1.0
C      1  0.5425980000000  0.3990820000000  0.5000290000000 1.0
C      1  0.4883140000000  0.5695180000000  0.6025750000000 1.0
C      1  0.4133870000000  0.5331800000000  0.5289120000000 1.0
C      1  0.4702060000000  0.4517730000000  0.5920670000000 1.0
C      1  0.4159190000000  0.5188640000000  0.5539700000000 1.0
C      1  0.4918110000000  0.4360020000000  0.5068490000000 1.0
C      1  0.5911750000000  0.4999570000000  0.5229190000000 1.0
C      1  0.5963780000000  0.5066560000000  0.5503550000000 1.0
C      1  0.6069140000000  0.5359700000000  0.4904820000000 1.0
C      1  0.4268580000000  0.4407120000000  0.4859190000000 1.0
C      1  0.5282530000000  0.5303400000000  0.4984400000000 1.0
C      1  0.5155910000000  0.4320960000000  0.5843270000000 1.0
C      1  0.5216900000000  0.5436100000000  0.5511180000000 1.0
C      1  0.5066240000000  0.5424220000000  0.3970870000000 1.0
C      1  0.5386710000000  0.5014590000000  0.4031360000000 1.0
C      1  0.5555520000000  0.4305000000000  0.4288030000000 1.0
C      1  0.5047250000000  0.4759800000000  0.5272530000000 1.0
C      1  0.5254220000000  0.4264020000000  0.5380890000000 1.0
C      1  0.4936740000000  0.3943050000000  0.4674460000000 1.0
C      1  0.3976370000000  0.5176370000000  0.4872560000000 1.0
C      1  0.5004870000000  0.4454710000000  0.3668810000000 1.0
C      1  0.4878790000000  0.4219630000000  0.4605670000000 1.0
C      1  0.5209480000000  0.5760590000000  0.4880050000000 1.0
C      1  0.5662520000000  0.5132270000000  0.4814930000000 1.0
C      1  0.5921260000000  0.4852050000000  0.5687590000000 1.0
C      1  0.4311090000000  0.5571530000000  0.4856350000000 1.0
C      1  0.5487010000000  0.4731410000000  0.3970450000000 1.0
C      1  0.3893600000000  0.4948770000000  0.5026790000000 1.0
C      1  0.4145300000000  0.5864540000000  0.5549300000000 1.0
C      1  0.4224060000000  0.5990680000000  0.5327350000000 1.0
C      1  0.4706000000000  0.5889200000000  0.4763960000000 1.0
C      1  0.5518480000000  0.4033460000000  0.4749370000000 1.0
C      1  0.4950430000000  0.4545660000000  0.3906950000000 1.0
C      1  0.4702760000000  0.5723280000000  0.4233020000000 1.0
C      1  0.5965060000000  0.5336210000000  0.5578790000000 1.0
C      1  0.5371580000000  0.5810910000000  0.4347980000000 1.0
C      1  0.4624030000000  0.5612710000000  0.6012580000000 1.0
C      1  0.4434000000000  0.5833120000000  0.4874410000000 1.0
C      1  0.4487160000000  0.5073980000000  0.4161460000000 1.0
C      1  0.5214420000000  0.5214240000000  0.3885010000000 1.0
C      1  0.4989440000000  0.3862860000000  0.5202870000000 1.0
C      1  0.4614300000000  0.5055650000000  0.5611030000000 1.0
C      1  0.3953380000000  0.4690590000000  0.5134700000000 1.0
C      1  0.4868590000000  0.3825080000000  0.4927790000000 1.0
C      1  0.4933530000000  0.5193870000000  0.5895020000000 1.0
C      1  0.6171090000000  0.5014380000000  0.4550030000000 1.0
C      1  0.4583820000000  0.3833960000000  0.4953910000000 1.0
C      1  0.4537350000000  0.4827460000000  0.4593140000000 1.0
C      1  0.4832280000000  0.4821550000000  0.4595170000000 1.0
C      1  0.5367740000000  0.4938980000000  0.4502690000000 1.0
C      1  0.4554950000000  0.4768050000000  0.5059080000000 1.0
C      1  0.5886250000000  0.5234820000000  0.4228110000000 1.0
C      1  0.4470140000000  0.4822430000000  0.5595710000000 1.0
C      1  0.5570420000000  0.5855210000000  0.5228560000000 1.0
C      1  0.4329940000000  0.5994860000000  0.5081680000000 1.0
C      1  0.5293780000000  0.4489860000000  0.4780930000000 1.0
C      1  0.4933040000000  0.5857770000000  0.4991240000000 1.0
C      1  0.5780900000000  0.5747910000000  0.4808660000000 1.0
C      1  0.5026630000000  0.4378670000000  0.4800810000000 1.0
C      1  0.5318780000000  0.5556350000000  0.5775510000000 1.0
C      1  0.5080610000000  0.5155570000000  0.4858060000000 1.0
C      1  0.5354290000000  0.4312670000000  0.5643240000000 1.0
C      1  0.6031620000000  0.4566010000000  0.4848470000000 1.0
C      1  0.3956910000000  0.4919560000000  0.4444470000000 1.0
C      1  0.5515960000000  0.5589620000000  0.4492730000000 1.0
C      1  0.5271930000000  0.4939920000000  0.5322460000000 1.0
C      1  0.4742930000000  0.5111460000000  0.4264590000000 1.0
C      1  0.4031370000000  0.5146560000000  0.4595590000000 1.0
C      1  0.5756630000000  0.4760860000000  0.5208270000000 1.0
C      1  0.5549210000000  0.4896180000000  0.4702460000000 1.0
C      1  0.4941270000000  0.5545240000000  0.4191540000000 1.0
C      1  0.5961970000000  0.5437300000000  0.4434170000000 1.0
C      1  0.4512170000000  0.4489300000000  0.6117740000000 1.0
C      1  0.5884530000000  0.5166310000000  0.5001510000000 1.0
C      1  0.5140680000000  0.4886900000000  0.6243730000000 1.0
C      1  0.4465070000000  0.4502180000000  0.5040790000000 1.0
C      1  0.4475130000000  0.5385160000000  0.5920940000000 1.0
C      1  0.4803710000000  0.5905950000000  0.4462260000000 1.0
C      1  0.4594720000000  0.4375560000000  0.5470660000000 1.0
C      1  0.5145400000000  0.5665650000000  0.5959920000000 1.0
C      1  0.5213750000000  0.4951590000000  0.4276350000000 1.0
C      1  0.5554610000000  0.4142070000000  0.4503900000000 1.0
C      1  0.4134680000000  0.4371640000000  0.5501720000000 1.0
C      1  0.4978200000000  0.5443920000000  0.4472380000000 1.0
C      1  0.5870170000000  0.5584170000000  0.5552340000000 1.0
C      1  0.4942940000000  0.4918920000000  0.4835990000000 1.0
C      1  0.5538390000000  0.4497870000000  0.4099490000000 1.0
C      1  0.6136190000000  0.5296950000000  0.4632920000000 1.0
C      1  0.4372790000000  0.4188200000000  0.5533210000000 1.0
C      1  0.5542390000000  0.4633840000000  0.4811090000000 1.0
C      1  0.4612030000000  0.4583580000000  0.5656640000000 1.0
C      1  0.4499890000000  0.4028770000000  0.5134510000000 1.0
C      1  0.4456320000000  0.5582710000000  0.4172410000000 1.0
C      1  0.4626850000000  0.4315210000000  0.4476510000000 1.0
C      1  0.5089170000000  0.4471410000000  0.5270210000000 1.0
C      1  0.5178630000000  0.6119880000000  0.5644930000000 1.0
C      1  0.5787530000000  0.5643550000000  0.4532850000000 1.0
C      1  0.5242950000000  0.4015390000000  0.5221040000000 1.0
C      1  0.5066800000000  0.5681950000000  0.5405140000000 1.0
C      1  0.4640550000000  0.4307110000000  0.5166170000000 1.0
C      1  0.6064440000000  0.5011680000000  0.4281380000000 1.0
C      1  0.5999220000000  0.5632240000000  0.4957080000000 1.0
C      1  0.5082970000000  0.4629740000000  0.6200620000000 1.0
C      1  0.4836310000000  0.4827600000000  0.5085160000000 1.0
C      1  0.4782770000000  0.3841990000000  0.5430310000000 1.0
C      1  0.4928870000000  0.4878940000000  0.4305300000000 1.0
C      1  0.4382100000000  0.4286260000000  0.4628540000000 1.0
C      1  0.6157950000000  0.4323500000000  0.4862080000000 1.0
C      1  0.4999140000000  0.5264740000000  0.5623570000000 1.0
C      1  0.4631740000000  0.5273100000000  0.4963950000000 1.0
C      1  0.4778250000000  0.5211150000000  0.5439870000000 1.0
C      1  0.4124050000000  0.4742850000000  0.4324610000000 1.0
C      1  0.4745790000000  0.5367550000000  0.5202940000000 1.0
C      1  0.5512850000000  0.5806610000000  0.4950530000000 1.0
C      1  0.5086840000000  0.5111230000000  0.6109760000000 1.0
C      1  0.4874860000000  0.5620560000000  0.5192130000000 1.0
C      1  0.5641980000000  0.5177890000000  0.4100610000000 1.0
C      1  0.5301550000000  0.5240080000000  0.5272450000000 1.0
C      1  0.5721240000000  0.5770780000000  0.5432960000000 1.0
C      1  0.5775000000000  0.4601100000000  0.4973930000000 1.0
C      1  0.4489610000000  0.5360090000000  0.4704140000000 1.0
C      1  0.4496810000000  0.3943900000000  0.5416840000000 1.0
C      1  0.4985950000000  0.6078900000000  0.5190750000000 1.0
C      1  0.4009790000000  0.4485440000000  0.4941020000000 1.0
C      1  0.5790500000000  0.4621570000000  0.5740260000000 1.0
C      1  0.5607440000000  0.4427630000000  0.5700770000000 1.0
C      1  0.5482160000000  0.5359530000000  0.4779020000000 1.0
C      1  0.4644070000000  0.5162810000000  0.5878310000000 1.0
C      1  0.5087660000000  0.5969720000000  0.5438480000000 1.0
C      1  0.4343370000000  0.5317520000000  0.4227540000000 1.0
C      1  0.4116460000000  0.5393090000000  0.5011950000000 1.0
C      1  0.4975950000000  0.4476020000000  0.5990740000000 1.0
C      1  0.4844420000000  0.4632420000000  0.4148190000000 1.0
END
