TITL C-612607-4507-1108 0.000441454537364249 125000 -354.209025794017 0 0 61 (C1) n - 1
REM
REM in /home/nfs/bkarasulu/CARBON/AIRSS/Generating-Clusters/TERSOFF/Only-C1/FIRE-HFTN
REM
REM
REM
REM
REM
REM ./C.cell (11c1c37f851c82e70ff6c80c92926a4b)
REM AIRSS Version 0.9.1 bugfix July 2018 build 013d7b7c2542+ Fri, 06 Jul 2018 19:26:36 +0100
REM compiler GCC version 9.2.1 20190827 (Red Hat 9.2.1-1)
REM options -cpp -mtune=generic -march=x86-64 -g -O0 -fpre-include=/usr/include/finclude/math-vector-fortran.h
REM seed -1168637434 149364437 2057242541 -568086292 279492959 2069658911 -147854630 1638586663 342295227 -70053340 -2125990137 -1413655396 392729102 -1688860101 828129489 -384696912 -2060169139 588959198 302533297 -748198872 -47871791 -1783355934 -132973920 837810282 1250704315 337444599 -886581366 -2051207022 -937857612 -753396396 846793119 1101303745 -697522652
REM
CELL 1.54180   50.00000   50.00000   50.00000   90.00000   90.00000   90.00000
LATT -1
SFAC C  
C      1  0.5264270000000  0.5557080000000  0.5432080000000 1.0
C      1  0.5079390000000  0.4775700000000  0.5639350000000 1.0
C      1  0.4555430000000  0.3958980000000  0.4955960000000 1.0
C      1  0.5534180000000  0.6216400000000  0.5345970000000 1.0
C      1  0.4331370000000  0.5063070000000  0.4598530000000 1.0
C      1  0.4628490000000  0.5506500000000  0.4809010000000 1.0
C      1  0.4773190000000  0.4053340000000  0.4108680000000 1.0
C      1  0.5490800000000  0.5540790000000  0.4770230000000 1.0
C      1  0.5216480000000  0.5386050000000  0.4393930000000 1.0
C      1  0.5515200000000  0.5166830000000  0.5587850000000 1.0
C      1  0.4255290000000  0.4831610000000  0.5405450000000 1.0
C      1  0.4719790000000  0.4822000000000  0.5323000000000 1.0
C      1  0.5119260000000  0.4978990000000  0.5172070000000 1.0
C      1  0.5058010000000  0.5717940000000  0.4788720000000 1.0
C      1  0.4526580000000  0.5320650000000  0.4991610000000 1.0
C      1  0.5300500000000  0.5679000000000  0.4933840000000 1.0
C      1  0.4391810000000  0.4572970000000  0.5472040000000 1.0
C      1  0.5429430000000  0.4438960000000  0.5373530000000 1.0
C      1  0.4856520000000  0.4364630000000  0.4769190000000 1.0
C      1  0.4953300000000  0.4521720000000  0.5565290000000 1.0
C      1  0.4962230000000  0.4556290000000  0.4947110000000 1.0
C      1  0.4085130000000  0.4956880000000  0.4520450000000 1.0
C      1  0.5322100000000  0.4668750000000  0.4536560000000 1.0
C      1  0.5676200000000  0.5171280000000  0.4526990000000 1.0
C      1  0.5042180000000  0.5240280000000  0.5782450000000 1.0
C      1  0.4868710000000  0.5064980000000  0.4680060000000 1.0
C      1  0.4357750000000  0.5101110000000  0.4899200000000 1.0
C      1  0.5216760000000  0.4888970000000  0.5416040000000 1.0
C      1  0.5436300000000  0.5982790000000  0.5284630000000 1.0
C      1  0.4662910000000  0.5086920000000  0.5382030000000 1.0
C      1  0.5066220000000  0.4959650000000  0.5851230000000 1.0
C      1  0.4903030000000  0.4890530000000  0.4452210000000 1.0
C      1  0.5503370000000  0.4914850000000  0.5445010000000 1.0
C      1  0.5053390000000  0.4647440000000  0.4433940000000 1.0
C      1  0.5002340000000  0.5232180000000  0.5128500000000 1.0
C      1  0.5277990000000  0.5344360000000  0.5624360000000 1.0
C      1  0.4517760000000  0.5117950000000  0.4365860000000 1.0
C      1  0.4914490000000  0.4404880000000  0.4491270000000 1.0
C      1  0.4683400000000  0.4572650000000  0.5459400000000 1.0
C      1  0.4702800000000  0.4151230000000  0.4859890000000 1.0
C      1  0.5475950000000  0.5369880000000  0.4534280000000 1.0
C      1  0.5037770000000  0.5246910000000  0.4197540000000 1.0
C      1  0.5748150000000  0.4715120000000  0.4767740000000 1.0
C      1  0.4248960000000  0.4931810000000  0.5120860000000 1.0
C      1  0.4758100000000  0.5309880000000  0.5777230000000 1.0
C      1  0.5803770000000  0.4972870000000  0.4658500000000 1.0
C      1  0.5287600000000  0.4848940000000  0.4758150000000 1.0
C      1  0.5731200000000  0.4677660000000  0.5052710000000 1.0
C      1  0.4294750000000  0.5036900000000  0.5618290000000 1.0
C      1  0.5176760000000  0.4366700000000  0.5459110000000 1.0
C      1  0.4781880000000  0.5744540000000  0.4874530000000 1.0
C      1  0.5034220000000  0.5518100000000  0.4571840000000 1.0
C      1  0.4552980000000  0.5171400000000  0.5629180000000 1.0
C      1  0.5330560000000  0.5731910000000  0.5215350000000 1.0
C      1  0.5581460000000  0.4560460000000  0.4585870000000 1.0
C      1  0.4819270000000  0.5348440000000  0.4653110000000 1.0
C      1  0.5597440000000  0.4670620000000  0.5306970000000 1.0
C      1  0.4842900000000  0.4224200000000  0.4292700000000 1.0
C      1  0.4727200000000  0.5264730000000  0.5184170000000 1.0
C      1  0.4796440000000  0.5072470000000  0.4248760000000 1.0
C      1  0.5118270000000  0.4789290000000  0.4969600000000 1.0
END
