TITL C-612602-9376-1296 56.2228777810362 125000 -922.53484947763 0 0 151 (C1) n - 1
REM
REM in /home/nfs/bkarasulu/CARBON/AIRSS/Generating-Clusters/TERSOFF/Only-C1/FIRE-HFTN
REM
REM
REM
REM
REM
REM ./C.cell (11c1c37f851c82e70ff6c80c92926a4b)
REM AIRSS Version 0.9.1 bugfix July 2018 build 013d7b7c2542+ Fri, 06 Jul 2018 19:26:36 +0100
REM compiler GCC version 9.2.1 20190827 (Red Hat 9.2.1-1)
REM options -cpp -mtune=generic -march=x86-64 -g -O0 -fpre-include=/usr/include/finclude/math-vector-fortran.h
REM seed 164460456 -1299313563 -1002272280 1286909527 648841601 -1963926968 -816811280 -1369402283 1265211533 -1291217816 1230824654 -1474144207 -783008492 519581312 -656091038 1736412399 -244918351 1414906261 419034841 -1396851701 1879719286 -1817455036 -1351118852 -486281581 420017238 463969622 -1405057807 55924680 672769841 -1392961208 550405384 1965321916 1718178158
REM
CELL 1.54180   50.00000   50.00000   50.00000   90.00000   90.00000   90.00000
LATT -1
SFAC C  
C      1  0.5653600000000  0.4883490000000  0.5036840000000 1.0
C      1  0.5472370000000  0.4472720000000  0.5089590000000 1.0
C      1  0.5362750000000  0.3815090000000  0.5313080000000 1.0
C      1  0.5055220000000  0.4989300000000  0.5080790000000 1.0
C      1  0.5334780000000  0.5460220000000  0.5952400000000 1.0
C      1  0.5100320000000  0.4721070000000  0.4688350000000 1.0
C      1  0.6323520000000  0.5116640000000  0.5195050000000 1.0
C      1  0.4533230000000  0.5249290000000  0.4541680000000 1.0
C      1  0.4579890000000  0.5335710000000  0.6063290000000 1.0
C      1  0.5299880000000  0.4357070000000  0.4935550000000 1.0
C      1  0.4946930000000  0.4212020000000  0.4099890000000 1.0
C      1  0.5145600000000  0.5862830000000  0.4757860000000 1.0
C      1  0.6028120000000  0.4972320000000  0.5600390000000 1.0
C      1  0.4405170000000  0.5794440000000  0.5819010000000 1.0
C      1  0.4335090000000  0.5728030000000  0.4803280000000 1.0
C      1  0.4924880000000  0.4544440000000  0.4556220000000 1.0
C      1  0.5186870000000  0.4941320000000  0.5539050000000 1.0
C      1  0.5839870000000  0.4716440000000  0.4883210000000 1.0
C      1  0.5983710000000  0.4485540000000  0.5410590000000 1.0
C      1  0.4919270000000  0.5405330000000  0.4777550000000 1.0
C      1  0.4759440000000  0.5142330000000  0.3842100000000 1.0
C      1  0.5273250000000  0.5172960000000  0.4044000000000 1.0
C      1  0.5264620000000  0.5185190000000  0.5090060000000 1.0
C      1  0.4623980000000  0.5832780000000  0.5182490000000 1.0
C      1  0.5048190000000  0.5436040000000  0.5969090000000 1.0
C      1  0.5649700000000  0.4013350000000  0.4988050000000 1.0
C      1  0.5372820000000  0.4497040000000  0.4103370000000 1.0
C      1  0.5762800000000  0.5787520000000  0.5440990000000 1.0
C      1  0.5490400000000  0.5080960000000  0.6251180000000 1.0
C      1  0.5212780000000  0.4948680000000  0.4580480000000 1.0
C      1  0.5732870000000  0.4201250000000  0.4770850000000 1.0
C      1  0.5023830000000  0.5095160000000  0.4436090000000 1.0
C      1  0.4829400000000  0.4932490000000  0.4030070000000 1.0
C      1  0.5757540000000  0.6207450000000  0.3517840000000 1.0
C      1  0.5882370000000  0.5206250000000  0.4425160000000 1.0
C      1  0.4586320000000  0.4960520000000  0.5143560000000 1.0
C      1  0.4660760000000  0.4781280000000  0.4200480000000 1.0
C      1  0.3675500000000  0.5674350000000  0.5807760000000 1.0
C      1  0.4627470000000  0.4122040000000  0.5503930000000 1.0
C      1  0.4668420000000  0.4710920000000  0.4988020000000 1.0
C      1  0.4691300000000  0.4679860000000  0.4471870000000 1.0
C      1  0.5443050000000  0.4829690000000  0.6171210000000 1.0
C      1  0.5422710000000  0.4670520000000  0.5940300000000 1.0
C      1  0.4760900000000  0.5912770000000  0.5421580000000 1.0
C      1  0.5659160000000  0.4675970000000  0.5756140000000 1.0
C      1  0.3870470000000  0.5750420000000  0.5375680000000 1.0
C      1  0.4862030000000  0.5318540000000  0.6166300000000 1.0
C      1  0.5316500000000  0.5609610000000  0.3800360000000 1.0
C      1  0.4829650000000  0.5243750000000  0.4571100000000 1.0
C      1  0.3358140000000  0.5276890000000  0.5738030000000 1.0
C      1  0.4404140000000  0.5131860000000  0.5015940000000 1.0
C      1  0.4759800000000  0.4610670000000  0.5502090000000 1.0
C      1  0.5658250000000  0.4160760000000  0.5491680000000 1.0
C      1  0.6360370000000  0.5193880000000  0.4943960000000 1.0
C      1  0.5499720000000  0.5102280000000  0.4927160000000 1.0
C      1  0.5891560000000  0.4430290000000  0.4895150000000 1.0
C      1  0.4896310000000  0.4617700000000  0.5749770000000 1.0
C      1  0.5504490000000  0.5697000000000  0.5478010000000 1.0
C      1  0.5599490000000  0.4165960000000  0.4523190000000 1.0
C      1  0.4185610000000  0.5575520000000  0.5002740000000 1.0
C      1  0.6216740000000  0.5039650000000  0.5425620000000 1.0
C      1  0.5756860000000  0.4951490000000  0.5678720000000 1.0
C      1  0.4367120000000  0.5058600000000  0.4721130000000 1.0
C      1  0.5610650000000  0.5202310000000  0.5646890000000 1.0
C      1  0.4034340000000  0.5342620000000  0.4422450000000 1.0
C      1  0.4918260000000  0.4157050000000  0.5426410000000 1.0
C      1  0.4440240000000  0.5167880000000  0.4258260000000 1.0
C      1  0.4888380000000  0.5461900000000  0.5044770000000 1.0
C      1  0.4422190000000  0.5436350000000  0.4137380000000 1.0
C      1  0.4884020000000  0.5056240000000  0.6286430000000 1.0
C      1  0.5491060000000  0.4740720000000  0.4099310000000 1.0
C      1  0.6357360000000  0.5276130000000  0.4676570000000 1.0
C      1  0.4917900000000  0.5020820000000  0.5516340000000 1.0
C      1  0.4233740000000  0.4641630000000  0.4250080000000 1.0
C      1  0.5463460000000  0.5808360000000  0.3705270000000 1.0
C      1  0.4449210000000  0.5549160000000  0.4610860000000 1.0
C      1  0.4770750000000  0.5175510000000  0.5688010000000 1.0
C      1  0.4295890000000  0.4382870000000  0.4326770000000 1.0
C      1  0.4638820000000  0.5542800000000  0.5148220000000 1.0
C      1  0.5263080000000  0.5877230000000  0.5011160000000 1.0
C      1  0.5401120000000  0.4026720000000  0.5501380000000 1.0
C      1  0.5157950000000  0.3940760000000  0.4564470000000 1.0
C      1  0.5171600000000  0.4572190000000  0.5824050000000 1.0
C      1  0.4530980000000  0.4776220000000  0.4706410000000 1.0
C      1  0.3497150000000  0.4902650000000  0.5099570000000 1.0
C      1  0.5002910000000  0.5811940000000  0.4522680000000 1.0
C      1  0.5502920000000  0.5025480000000  0.4149490000000 1.0
C      1  0.5476910000000  0.5462670000000  0.5688640000000 1.0
C      1  0.4076580000000  0.5125950000000  0.4617070000000 1.0
C      1  0.4885350000000  0.4291590000000  0.5169500000000 1.0
C      1  0.4700180000000  0.5557510000000  0.4104310000000 1.0
C      1  0.5394120000000  0.3872700000000  0.5032470000000 1.0
C      1  0.5502590000000  0.4716950000000  0.5214240000000 1.0
C      1  0.5967200000000  0.4336610000000  0.5164690000000 1.0
C      1  0.5231720000000  0.4259090000000  0.4180900000000 1.0
C      1  0.5130680000000  0.3919460000000  0.4876960000000 1.0
C      1  0.4466230000000  0.5584650000000  0.5998470000000 1.0
C      1  0.4898190000000  0.4060580000000  0.4508950000000 1.0
C      1  0.6589420000000  0.5379250000000  0.4560100000000 1.0
C      1  0.5263520000000  0.4471590000000  0.5566220000000 1.0
C      1  0.5029840000000  0.5809790000000  0.5438800000000 1.0
C      1  0.5762270000000  0.4433370000000  0.5602690000000 1.0
C      1  0.4390220000000  0.5399740000000  0.5105240000000 1.0
C      1  0.5793320000000  0.4106510000000  0.5230900000000 1.0
C      1  0.4732630000000  0.4835890000000  0.6216220000000 1.0
C      1  0.4133380000000  0.5844130000000  0.5768420000000 1.0
C      1  0.3859660000000  0.4990840000000  0.4730290000000 1.0
C      1  0.4489940000000  0.5929080000000  0.4946170000000 1.0
C      1  0.4846410000000  0.3798320000000  0.4939870000000 1.0
C      1  0.6049270000000  0.6603380000000  0.3331930000000 1.0
C      1  0.4460860000000  0.4048510000000  0.4704830000000 1.0
C      1  0.3963460000000  0.5658750000000  0.5144330000000 1.0
C      1  0.4602050000000  0.5920020000000  0.5657570000000 1.0
C      1  0.4153310000000  0.5503640000000  0.4227140000000 1.0
C      1  0.4973110000000  0.4779210000000  0.4926320000000 1.0
C      1  0.4470910000000  0.4168570000000  0.4418180000000 1.0
C      1  0.5904610000000  0.6407060000000  0.3424110000000 1.0
C      1  0.6122900000000  0.5255500000000  0.4525390000000 1.0
C      1  0.5048070000000  0.5044760000000  0.4166440000000 1.0
C      1  0.5620760000000  0.5112730000000  0.4403660000000 1.0
C      1  0.5472650000000  0.5335620000000  0.6167190000000 1.0
C      1  0.4505760000000  0.4006540000000  0.5246620000000 1.0
C      1  0.6805950000000  0.5475440000000  0.4451530000000 1.0
C      1  0.5350440000000  0.4095260000000  0.4402970000000 1.0
C      1  0.3887810000000  0.5772810000000  0.5654620000000 1.0
C      1  0.4477270000000  0.4550040000000  0.5862350000000 1.0
C      1  0.4387510000000  0.4884570000000  0.4200290000000 1.0
C      1  0.5332080000000  0.4723560000000  0.5434050000000 1.0
C      1  0.4724060000000  0.4522180000000  0.5221530000000 1.0
C      1  0.4555690000000  0.4818360000000  0.5982400000000 1.0
C      1  0.5289540000000  0.5842200000000  0.5307310000000 1.0
C      1  0.4581350000000  0.3937310000000  0.4963330000000 1.0
C      1  0.4736150000000  0.4118370000000  0.4282620000000 1.0
C      1  0.4834580000000  0.5033880000000  0.5256950000000 1.0
C      1  0.4566540000000  0.5101240000000  0.5876690000000 1.0
C      1  0.3374900000000  0.4959030000000  0.5328410000000 1.0
C      1  0.3484780000000  0.5490540000000  0.5833120000000 1.0
C      1  0.5182290000000  0.4202360000000  0.5526500000000 1.0
C      1  0.4906710000000  0.4291700000000  0.4676390000000 1.0
C      1  0.5610490000000  0.6007900000000  0.3611540000000 1.0
C      1  0.4926650000000  0.5415120000000  0.5711820000000 1.0
C      1  0.5045040000000  0.4230170000000  0.4932370000000 1.0
C      1  0.4846480000000  0.5719740000000  0.4310170000000 1.0
C      1  0.3665500000000  0.4916190000000  0.4894840000000 1.0
C      1  0.5035010000000  0.5522120000000  0.5476520000000 1.0
C      1  0.5113710000000  0.5404470000000  0.5217740000000 1.0
C      1  0.5163060000000  0.5406960000000  0.3911810000000 1.0
C      1  0.4867250000000  0.5406860000000  0.3910300000000 1.0
C      1  0.5458940000000  0.5073530000000  0.4639780000000 1.0
C      1  0.4508070000000  0.4308510000000  0.5712470000000 1.0
C      1  0.3322200000000  0.5087990000000  0.5554560000000 1.0
END
