TITL C-612604-1799-584 0.0110636977347337 125000 -924.877490098417 0 0 150 (C1) n - 1
REM
REM in /home/nfs/bkarasulu/CARBON/AIRSS/Generating-Clusters/TERSOFF/Only-C1/FIRE-HFTN
REM
REM
REM
REM
REM
REM ./C.cell (11c1c37f851c82e70ff6c80c92926a4b)
REM AIRSS Version 0.9.1 bugfix July 2018 build 013d7b7c2542+ Fri, 06 Jul 2018 19:26:36 +0100
REM compiler GCC version 9.2.1 20190827 (Red Hat 9.2.1-1)
REM options -cpp -mtune=generic -march=x86-64 -g -O0 -fpre-include=/usr/include/finclude/math-vector-fortran.h
REM seed -356102216 647169138 1551227414 1411597132 856911081 -329870838 -1790259771 1479162320 1548502516 661035355 -372453242 545206738 -1776175946 152167927 2027748730 -882905794 745249588 1468077726 -2137006829 322017898 -376623238 -409659927 955158375 574048291 -1849406318 153877649 883528997 1978018598 -1196317796 -957155676 -341319312 1323076124 1317469332
REM
CELL 1.54180   50.00000   50.00000   50.00000   90.00000   90.00000   90.00000
LATT -1
SFAC C  
C      1  0.6241460000000  0.4390450000000  0.5046640000000 1.0
C      1  0.5535970000000  0.5917980000000  0.4555500000000 1.0
C      1  0.4054180000000  0.5005730000000  0.5153550000000 1.0
C      1  0.4974140000000  0.4795820000000  0.5109060000000 1.0
C      1  0.5753940000000  0.5508870000000  0.4411240000000 1.0
C      1  0.5547210000000  0.5068070000000  0.4486750000000 1.0
C      1  0.4722990000000  0.5114070000000  0.5479220000000 1.0
C      1  0.5919390000000  0.4835750000000  0.6083790000000 1.0
C      1  0.3975840000000  0.5038540000000  0.3667600000000 1.0
C      1  0.4101220000000  0.4945140000000  0.4188040000000 1.0
C      1  0.4549990000000  0.5273310000000  0.5643220000000 1.0
C      1  0.5486800000000  0.4005810000000  0.4794420000000 1.0
C      1  0.3971900000000  0.5017420000000  0.4678580000000 1.0
C      1  0.4637040000000  0.5459310000000  0.4970290000000 1.0
C      1  0.3994670000000  0.5171520000000  0.4928570000000 1.0
C      1  0.5080420000000  0.5196810000000  0.6070880000000 1.0
C      1  0.4192940000000  0.4891970000000  0.5347770000000 1.0
C      1  0.4032350000000  0.4988380000000  0.3921520000000 1.0
C      1  0.4686710000000  0.5176080000000  0.4984330000000 1.0
C      1  0.5123130000000  0.4244250000000  0.4311360000000 1.0
C      1  0.4398590000000  0.4487000000000  0.4658310000000 1.0
C      1  0.4488600000000  0.4687900000000  0.4858800000000 1.0
C      1  0.4244620000000  0.5776260000000  0.5518680000000 1.0
C      1  0.5228340000000  0.4970590000000  0.3867880000000 1.0
C      1  0.4978880000000  0.5199590000000  0.5343510000000 1.0
C      1  0.6020920000000  0.4368830000000  0.5221260000000 1.0
C      1  0.6535710000000  0.4538740000000  0.5851500000000 1.0
C      1  0.5556720000000  0.5023730000000  0.4209680000000 1.0
C      1  0.4871720000000  0.5176690000000  0.4086720000000 1.0
C      1  0.5113990000000  0.5739910000000  0.4233840000000 1.0
C      1  0.4609400000000  0.6225670000000  0.4468070000000 1.0
C      1  0.4829070000000  0.5351280000000  0.4305410000000 1.0
C      1  0.6192290000000  0.5258070000000  0.5566610000000 1.0
C      1  0.6192820000000  0.4755370000000  0.5496070000000 1.0
C      1  0.5710750000000  0.4349350000000  0.4521930000000 1.0
C      1  0.4194310000000  0.5643950000000  0.4935000000000 1.0
C      1  0.4696280000000  0.5386070000000  0.5861450000000 1.0
C      1  0.6230080000000  0.5024260000000  0.5401270000000 1.0
C      1  0.4682380000000  0.5812220000000  0.5312220000000 1.0
C      1  0.5373810000000  0.5481610000000  0.5234540000000 1.0
C      1  0.4896510000000  0.4689630000000  0.5355640000000 1.0
C      1  0.4543940000000  0.4973050000000  0.4842440000000 1.0
C      1  0.4565120000000  0.4061630000000  0.4413390000000 1.0
C      1  0.5095290000000  0.4529830000000  0.5466030000000 1.0
C      1  0.5757230000000  0.5604100000000  0.5555250000000 1.0
C      1  0.6200480000000  0.5296060000000  0.5009270000000 1.0
C      1  0.4800000000000  0.6150110000000  0.4297730000000 1.0
C      1  0.4644070000000  0.4223500000000  0.5025670000000 1.0
C      1  0.4686700000000  0.4922460000000  0.6050500000000 1.0
C      1  0.4965090000000  0.5083900000000  0.5050960000000 1.0
C      1  0.4437320000000  0.6217740000000  0.4671390000000 1.0
C      1  0.4985650000000  0.5985730000000  0.4198500000000 1.0
C      1  0.4580030000000  0.4726100000000  0.4205160000000 1.0
C      1  0.5376050000000  0.5659300000000  0.4156800000000 1.0
C      1  0.4418320000000  0.5535760000000  0.4804470000000 1.0
C      1  0.5030020000000  0.4468390000000  0.6066930000000 1.0
C      1  0.4263160000000  0.5307560000000  0.5656850000000 1.0
C      1  0.4773820000000  0.4235570000000  0.5723350000000 1.0
C      1  0.5702250000000  0.5289580000000  0.4582240000000 1.0
C      1  0.5063610000000  0.4028960000000  0.4504560000000 1.0
C      1  0.4003270000000  0.5449190000000  0.5025240000000 1.0
C      1  0.4991610000000  0.5560220000000  0.4418720000000 1.0
C      1  0.6292620000000  0.5058290000000  0.5123710000000 1.0
C      1  0.4567210000000  0.4267140000000  0.5291190000000 1.0
C      1  0.3947760000000  0.5472010000000  0.5306310000000 1.0
C      1  0.5560970000000  0.4911270000000  0.5296570000000 1.0
C      1  0.5225090000000  0.5323070000000  0.5425630000000 1.0
C      1  0.3987440000000  0.5108650000000  0.4402540000000 1.0
C      1  0.4966350000000  0.4931420000000  0.3969040000000 1.0
C      1  0.5285990000000  0.5120020000000  0.5895470000000 1.0
C      1  0.4794370000000  0.5644290000000  0.5798910000000 1.0
C      1  0.4392810000000  0.4707780000000  0.5473730000000 1.0
C      1  0.5645620000000  0.4075000000000  0.4567390000000 1.0
C      1  0.4104360000000  0.4410360000000  0.5144420000000 1.0
C      1  0.6000900000000  0.5463630000000  0.5516350000000 1.0
C      1  0.5436870000000  0.5984000000000  0.4798510000000 1.0
C      1  0.4192710000000  0.5547590000000  0.4377480000000 1.0
C      1  0.6355990000000  0.5287530000000  0.5785770000000 1.0
C      1  0.4854940000000  0.4365430000000  0.4906730000000 1.0
C      1  0.5645950000000  0.5828460000000  0.5405250000000 1.0
C      1  0.3920870000000  0.5089190000000  0.3417850000000 1.0
C      1  0.5146820000000  0.5117550000000  0.4813100000000 1.0
C      1  0.5677640000000  0.4842960000000  0.5986810000000 1.0
C      1  0.5322720000000  0.4975860000000  0.4639140000000 1.0
C      1  0.5579650000000  0.5723310000000  0.4351340000000 1.0
C      1  0.4672310000000  0.4829180000000  0.5453800000000 1.0
C      1  0.4128200000000  0.5518510000000  0.5521080000000 1.0
C      1  0.6367420000000  0.4643710000000  0.5682470000000 1.0
C      1  0.5567790000000  0.4154530000000  0.5031080000000 1.0
C      1  0.5513160000000  0.4524010000000  0.4626470000000 1.0
C      1  0.4417840000000  0.5481900000000  0.4531140000000 1.0
C      1  0.6186860000000  0.4548700000000  0.4600190000000 1.0
C      1  0.4601950000000  0.5029570000000  0.4571130000000 1.0
C      1  0.6296640000000  0.4591370000000  0.4855450000000 1.0
C      1  0.5352510000000  0.5295660000000  0.5682950000000 1.0
C      1  0.5057950000000  0.3926010000000  0.5033990000000 1.0
C      1  0.4434020000000  0.4205980000000  0.4616390000000 1.0
C      1  0.5756310000000  0.6078080000000  0.5414780000000 1.0
C      1  0.5238950000000  0.5382000000000  0.4799330000000 1.0
C      1  0.4800020000000  0.5788220000000  0.5569610000000 1.0
C      1  0.5003100000000  0.4500080000000  0.4252950000000 1.0
C      1  0.5234670000000  0.4644200000000  0.5987930000000 1.0
C      1  0.5458890000000  0.5403930000000  0.4975930000000 1.0
C      1  0.5021600000000  0.5763890000000  0.4924350000000 1.0
C      1  0.3945370000000  0.4580030000000  0.4956270000000 1.0
C      1  0.3674240000000  0.4593340000000  0.5023380000000 1.0
C      1  0.4153610000000  0.4860550000000  0.5875580000000 1.0
C      1  0.5710470000000  0.5356550000000  0.4859410000000 1.0
C      1  0.4600900000000  0.5284320000000  0.4454390000000 1.0
C      1  0.4837930000000  0.4675070000000  0.4049250000000 1.0
C      1  0.5274610000000  0.5891610000000  0.5016860000000 1.0
C      1  0.5402760000000  0.4865290000000  0.5944630000000 1.0
C      1  0.4282950000000  0.4736170000000  0.4262060000000 1.0
C      1  0.5033100000000  0.4516680000000  0.4749590000000 1.0
C      1  0.4009820000000  0.4727350000000  0.4706840000000 1.0
C      1  0.3991710000000  0.4156020000000  0.5178630000000 1.0
C      1  0.5970790000000  0.4444400000000  0.4481170000000 1.0
C      1  0.5818450000000  0.4180320000000  0.5158200000000 1.0
C      1  0.6366890000000  0.4844040000000  0.4957070000000 1.0
C      1  0.5571570000000  0.5469450000000  0.5720950000000 1.0
C      1  0.5391360000000  0.4376550000000  0.5071570000000 1.0
C      1  0.4803110000000  0.5183640000000  0.6034660000000 1.0
C      1  0.5421350000000  0.5140480000000  0.3991000000000 1.0
C      1  0.5310270000000  0.4504640000000  0.4824640000000 1.0
C      1  0.4262760000000  0.5898840000000  0.5052480000000 1.0
C      1  0.4306180000000  0.6115840000000  0.4880190000000 1.0
C      1  0.5071240000000  0.5584750000000  0.4695920000000 1.0
C      1  0.4121590000000  0.5122460000000  0.5817690000000 1.0
C      1  0.5411460000000  0.5767290000000  0.5248110000000 1.0
C      1  0.4789660000000  0.4451090000000  0.5910990000000 1.0
C      1  0.4934620000000  0.4635860000000  0.4509660000000 1.0
C      1  0.4400010000000  0.5877040000000  0.5304630000000 1.0
C      1  0.4791890000000  0.5683760000000  0.5079390000000 1.0
C      1  0.4469390000000  0.4080220000000  0.4864220000000 1.0
C      1  0.4346140000000  0.4450350000000  0.5315570000000 1.0
C      1  0.5731200000000  0.4730940000000  0.5374450000000 1.0
C      1  0.5407620000000  0.5426640000000  0.3991810000000 1.0
C      1  0.4762990000000  0.4136780000000  0.5457410000000 1.0
C      1  0.4802030000000  0.3931230000000  0.4442070000000 1.0
C      1  0.4711350000000  0.4806050000000  0.4452810000000 1.0
C      1  0.5962050000000  0.5404850000000  0.4964880000000 1.0
C      1  0.5297880000000  0.4421260000000  0.5330210000000 1.0
C      1  0.5195650000000  0.3962840000000  0.4769620000000 1.0
C      1  0.4951910000000  0.3980080000000  0.5287350000000 1.0
C      1  0.5977720000000  0.4601040000000  0.5385280000000 1.0
C      1  0.4360190000000  0.4691650000000  0.5776940000000 1.0
C      1  0.4605160000000  0.4673840000000  0.5930030000000 1.0
C      1  0.5057750000000  0.4315290000000  0.6292140000000 1.0
C      1  0.3979780000000  0.5385390000000  0.4348270000000 1.0
C      1  0.4193560000000  0.4613020000000  0.4511240000000 1.0
END
