TITL C-612603-7354-502 -25150.2569731536 125000 -1173.52016887151 0 0 188 (C1) n - 1
REM
REM in /home/nfs/bkarasulu/CARBON/AIRSS/Generating-Clusters/TERSOFF/Only-C1/FIRE-HFTN
REM
REM
REM
REM
REM
REM ./C.cell (11c1c37f851c82e70ff6c80c92926a4b)
REM AIRSS Version 0.9.1 bugfix July 2018 build 013d7b7c2542+ Fri, 06 Jul 2018 19:26:36 +0100
REM compiler GCC version 9.2.1 20190827 (Red Hat 9.2.1-1)
REM options -cpp -mtune=generic -march=x86-64 -g -O0 -fpre-include=/usr/include/finclude/math-vector-fortran.h
REM seed 1258025212 -286802481 -1490897401 -1856043019 1909877164 918951705 -451835836 2045356792 836758025 2089208835 -2057651346 1794694993 -1491800050 -814418762 -991578009 -1175961632 -1618256988 1411219190 -778300253 70333855 433715598 -889040399 99601946 607674086 -321716144 1126233398 1942307581 -133130125 -1789290654 1242205053 2116940396 -839302668 -1697121099
REM
CELL 1.54180   50.00000   50.00000   50.00000   90.00000   90.00000   90.00000
LATT -1
SFAC C  
C      1  0.4903640000000  0.4565620000000  0.3999530000000 1.0
C      1  0.4055390000000  0.6162110000000  0.4954100000000 1.0
C      1  0.5664150000000  0.5296850000000  0.3875440000000 1.0
C      1  0.4630510000000  0.4459650000000  0.4025600000000 1.0
C      1  0.5529970000000  0.5027290000000  0.6164400000000 1.0
C      1  0.5049190000000  0.4416130000000  0.4706330000000 1.0
C      1  0.4884740000000  0.4305990000000  0.4909150000000 1.0
C      1  0.5194710000000  0.3863430000000  0.5068280000000 1.0
C      1  0.5227030000000  0.5982470000000  0.4507920000000 1.0
C      1  0.5576730000000  0.4345220000000  0.3783650000000 1.0
C      1  0.5528830000000  0.4992120000000  0.5263840000000 1.0
C      1  0.4705510000000  0.4096420000000  0.4851080000000 1.0
C      1  0.5297450000000  0.4462860000000  0.5733850000000 1.0
C      1  0.5271130000000  0.4070790000000  0.5244850000000 1.0
C      1  0.5281890000000  0.3863930000000  0.4796450000000 1.0
C      1  0.4009890000000  0.6032520000000  0.5188160000000 1.0
C      1  0.5149080000000  0.5764370000000  0.4073730000000 1.0
C      1  0.5010340000000  0.5102040000000  0.4743750000000 1.0
C      1  0.5361850000000  0.4767940000000  0.4530650000000 1.0
C      1  0.4910920000000  0.5689320000000  0.5152170000000 1.0
C      1  0.4145200000000  0.5789030000000  0.5247440000000 1.0
C      1  0.4061690000000  0.4502210000000  0.5187280000000 1.0
C      1  0.5476930000000  0.5465280000000  0.5928740000000 1.0
C      1  0.5577110000000  0.5799400000000  0.5009160000000 1.0
C      1  0.5084490000000  0.5284090000000  0.4049260000000 1.0
C      1  0.5904140000000  0.5314920000000  0.4486930000000 1.0
C      1  0.5671860000000  0.5527410000000  0.4016990000000 1.0
C      1  0.4163160000000  0.4125230000000  0.5625800000000 1.0
C      1  0.5434730000000  0.5566620000000  0.5419210000000 1.0
C      1  0.5731140000000  0.4370430000000  0.4884930000000 1.0
C      1  0.5363210000000  0.5839770000000  0.4273410000000 1.0
C      1  0.6358340000000  0.6488160000000  0.4655720000000 1.0
C      1  0.5218580000000  0.3938820000000  0.4527650000000 1.0
C      1  0.5290070000000  0.4806220000000  0.5364770000000 1.0
C      1  0.4110680000000  0.4303170000000  0.4752630000000 1.0
C      1  0.6283770000000  0.4283510000000  0.5516220000000 1.0
C      1  0.4434130000000  0.5447800000000  0.5083850000000 1.0
C      1  0.4842450000000  0.4960880000000  0.4930720000000 1.0
C      1  0.6028360000000  0.5195350000000  0.5583950000000 1.0
C      1  0.5499730000000  0.4848290000000  0.5950890000000 1.0
C      1  0.5523840000000  0.4808800000000  0.4773200000000 1.0
C      1  0.4948340000000  0.5890070000000  0.4465000000000 1.0
C      1  0.5432790000000  0.5014700000000  0.4962790000000 1.0
C      1  0.5408910000000  0.5279210000000  0.6139960000000 1.0
C      1  0.4790030000000  0.4524970000000  0.5874610000000 1.0
C      1  0.4889880000000  0.5231990000000  0.6169820000000 1.0
C      1  0.5073120000000  0.5002750000000  0.5458730000000 1.0
C      1  0.4807850000000  0.4917890000000  0.5532430000000 1.0
C      1  0.5644270000000  0.5475370000000  0.4504090000000 1.0
C      1  0.6069310000000  0.5436940000000  0.5176700000000 1.0
C      1  0.4202280000000  0.4829220000000  0.4635410000000 1.0
C      1  0.5382470000000  0.6009610000000  0.5040050000000 1.0
C      1  0.5152360000000  0.5277650000000  0.6252460000000 1.0
C      1  0.5997490000000  0.5070860000000  0.4420750000000 1.0
C      1  0.5636130000000  0.5653860000000  0.4762040000000 1.0
C      1  0.6303430000000  0.4028090000000  0.5584290000000 1.0
C      1  0.4748960000000  0.5476400000000  0.6115430000000 1.0
C      1  0.4889120000000  0.5337910000000  0.4249640000000 1.0
C      1  0.5426030000000  0.4301790000000  0.5291040000000 1.0
C      1  0.4893070000000  0.5165120000000  0.4478280000000 1.0
C      1  0.4996730000000  0.4082300000000  0.5973980000000 1.0
C      1  0.5820370000000  0.4312370000000  0.4214890000000 1.0
C      1  0.5383300000000  0.5731340000000  0.5960490000000 1.0
C      1  0.4155300000000  0.4267980000000  0.5034310000000 1.0
C      1  0.3874920000000  0.4986530000000  0.5048320000000 1.0
C      1  0.4213850000000  0.5770000000000  0.4701760000000 1.0
C      1  0.6037410000000  0.5172970000000  0.5288740000000 1.0
C      1  0.3793960000000  0.5062510000000  0.4778310000000 1.0
C      1  0.3919150000000  0.4688720000000  0.5016470000000 1.0
C      1  0.4003680000000  0.5614140000000  0.4577340000000 1.0
C      1  0.4702790000000  0.5522310000000  0.4591960000000 1.0
C      1  0.5774150000000  0.4256360000000  0.3943010000000 1.0
C      1  0.5178000000000  0.5519520000000  0.3928570000000 1.0
C      1  0.5584550000000  0.5049930000000  0.3801880000000 1.0
C      1  0.5111530000000  0.4241270000000  0.5761010000000 1.0
C      1  0.6129750000000  0.4608590000000  0.5185600000000 1.0
C      1  0.5460990000000  0.4810690000000  0.3787560000000 1.0
C      1  0.4605930000000  0.3920530000000  0.6235000000000 1.0
C      1  0.4891520000000  0.5671770000000  0.5957090000000 1.0
C      1  0.4496880000000  0.5121060000000  0.4674920000000 1.0
C      1  0.6380740000000  0.6228890000000  0.4672010000000 1.0
C      1  0.4028430000000  0.5175760000000  0.4348790000000 1.0
C      1  0.4181630000000  0.6043590000000  0.4746100000000 1.0
C      1  0.5326910000000  0.4985040000000  0.4339250000000 1.0
C      1  0.4930080000000  0.4734480000000  0.5057110000000 1.0
C      1  0.5590680000000  0.5656600000000  0.4261570000000 1.0
C      1  0.4780020000000  0.4456210000000  0.5396680000000 1.0
C      1  0.4336080000000  0.4341560000000  0.4582620000000 1.0
C      1  0.4873400000000  0.4469560000000  0.5133620000000 1.0
C      1  0.5165000000000  0.5522540000000  0.5354250000000 1.0
C      1  0.6378530000000  0.5968320000000  0.4721240000000 1.0
C      1  0.4706240000000  0.3747540000000  0.5164960000000 1.0
C      1  0.6283310000000  0.3778050000000  0.5655400000000 1.0
C      1  0.6188090000000  0.4537540000000  0.5453530000000 1.0
C      1  0.3931540000000  0.5229180000000  0.5236560000000 1.0
C      1  0.5665490000000  0.4166970000000  0.4409070000000 1.0
C      1  0.4897400000000  0.6008910000000  0.5173180000000 1.0
C      1  0.6332320000000  0.5727400000000  0.4822040000000 1.0
C      1  0.4723470000000  0.4109530000000  0.6077340000000 1.0
C      1  0.5750560000000  0.4651670000000  0.4858750000000 1.0
C      1  0.4877400000000  0.5708930000000  0.4666250000000 1.0
C      1  0.4149110000000  0.5028320000000  0.4137640000000 1.0
C      1  0.4890880000000  0.4856750000000  0.4016790000000 1.0
C      1  0.5879480000000  0.5453390000000  0.5609330000000 1.0
C      1  0.4655710000000  0.6026990000000  0.5364410000000 1.0
C      1  0.4403260000000  0.5155320000000  0.4052500000000 1.0
C      1  0.5663380000000  0.4294830000000  0.5144660000000 1.0
C      1  0.5751750000000  0.4190900000000  0.4674550000000 1.0
C      1  0.4347410000000  0.5556860000000  0.4838160000000 1.0
C      1  0.5901660000000  0.5600530000000  0.5349240000000 1.0
C      1  0.4222550000000  0.3977970000000  0.5409050000000 1.0
C      1  0.4556850000000  0.3959170000000  0.5050680000000 1.0
C      1  0.4591840000000  0.4353750000000  0.5995980000000 1.0
C      1  0.4635200000000  0.4720540000000  0.4477290000000 1.0
C      1  0.5381690000000  0.4541930000000  0.3840520000000 1.0
C      1  0.4613970000000  0.5617730000000  0.5205140000000 1.0
C      1  0.5672650000000  0.4924970000000  0.5737600000000 1.0
C      1  0.4466820000000  0.5446290000000  0.6076610000000 1.0
C      1  0.4157840000000  0.4731560000000  0.4148370000000 1.0
C      1  0.4783400000000  0.4977510000000  0.6071330000000 1.0
C      1  0.4963470000000  0.6150750000000  0.4911100000000 1.0
C      1  0.4128080000000  0.5229780000000  0.5761240000000 1.0
C      1  0.4306130000000  0.4053720000000  0.5150090000000 1.0
C      1  0.6229480000000  0.5537320000000  0.4975900000000 1.0
C      1  0.3916330000000  0.4513310000000  0.4692730000000 1.0
C      1  0.4556570000000  0.4225160000000  0.4159850000000 1.0
C      1  0.4698320000000  0.4021650000000  0.4575880000000 1.0
C      1  0.4477150000000  0.5395300000000  0.4652290000000 1.0
C      1  0.4375030000000  0.4778250000000  0.5422050000000 1.0
C      1  0.5041480000000  0.5304280000000  0.5472670000000 1.0
C      1  0.5135510000000  0.5834370000000  0.5879980000000 1.0
C      1  0.4392460000000  0.4621860000000  0.4573600000000 1.0
C      1  0.5230320000000  0.6088170000000  0.4793020000000 1.0
C      1  0.4954490000000  0.4746210000000  0.5975360000000 1.0
C      1  0.5934930000000  0.4760850000000  0.5048550000000 1.0
C      1  0.3957850000000  0.5508450000000  0.5113550000000 1.0
C      1  0.4323290000000  0.4736980000000  0.6024750000000 1.0
C      1  0.4645710000000  0.4696290000000  0.5459920000000 1.0
C      1  0.4338700000000  0.5219220000000  0.5961210000000 1.0
C      1  0.4181220000000  0.4574260000000  0.5440650000000 1.0
C      1  0.5947950000000  0.4556550000000  0.4285000000000 1.0
C      1  0.5442680000000  0.5237710000000  0.4432140000000 1.0
C      1  0.4627410000000  0.5151260000000  0.5558790000000 1.0
C      1  0.5244510000000  0.5471260000000  0.4881790000000 1.0
C      1  0.5025330000000  0.5640350000000  0.4889740000000 1.0
C      1  0.4694460000000  0.5551900000000  0.4180190000000 1.0
C      1  0.5247030000000  0.4359870000000  0.4279260000000 1.0
C      1  0.4502320000000  0.4164780000000  0.4429480000000 1.0
C      1  0.5382720000000  0.4120130000000  0.4366980000000 1.0
C      1  0.4780020000000  0.5387680000000  0.5584060000000 1.0
C      1  0.4939140000000  0.3917510000000  0.4467170000000 1.0
C      1  0.5184010000000  0.6040790000000  0.5326340000000 1.0
C      1  0.4598210000000  0.4939250000000  0.3998010000000 1.0
C      1  0.5246310000000  0.5197650000000  0.4861070000000 1.0
C      1  0.4416540000000  0.5436660000000  0.4157950000000 1.0
C      1  0.5958580000000  0.4945830000000  0.5712720000000 1.0
C      1  0.3966130000000  0.4597040000000  0.4354910000000 1.0
C      1  0.5571870000000  0.5403950000000  0.5647680000000 1.0
C      1  0.4200290000000  0.4400560000000  0.5678690000000 1.0
C      1  0.5561290000000  0.5118230000000  0.5547970000000 1.0
C      1  0.4481890000000  0.4971920000000  0.6027160000000 1.0
C      1  0.4432450000000  0.4676960000000  0.4027400000000 1.0
C      1  0.3534590000000  0.5120180000000  0.4715310000000 1.0
C      1  0.5999740000000  0.4813080000000  0.4345000000000 1.0
C      1  0.4109600000000  0.5452150000000  0.4353160000000 1.0
C      1  0.5135030000000  0.5005610000000  0.4104670000000 1.0
C      1  0.5846570000000  0.4986020000000  0.5189790000000 1.0
C      1  0.4755900000000  0.5653070000000  0.5694650000000 1.0
C      1  0.4435010000000  0.5173280000000  0.5134450000000 1.0
C      1  0.4443600000000  0.5839040000000  0.5291840000000 1.0
C      1  0.4878600000000  0.5796410000000  0.4194060000000 1.0
C      1  0.3858510000000  0.5536500000000  0.4828820000000 1.0
C      1  0.5205310000000  0.4531600000000  0.4504500000000 1.0
C      1  0.6114340000000  0.4718610000000  0.5657720000000 1.0
C      1  0.5254590000000  0.4694990000000  0.5914010000000 1.0
C      1  0.4663730000000  0.4995550000000  0.4481150000000 1.0
C      1  0.4879320000000  0.4364970000000  0.5640920000000 1.0
C      1  0.4786010000000  0.5931000000000  0.5600770000000 1.0
C      1  0.4336960000000  0.4472290000000  0.5926080000000 1.0
C      1  0.5169150000000  0.4461020000000  0.4022270000000 1.0
C      1  0.4570700000000  0.5035320000000  0.4934300000000 1.0
C      1  0.4972760000000  0.3706990000000  0.5148310000000 1.0
C      1  0.5352830000000  0.4529520000000  0.5453980000000 1.0
C      1  0.3989810000000  0.5216080000000  0.5524050000000 1.0
C      1  0.5086280000000  0.5981950000000  0.5621920000000 1.0
C      1  0.3998770000000  0.5023740000000  0.4587270000000 1.0
C      1  0.5645350000000  0.5680280000000  0.5255310000000 1.0
C      1  0.4409390000000  0.5065410000000  0.5390210000000 1.0
END
