TITL C-612602-9376-324 56459.6842365418 125000 -1127.22526304852 0 0 185 (C1) n - 1
REM
REM in /home/nfs/bkarasulu/CARBON/AIRSS/Generating-Clusters/TERSOFF/Only-C1/FIRE-HFTN
REM
REM
REM
REM
REM
REM ./C.cell (11c1c37f851c82e70ff6c80c92926a4b)
REM AIRSS Version 0.9.1 bugfix July 2018 build 013d7b7c2542+ Fri, 06 Jul 2018 19:26:36 +0100
REM compiler GCC version 9.2.1 20190827 (Red Hat 9.2.1-1)
REM options -cpp -mtune=generic -march=x86-64 -g -O0 -fpre-include=/usr/include/finclude/math-vector-fortran.h
REM seed 1505065226 988221080 511465128 812439395 1089715546 -991606984 1783894627 1638629705 1451232329 -890455043 1513574744 -1621383598 422368182 -903121885 458896072 -773590076 1616667451 -1020157420 -468960033 -530968201 -121872480 1277255834 -618986239 1880425010 1676610441 -1383583221 1448993441 2052403072 -1836035237 2097939785 1418615673 -2109714441 -1712225263
REM
CELL 1.54180   50.00000   50.00000   50.00000   90.00000   90.00000   90.00000
LATT -1
SFAC C  
C      1  0.5515780000000  0.5268000000000  0.6108780000000 1.0
C      1  0.4464220000000  0.5478960000000  0.4462630000000 1.0
C      1  0.5630490000000  0.5585010000000  0.5453520000000 1.0
C      1  0.5662580000000  0.4930120000000  0.3982240000000 1.0
C      1  0.5979880000000  0.4507370000000  0.5666790000000 1.0
C      1  0.4186420000000  0.5754920000000  0.5262440000000 1.0
C      1  0.5878470000000  0.4929960000000  0.4180880000000 1.0
C      1  0.4949750000000  0.5615110000000  0.3900200000000 1.0
C      1  0.5439550000000  0.4682840000000  0.5344240000000 1.0
C      1  0.5088900000000  0.4990860000000  0.5772200000000 1.0
C      1  0.5163900000000  0.4744600000000  0.5311250000000 1.0
C      1  0.5078010000000  0.6047950000000  0.4238800000000 1.0
C      1  0.4699320000000  0.4760440000000  0.5901170000000 1.0
C      1  0.3975630000000  0.5120930000000  0.5226500000000 1.0
C      1  0.4478380000000  0.6071730000000  0.5896100000000 1.0
C      1  0.4991640000000  0.4097080000000  0.5117930000000 1.0
C      1  0.5027020000000  0.5328680000000  0.3857720000000 1.0
C      1  0.5396210000000  0.3848940000000  0.4569230000000 1.0
C      1  0.4955660000000  0.3724220000000  0.5446680000000 1.0
C      1  0.4031510000000  0.4966190000000  0.5754560000000 1.0
C      1  0.4915690000000  0.3944990000000  0.4435970000000 1.0
C      1  0.3818000000000  0.5339520000000  0.4780640000000 1.0
C      1  0.4518850000000  0.5166120000000  0.6213440000000 1.0
C      1  0.4653240000000  0.5668790000000  0.5199060000000 1.0
C      1  0.5853540000000  0.5559870000000  0.5014120000000 1.0
C      1  0.4762660000000  0.5729040000000  0.3733590000000 1.0
C      1  0.5628040000000  0.5079380000000  0.5587040000000 1.0
C      1  0.4626940000000  0.4977000000000  0.6062350000000 1.0
C      1  0.6104960000000  0.5180780000000  0.5649360000000 1.0
C      1  0.4616360000000  0.4433320000000  0.4865470000000 1.0
C      1  0.5118140000000  0.5606580000000  0.4582230000000 1.0
C      1  0.5351640000000  0.3935790000000  0.5540380000000 1.0
C      1  0.4759420000000  0.4089930000000  0.5248190000000 1.0
C      1  0.5576380000000  0.6029890000000  0.4802520000000 1.0
C      1  0.5509960000000  0.5783350000000  0.4342860000000 1.0
C      1  0.4090430000000  0.4625580000000  0.4813840000000 1.0
C      1  0.3657100000000  0.4526810000000  0.4326460000000 1.0
C      1  0.5594360000000  0.5409220000000  0.4666730000000 1.0
C      1  0.4505590000000  0.4045820000000  0.5649160000000 1.0
C      1  0.5842400000000  0.5168710000000  0.5788850000000 1.0
C      1  0.5669670000000  0.5620440000000  0.5737720000000 1.0
C      1  0.5016930000000  0.5928740000000  0.5011170000000 1.0
C      1  0.4495970000000  0.5647280000000  0.5637210000000 1.0
C      1  0.6216930000000  0.5575630000000  0.4492110000000 1.0
C      1  0.4415270000000  0.4628300000000  0.4967560000000 1.0
C      1  0.4416350000000  0.5785190000000  0.5096740000000 1.0
C      1  0.5844110000000  0.5274850000000  0.5062310000000 1.0
C      1  0.4620870000000  0.5880520000000  0.5753310000000 1.0
C      1  0.3842890000000  0.4874930000000  0.5151890000000 1.0
C      1  0.5011940000000  0.5004390000000  0.4601880000000 1.0
C      1  0.4329540000000  0.5061780000000  0.4788350000000 1.0
C      1  0.5244500000000  0.4838670000000  0.5960750000000 1.0
C      1  0.5049740000000  0.6069900000000  0.5251870000000 1.0
C      1  0.5218890000000  0.4745100000000  0.3877610000000 1.0
C      1  0.6078130000000  0.5144400000000  0.4977340000000 1.0
C      1  0.5040300000000  0.3701560000000  0.4901490000000 1.0
C      1  0.6236660000000  0.4956710000000  0.5571490000000 1.0
C      1  0.5248740000000  0.5620560000000  0.4304470000000 1.0
C      1  0.4718250000000  0.4625320000000  0.3987540000000 1.0
C      1  0.4940920000000  0.4805480000000  0.3883570000000 1.0
C      1  0.5656350000000  0.4058850000000  0.4897030000000 1.0
C      1  0.5887520000000  0.4760900000000  0.4415730000000 1.0
C      1  0.5112690000000  0.4329480000000  0.4273820000000 1.0
C      1  0.4579330000000  0.5200690000000  0.5415460000000 1.0
C      1  0.3982070000000  0.5461390000000  0.5571540000000 1.0
C      1  0.5059730000000  0.6366570000000  0.5633740000000 1.0
C      1  0.5804930000000  0.5599970000000  0.4734940000000 1.0
C      1  0.4221340000000  0.4762980000000  0.5397010000000 1.0
C      1  0.4497550000000  0.4212650000000  0.4738530000000 1.0
C      1  0.5327060000000  0.4354860000000  0.4849160000000 1.0
C      1  0.4901270000000  0.5910980000000  0.5689990000000 1.0
C      1  0.5024890000000  0.4380450000000  0.5947290000000 1.0
C      1  0.5013160000000  0.5236510000000  0.5892360000000 1.0
C      1  0.5750490000000  0.5401590000000  0.4111040000000 1.0
C      1  0.4383470000000  0.5820740000000  0.4810460000000 1.0
C      1  0.5323550000000  0.5455700000000  0.4757370000000 1.0
C      1  0.5206790000000  0.5376490000000  0.5324790000000 1.0
C      1  0.4511890000000  0.6053730000000  0.4405680000000 1.0
C      1  0.5692790000000  0.5399930000000  0.5920230000000 1.0
C      1  0.4828870000000  0.5062220000000  0.5332870000000 1.0
C      1  0.4672560000000  0.4644710000000  0.4441430000000 1.0
C      1  0.5593890000000  0.4798290000000  0.5552420000000 1.0
C      1  0.4832470000000  0.5423970000000  0.4855910000000 1.0
C      1  0.4461060000000  0.4823630000000  0.4353870000000 1.0
C      1  0.4192430000000  0.5179560000000  0.5029380000000 1.0
C      1  0.5071100000000  0.5778400000000  0.4113190000000 1.0
C      1  0.4641270000000  0.4101100000000  0.5890080000000 1.0
C      1  0.4982710000000  0.4714330000000  0.5081500000000 1.0
C      1  0.5726290000000  0.4907270000000  0.4612370000000 1.0
C      1  0.5077790000000  0.3920730000000  0.5636780000000 1.0
C      1  0.5261610000000  0.4548110000000  0.5947690000000 1.0
C      1  0.5579980000000  0.4478200000000  0.5213530000000 1.0
C      1  0.5485110000000  0.3854880000000  0.5316790000000 1.0
C      1  0.4596050000000  0.4205980000000  0.5437400000000 1.0
C      1  0.5156770000000  0.5139570000000  0.4405920000000 1.0
C      1  0.4935870000000  0.4736390000000  0.4522530000000 1.0
C      1  0.5487370000000  0.4700630000000  0.3975580000000 1.0
C      1  0.4337920000000  0.6273240000000  0.5983280000000 1.0
C      1  0.4640730000000  0.5434510000000  0.4655650000000 1.0
C      1  0.5856500000000  0.5202550000000  0.4293980000000 1.0
C      1  0.5304380000000  0.4276720000000  0.4080030000000 1.0
C      1  0.5387980000000  0.4520630000000  0.4616600000000 1.0
C      1  0.4591600000000  0.5885700000000  0.4611780000000 1.0
C      1  0.4328410000000  0.5279630000000  0.4328470000000 1.0
C      1  0.5036120000000  0.4934680000000  0.5496260000000 1.0
C      1  0.3788370000000  0.5058600000000  0.4708760000000 1.0
C      1  0.5508150000000  0.5301630000000  0.5407080000000 1.0
C      1  0.4574390000000  0.4487240000000  0.5451200000000 1.0
C      1  0.4857480000000  0.4203310000000  0.4297630000000 1.0
C      1  0.4387740000000  0.4582720000000  0.5253440000000 1.0
C      1  0.4845700000000  0.5095370000000  0.3860610000000 1.0
C      1  0.5611640000000  0.5955270000000  0.5063580000000 1.0
C      1  0.5148110000000  0.4550270000000  0.4452910000000 1.0
C      1  0.4693210000000  0.4434320000000  0.4225770000000 1.0
C      1  0.4535120000000  0.4347990000000  0.6017920000000 1.0
C      1  0.5576800000000  0.5219450000000  0.3936070000000 1.0
C      1  0.6175070000000  0.4695980000000  0.5589860000000 1.0
C      1  0.5608940000000  0.4054490000000  0.4594860000000 1.0
C      1  0.3833350000000  0.4385190000000  0.4468350000000 1.0
C      1  0.5887240000000  0.4482080000000  0.4444380000000 1.0
C      1  0.5195780000000  0.6107120000000  0.4510460000000 1.0
C      1  0.4878560000000  0.5805870000000  0.4610440000000 1.0
C      1  0.5506670000000  0.4770530000000  0.4707310000000 1.0
C      1  0.3642890000000  0.4994100000000  0.4476540000000 1.0
C      1  0.3993470000000  0.5173870000000  0.5531250000000 1.0
C      1  0.4981160000000  0.5159200000000  0.4876700000000 1.0
C      1  0.4688680000000  0.5491000000000  0.5454730000000 1.0
C      1  0.5524370000000  0.4460850000000  0.5885130000000 1.0
C      1  0.5519410000000  0.3835750000000  0.5034740000000 1.0
C      1  0.3922690000000  0.5592380000000  0.4874520000000 1.0
C      1  0.5056640000000  0.5499640000000  0.5927700000000 1.0
C      1  0.5902790000000  0.4973880000000  0.6022170000000 1.0
C      1  0.5467190000000  0.6004540000000  0.4537310000000 1.0
C      1  0.4243030000000  0.4197920000000  0.4652770000000 1.0
C      1  0.4859670000000  0.3809550000000  0.4692870000000 1.0
C      1  0.5324350000000  0.3739720000000  0.4838200000000 1.0
C      1  0.5003550000000  0.6121510000000  0.5526280000000 1.0
C      1  0.4382480000000  0.5273990000000  0.4049010000000 1.0
C      1  0.4417480000000  0.5368370000000  0.6342930000000 1.0
C      1  0.5028650000000  0.6027740000000  0.4738670000000 1.0
C      1  0.4822240000000  0.4965400000000  0.5043190000000 1.0
C      1  0.4328850000000  0.5038430000000  0.4490320000000 1.0
C      1  0.4223140000000  0.5637000000000  0.5537780000000 1.0
C      1  0.4400550000000  0.5269360000000  0.5192010000000 1.0
C      1  0.5187730000000  0.3850400000000  0.4377530000000 1.0
C      1  0.6042990000000  0.4235520000000  0.5672380000000 1.0
C      1  0.4563890000000  0.5086590000000  0.3944720000000 1.0
C      1  0.6274400000000  0.5205030000000  0.4803560000000 1.0
C      1  0.6092990000000  0.3982460000000  0.5635110000000 1.0
C      1  0.5630110000000  0.4342370000000  0.4440600000000 1.0
C      1  0.5948870000000  0.5660140000000  0.4492500000000 1.0
C      1  0.3921330000000  0.5678690000000  0.5149990000000 1.0
C      1  0.4948580000000  0.4105990000000  0.5840950000000 1.0
C      1  0.5713370000000  0.5182000000000  0.4546650000000 1.0
C      1  0.5713040000000  0.4593990000000  0.5719480000000 1.0
C      1  0.6639930000000  0.5341660000000  0.4517680000000 1.0
C      1  0.4508420000000  0.4828020000000  0.4059760000000 1.0
C      1  0.4541050000000  0.4900330000000  0.4916240000000 1.0
C      1  0.4967180000000  0.3646020000000  0.5180060000000 1.0
C      1  0.5758340000000  0.5657390000000  0.4264420000000 1.0
C      1  0.5525950000000  0.4441600000000  0.4100840000000 1.0
C      1  0.5585710000000  0.5201000000000  0.5130280000000 1.0
C      1  0.5295530000000  0.5277860000000  0.3960130000000 1.0
C      1  0.4429710000000  0.4940630000000  0.5528230000000 1.0
C      1  0.5399500000000  0.5018890000000  0.6126090000000 1.0
C      1  0.4609630000000  0.4727000000000  0.5633360000000 1.0
C      1  0.6382410000000  0.5374000000000  0.4603340000000 1.0
C      1  0.5244900000000  0.5270970000000  0.4981730000000 1.0
C      1  0.5007200000000  0.5497980000000  0.5468170000000 1.0
C      1  0.4280790000000  0.4510680000000  0.5974840000000 1.0
C      1  0.5257400000000  0.5333700000000  0.4237900000000 1.0
C      1  0.3580930000000  0.4783480000000  0.4323960000000 1.0
C      1  0.4121660000000  0.5734320000000  0.4723910000000 1.0
C      1  0.5073770000000  0.4286600000000  0.4936010000000 1.0
C      1  0.4128790000000  0.4735120000000  0.5890360000000 1.0
C      1  0.4045050000000  0.4398540000000  0.4650030000000 1.0
C      1  0.5711260000000  0.5725580000000  0.5204630000000 1.0
C      1  0.3786670000000  0.5580550000000  0.5384790000000 1.0
C      1  0.4876190000000  0.5664320000000  0.5024050000000 1.0
C      1  0.3947380000000  0.4703830000000  0.5349770000000 1.0
C      1  0.5047330000000  0.5667230000000  0.5703080000000 1.0
C      1  0.3886500000000  0.4830110000000  0.4872150000000 1.0
C      1  0.4775300000000  0.4516800000000  0.6020910000000 1.0
C      1  0.5558200000000  0.4303570000000  0.5004570000000 1.0
C      1  0.4887110000000  0.4493200000000  0.4935810000000 1.0
END
