TITL C-612601-4209-1267 -180977.928686998 125000 -840.714136901902 0 0 137 (C1) n - 1
REM
REM in /home/nfs/bkarasulu/CARBON/AIRSS/Generating-Clusters/TERSOFF/Only-C1/FIRE-HFTN
REM
REM
REM
REM
REM
REM ./C.cell (11c1c37f851c82e70ff6c80c92926a4b)
REM AIRSS Version 0.9.1 bugfix July 2018 build 013d7b7c2542+ Fri, 06 Jul 2018 19:26:36 +0100
REM compiler GCC version 9.2.1 20190827 (Red Hat 9.2.1-1)
REM options -cpp -mtune=generic -march=x86-64 -g -O0 -fpre-include=/usr/include/finclude/math-vector-fortran.h
REM seed 1801698869 688006515 93439163 -1040829138 513056551 -632095529 400400517 -199360541 374985571 -538600034 64199846 936171444 -1020791260 -1059740835 -1808048285 -217358267 -1602424370 1352456666 872560017 64516157 745076517 -34895619 976810393 -220061434 614321199 -1053814666 1125840186 -519593613 -665886579 1929243523 -1152194177 42782004 -1456849859
REM
CELL 1.54180   50.00000   50.00000   50.00000   90.00000   90.00000   90.00000
LATT -1
SFAC C  
C      1  0.4362580000000  0.4018330000000  0.4713360000000 1.0
C      1  0.5711600000000  0.4800270000000  0.5637150000000 1.0
C      1  0.4068230000000  0.4926740000000  0.4253120000000 1.0
C      1  0.5309080000000  0.5364480000000  0.4053170000000 1.0
C      1  0.4508200000000  0.5490170000000  0.4025590000000 1.0
C      1  0.4705190000000  0.4663730000000  0.4801280000000 1.0
C      1  0.3959120000000  0.4646580000000  0.5202280000000 1.0
C      1  0.5261060000000  0.5122940000000  0.4508010000000 1.0
C      1  0.5727170000000  0.4744220000000  0.4246460000000 1.0
C      1  0.5693380000000  0.5526020000000  0.5247490000000 1.0
C      1  0.6132560000000  0.4734170000000  0.4511440000000 1.0
C      1  0.5543090000000  0.5499390000000  0.5729060000000 1.0
C      1  0.4442820000000  0.4763530000000  0.4743440000000 1.0
C      1  0.4574380000000  0.4367010000000  0.5623590000000 1.0
C      1  0.5554320000000  0.5147590000000  0.4958760000000 1.0
C      1  0.5436700000000  0.4112430000000  0.5378560000000 1.0
C      1  0.4703740000000  0.5567150000000  0.5141470000000 1.0
C      1  0.3956740000000  0.5245180000000  0.4549270000000 1.0
C      1  0.5113290000000  0.4978290000000  0.4995460000000 1.0
C      1  0.5903160000000  0.5322810000000  0.5173140000000 1.0
C      1  0.5018120000000  0.4100980000000  0.5687990000000 1.0
C      1  0.4851700000000  0.4365860000000  0.5247900000000 1.0
C      1  0.3928440000000  0.4951390000000  0.4990370000000 1.0
C      1  0.5853880000000  0.4410110000000  0.4848070000000 1.0
C      1  0.5485520000000  0.4689720000000  0.4945950000000 1.0
C      1  0.5491650000000  0.5654640000000  0.4509290000000 1.0
C      1  0.5600460000000  0.4558920000000  0.5736840000000 1.0
C      1  0.5263240000000  0.5794410000000  0.5157510000000 1.0
C      1  0.4117920000000  0.5066240000000  0.5781410000000 1.0
C      1  0.4770490000000  0.4200530000000  0.5752350000000 1.0
C      1  0.5437140000000  0.5081020000000  0.4032820000000 1.0
C      1  0.5090050000000  0.5256270000000  0.5044110000000 1.0
C      1  0.5170150000000  0.4631750000000  0.4599780000000 1.0
C      1  0.5335870000000  0.4796930000000  0.3985850000000 1.0
C      1  0.5618680000000  0.5675130000000  0.4775660000000 1.0
C      1  0.5868230000000  0.4784110000000  0.5397940000000 1.0
C      1  0.4865900000000  0.4857490000000  0.4947550000000 1.0
C      1  0.4525350000000  0.6039700000000  0.5252850000000 1.0
C      1  0.4504150000000  0.5236060000000  0.5446690000000 1.0
C      1  0.5174950000000  0.4861370000000  0.4476190000000 1.0
C      1  0.4581070000000  0.4309980000000  0.5339100000000 1.0
C      1  0.4093220000000  0.5217060000000  0.4285690000000 1.0
C      1  0.4901850000000  0.6074400000000  0.5770190000000 1.0
C      1  0.4708240000000  0.5764690000000  0.4652670000000 1.0
C      1  0.4816050000000  0.5166560000000  0.5778220000000 1.0
C      1  0.5022930000000  0.5411510000000  0.4817380000000 1.0
C      1  0.4936800000000  0.4279740000000  0.4991480000000 1.0
C      1  0.3910960000000  0.4788440000000  0.5444950000000 1.0
C      1  0.5759620000000  0.5070720000000  0.6027930000000 1.0
C      1  0.5438200000000  0.4121490000000  0.4857880000000 1.0
C      1  0.4911000000000  0.5153640000000  0.4126040000000 1.0
C      1  0.5464920000000  0.5229920000000  0.5680540000000 1.0
C      1  0.4823030000000  0.5227820000000  0.4395660000000 1.0
C      1  0.5682330000000  0.5611790000000  0.5515580000000 1.0
C      1  0.5646870000000  0.5034700000000  0.5779950000000 1.0
C      1  0.5513880000000  0.4596590000000  0.4124150000000 1.0
C      1  0.5134040000000  0.4590860000000  0.5847400000000 1.0
C      1  0.5366960000000  0.4373240000000  0.4271920000000 1.0
C      1  0.5966010000000  0.4875590000000  0.4947920000000 1.0
C      1  0.4879070000000  0.5661530000000  0.4876710000000 1.0
C      1  0.5415500000000  0.5555880000000  0.4259780000000 1.0
C      1  0.5645600000000  0.5027180000000  0.4244310000000 1.0
C      1  0.5040820000000  0.5294350000000  0.4564360000000 1.0
C      1  0.4469270000000  0.4871070000000  0.5507260000000 1.0
C      1  0.4026150000000  0.5226870000000  0.5544700000000 1.0
C      1  0.5905340000000  0.4595150000000  0.4408570000000 1.0
C      1  0.4905070000000  0.5533750000000  0.5395770000000 1.0
C      1  0.4669940000000  0.4981630000000  0.5104570000000 1.0
C      1  0.4767990000000  0.4392490000000  0.4796380000000 1.0
C      1  0.5670430000000  0.5197450000000  0.4721750000000 1.0
C      1  0.5018060000000  0.5378360000000  0.3988690000000 1.0
C      1  0.5108510000000  0.5320240000000  0.5316870000000 1.0
C      1  0.6331800000000  0.5434610000000  0.4944070000000 1.0
C      1  0.4475250000000  0.5781300000000  0.5142860000000 1.0
C      1  0.4603720000000  0.5049630000000  0.4441130000000 1.0
C      1  0.3936800000000  0.4991820000000  0.4710690000000 1.0
C      1  0.5497740000000  0.5630240000000  0.5969780000000 1.0
C      1  0.4772030000000  0.5532880000000  0.3945950000000 1.0
C      1  0.4284800000000  0.5380330000000  0.4144190000000 1.0
C      1  0.4489900000000  0.4639180000000  0.5678730000000 1.0
C      1  0.4356180000000  0.5081680000000  0.5942100000000 1.0
C      1  0.4212300000000  0.5483360000000  0.4872490000000 1.0
C      1  0.4033450000000  0.4787940000000  0.4510450000000 1.0
C      1  0.4860240000000  0.4880250000000  0.4071080000000 1.0
C      1  0.5529950000000  0.4248250000000  0.4523960000000 1.0
C      1  0.4451820000000  0.5050670000000  0.4685090000000 1.0
C      1  0.4563930000000  0.5262240000000  0.5132830000000 1.0
C      1  0.4984830000000  0.4578370000000  0.5388450000000 1.0
C      1  0.4507880000000  0.4801660000000  0.5245760000000 1.0
C      1  0.5387530000000  0.4932990000000  0.5022590000000 1.0
C      1  0.4944990000000  0.6138640000000  0.4988690000000 1.0
C      1  0.4710150000000  0.6199370000000  0.5107490000000 1.0
C      1  0.5512490000000  0.5671350000000  0.5057380000000 1.0
C      1  0.6060130000000  0.5454290000000  0.4960950000000 1.0
C      1  0.5225580000000  0.5178450000000  0.5535740000000 1.0
C      1  0.4124410000000  0.4427960000000  0.5175580000000 1.0
C      1  0.5357210000000  0.4423730000000  0.5771650000000 1.0
C      1  0.5069360000000  0.4692780000000  0.4025170000000 1.0
C      1  0.4595670000000  0.4536810000000  0.4273140000000 1.0
C      1  0.3917540000000  0.5068330000000  0.5323100000000 1.0
C      1  0.4980390000000  0.4656670000000  0.6077950000000 1.0
C      1  0.5284430000000  0.4187670000000  0.5617230000000 1.0
C      1  0.5824440000000  0.4296010000000  0.5111860000000 1.0
C      1  0.4372620000000  0.4423780000000  0.4424230000000 1.0
C      1  0.5105130000000  0.5768870000000  0.5410900000000 1.0
C      1  0.5203830000000  0.4275470000000  0.4908010000000 1.0
C      1  0.4478860000000  0.6103630000000  0.5521990000000 1.0
C      1  0.5088170000000  0.5945180000000  0.5627500000000 1.0
C      1  0.5903650000000  0.5618660000000  0.4785300000000 1.0
C      1  0.3990060000000  0.4808860000000  0.5719060000000 1.0
C      1  0.4386370000000  0.5259570000000  0.4881040000000 1.0
C      1  0.4709980000000  0.5358270000000  0.5593540000000 1.0
C      1  0.5075810000000  0.4428400000000  0.4171140000000 1.0
C      1  0.5901840000000  0.4499690000000  0.5310410000000 1.0
C      1  0.5066710000000  0.5883910000000  0.4965360000000 1.0
C      1  0.5290310000000  0.4531440000000  0.4825170000000 1.0
C      1  0.4310820000000  0.5746090000000  0.4904290000000 1.0
C      1  0.4438780000000  0.4143880000000  0.4476060000000 1.0
C      1  0.4350930000000  0.4257670000000  0.5177400000000 1.0
C      1  0.4814060000000  0.4335210000000  0.4238460000000 1.0
C      1  0.4641770000000  0.4814670000000  0.4253650000000 1.0
C      1  0.4641600000000  0.6129870000000  0.5734200000000 1.0
C      1  0.5796590000000  0.4371800000000  0.4568620000000 1.0
C      1  0.5544860000000  0.5145810000000  0.4482780000000 1.0
C      1  0.4773540000000  0.4831140000000  0.6118660000000 1.0
C      1  0.5762690000000  0.4679680000000  0.4901910000000 1.0
C      1  0.4354300000000  0.4058920000000  0.4977680000000 1.0
C      1  0.4690750000000  0.4093800000000  0.4338880000000 1.0
C      1  0.4447880000000  0.5840590000000  0.4673540000000 1.0
C      1  0.5585530000000  0.4128920000000  0.5123900000000 1.0
C      1  0.6158660000000  0.4877170000000  0.4741480000000 1.0
C      1  0.5932020000000  0.5015850000000  0.5205340000000 1.0
C      1  0.5041420000000  0.4736250000000  0.5617210000000 1.0
C      1  0.5031770000000  0.5015040000000  0.5661460000000 1.0
C      1  0.5491990000000  0.5743650000000  0.6204480000000 1.0
C      1  0.4248930000000  0.4618280000000  0.4589970000000 1.0
C      1  0.4642810000000  0.5042200000000  0.5974610000000 1.0
END
