TITL C-612602-9376-1080 0.114100913590001 125000 -698.222057739265 0 0 114 (C1) n - 1
REM
REM in /home/nfs/bkarasulu/CARBON/AIRSS/Generating-Clusters/TERSOFF/Only-C1/FIRE-HFTN
REM
REM
REM
REM
REM
REM ./C.cell (11c1c37f851c82e70ff6c80c92926a4b)
REM AIRSS Version 0.9.1 bugfix July 2018 build 013d7b7c2542+ Fri, 06 Jul 2018 19:26:36 +0100
REM compiler GCC version 9.2.1 20190827 (Red Hat 9.2.1-1)
REM options -cpp -mtune=generic -march=x86-64 -g -O0 -fpre-include=/usr/include/finclude/math-vector-fortran.h
REM seed 1679168550 -467442412 -1405859592 -563516849 846311656 1423599615 -493276377 -1660643823 -1414689553 -1560901082 1124888086 1499160961 -491635494 -192717140 -1899657127 -1955458244 990647292 314801744 1800908884 960307959 607132301 380319065 -2077485752 -1839390626 -2093643143 -1047711749 -1312166584 -1977633814 1246553520 1577739408 1119217061 1288968227 -1665591433
REM
CELL 1.54180   50.00000   50.00000   50.00000   90.00000   90.00000   90.00000
LATT -1
SFAC C  
C      1  0.4561810000000  0.4957340000000  0.5888950000000 1.0
C      1  0.4933520000000  0.5985690000000  0.5080400000000 1.0
C      1  0.4891140000000  0.5081630000000  0.3729000000000 1.0
C      1  0.4917980000000  0.5217140000000  0.4219630000000 1.0
C      1  0.4384820000000  0.5265560000000  0.5079690000000 1.0
C      1  0.4646480000000  0.4414560000000  0.4396390000000 1.0
C      1  0.4465650000000  0.5538950000000  0.5014290000000 1.0
C      1  0.4938630000000  0.4233370000000  0.5358410000000 1.0
C      1  0.5864240000000  0.5312600000000  0.5066820000000 1.0
C      1  0.5211310000000  0.4602640000000  0.4036950000000 1.0
C      1  0.5011420000000  0.5309890000000  0.5546520000000 1.0
C      1  0.4584860000000  0.5623980000000  0.4765120000000 1.0
C      1  0.4565910000000  0.4654850000000  0.5841870000000 1.0
C      1  0.5148930000000  0.4866200000000  0.5550390000000 1.0
C      1  0.5048930000000  0.5760390000000  0.5487310000000 1.0
C      1  0.4072910000000  0.4107630000000  0.5724380000000 1.0
C      1  0.4369620000000  0.4164100000000  0.5040690000000 1.0
C      1  0.5141970000000  0.5903160000000  0.5252040000000 1.0
C      1  0.5724820000000  0.4159840000000  0.5376700000000 1.0
C      1  0.5045770000000  0.5081000000000  0.3226660000000 1.0
C      1  0.4563240000000  0.5041060000000  0.5137830000000 1.0
C      1  0.4203400000000  0.4750090000000  0.5253670000000 1.0
C      1  0.6403100000000  0.5314990000000  0.5154660000000 1.0
C      1  0.5956970000000  0.4898600000000  0.4570070000000 1.0
C      1  0.5266470000000  0.5184760000000  0.5171800000000 1.0
C      1  0.4873490000000  0.4916080000000  0.4602620000000 1.0
C      1  0.4422130000000  0.5610900000000  0.5492210000000 1.0
C      1  0.5618890000000  0.4790520000000  0.4240700000000 1.0
C      1  0.4967830000000  0.4825050000000  0.5755380000000 1.0
C      1  0.5748210000000  0.4984880000000  0.4399370000000 1.0
C      1  0.4501190000000  0.4467580000000  0.4642780000000 1.0
C      1  0.5189340000000  0.5678420000000  0.5733460000000 1.0
C      1  0.5687900000000  0.5701240000000  0.4780860000000 1.0
C      1  0.5064000000000  0.4379980000000  0.5818250000000 1.0
C      1  0.5175700000000  0.4603480000000  0.5169440000000 1.0
C      1  0.5290130000000  0.5006650000000  0.6073690000000 1.0
C      1  0.5486350000000  0.4318540000000  0.4295180000000 1.0
C      1  0.5213830000000  0.5869910000000  0.4618540000000 1.0
C      1  0.5743820000000  0.5567750000000  0.5027320000000 1.0
C      1  0.5022950000000  0.4186940000000  0.5612370000000 1.0
C      1  0.5705300000000  0.4131950000000  0.5101830000000 1.0
C      1  0.4684170000000  0.5983020000000  0.4413860000000 1.0
C      1  0.5467360000000  0.5743840000000  0.5745280000000 1.0
C      1  0.4389490000000  0.4727130000000  0.4638790000000 1.0
C      1  0.3900250000000  0.3959670000000  0.5851730000000 1.0
C      1  0.5311580000000  0.5698940000000  0.5127000000000 1.0
C      1  0.5477990000000  0.4526970000000  0.5590690000000 1.0
C      1  0.6029430000000  0.4811420000000  0.4815110000000 1.0
C      1  0.4949300000000  0.5506910000000  0.5354470000000 1.0
C      1  0.4480120000000  0.4768000000000  0.5191140000000 1.0
C      1  0.6141430000000  0.5312440000000  0.5113330000000 1.0
C      1  0.4668010000000  0.5944150000000  0.5190300000000 1.0
C      1  0.4278220000000  0.3945670000000  0.4904690000000 1.0
C      1  0.4945910000000  0.4908520000000  0.4870870000000 1.0
C      1  0.4946930000000  0.4561870000000  0.4040740000000 1.0
C      1  0.5317770000000  0.4127270000000  0.4378960000000 1.0
C      1  0.4821120000000  0.5063680000000  0.3995170000000 1.0
C      1  0.4030690000000  0.4957350000000  0.5218710000000 1.0
C      1  0.5444120000000  0.5002540000000  0.5042280000000 1.0
C      1  0.4381520000000  0.5405800000000  0.5663080000000 1.0
C      1  0.4111030000000  0.5200210000000  0.5125850000000 1.0
C      1  0.4845840000000  0.5030050000000  0.5919710000000 1.0
C      1  0.3592800000000  0.4844090000000  0.4607930000000 1.0
C      1  0.5453400000000  0.4573140000000  0.4177830000000 1.0
C      1  0.5056240000000  0.4080030000000  0.4408940000000 1.0
C      1  0.4498160000000  0.5718130000000  0.5239480000000 1.0
C      1  0.4749440000000  0.5426970000000  0.4642320000000 1.0
C      1  0.4116060000000  0.4773540000000  0.4650040000000 1.0
C      1  0.4258580000000  0.4266240000000  0.5586880000000 1.0
C      1  0.4970240000000  0.5926440000000  0.4799760000000 1.0
C      1  0.5448720000000  0.5679690000000  0.4624980000000 1.0
C      1  0.4581120000000  0.4918320000000  0.4568630000000 1.0
C      1  0.5346940000000  0.4727260000000  0.4970540000000 1.0
C      1  0.5158580000000  0.5981120000000  0.4356380000000 1.0
C      1  0.5637050000000  0.5245200000000  0.4423070000000 1.0
C      1  0.4524490000000  0.4366650000000  0.4911900000000 1.0
C      1  0.5013260000000  0.5400800000000  0.4784140000000 1.0
C      1  0.5503760000000  0.4534230000000  0.4830190000000 1.0
C      1  0.4610310000000  0.4894450000000  0.4119380000000 1.0
C      1  0.4906840000000  0.6030760000000  0.4264210000000 1.0
C      1  0.4654910000000  0.4545350000000  0.5102140000000 1.0
C      1  0.4830200000000  0.5045090000000  0.5068430000000 1.0
C      1  0.4682090000000  0.5317550000000  0.4373990000000 1.0
C      1  0.5427560000000  0.5408630000000  0.4521510000000 1.0
C      1  0.5337800000000  0.4506720000000  0.5852370000000 1.0
C      1  0.4316090000000  0.4198760000000  0.5317960000000 1.0
C      1  0.4810190000000  0.4183210000000  0.4397380000000 1.0
C      1  0.4375800000000  0.4483050000000  0.5726340000000 1.0
C      1  0.4705920000000  0.5873630000000  0.4674800000000 1.0
C      1  0.5056010000000  0.5082330000000  0.4437190000000 1.0
C      1  0.4401020000000  0.5167900000000  0.5789340000000 1.0
C      1  0.5612050000000  0.5702870000000  0.5504410000000 1.0
C      1  0.5584820000000  0.5839480000000  0.5971970000000 1.0
C      1  0.4511260000000  0.5076030000000  0.4340930000000 1.0
C      1  0.5166900000000  0.5110770000000  0.5430350000000 1.0
C      1  0.5194600000000  0.5274040000000  0.4597030000000 1.0
C      1  0.5725660000000  0.5057520000000  0.5076070000000 1.0
C      1  0.4968260000000  0.5082840000000  0.3475560000000 1.0
C      1  0.3335320000000  0.4883520000000  0.4597290000000 1.0
C      1  0.5100370000000  0.5409100000000  0.5808210000000 1.0
C      1  0.5362630000000  0.4743210000000  0.6026120000000 1.0
C      1  0.6660830000000  0.5313380000000  0.5193740000000 1.0
C      1  0.3854620000000  0.4805320000000  0.4621750000000 1.0
C      1  0.4699720000000  0.4614460000000  0.4177380000000 1.0
C      1  0.5281580000000  0.4656850000000  0.5426920000000 1.0
C      1  0.5127280000000  0.5451130000000  0.5080310000000 1.0
C      1  0.5572840000000  0.5661380000000  0.5229630000000 1.0
C      1  0.4922270000000  0.4461530000000  0.5184630000000 1.0
C      1  0.5806940000000  0.4578090000000  0.5190450000000 1.0
C      1  0.5075650000000  0.5192560000000  0.5996140000000 1.0
C      1  0.4850630000000  0.4574280000000  0.5824590000000 1.0
C      1  0.5892280000000  0.4822510000000  0.5065350000000 1.0
C      1  0.5712550000000  0.4443590000000  0.5450020000000 1.0
C      1  0.5700130000000  0.4390850000000  0.4977060000000 1.0
END
