TITL C-612604-1799-330 -0.00605512620415415 125000 -273.074815761044 0 0 47 (C1) n - 1
REM
REM in /home/nfs/bkarasulu/CARBON/AIRSS/Generating-Clusters/TERSOFF/Only-C1/FIRE-HFTN
REM
REM
REM
REM
REM
REM ./C.cell (11c1c37f851c82e70ff6c80c92926a4b)
REM AIRSS Version 0.9.1 bugfix July 2018 build 013d7b7c2542+ Fri, 06 Jul 2018 19:26:36 +0100
REM compiler GCC version 9.2.1 20190827 (Red Hat 9.2.1-1)
REM options -cpp -mtune=generic -march=x86-64 -g -O0 -fpre-include=/usr/include/finclude/math-vector-fortran.h
REM seed 163917736 -585107291 -1289745221 1696418051 -1640260991 -291876855 2512702 -951422248 1646574237 -2108973142 -426435441 368772705 610088695 -1670654887 1493982512 -1759395562 1016536998 -2028038446 2081695816 -715609823 444533685 1687410158 2034956424 -887046483 -1410879946 1290577724 -555168031 365029596 -155570639 -837465599 -127727224 -1526855928 -1485001690
REM
CELL 1.54180   50.00000   50.00000   50.00000   90.00000   90.00000   90.00000
LATT -1
SFAC C  
C      1  0.4654950000000  0.5317470000000  0.5247620000000 1.0
C      1  0.4398960000000  0.4647390000000  0.5457570000000 1.0
C      1  0.5072250000000  0.4833190000000  0.5177240000000 1.0
C      1  0.5591640000000  0.4939180000000  0.4786860000000 1.0
C      1  0.4343800000000  0.5135340000000  0.4911800000000 1.0
C      1  0.5475570000000  0.4749020000000  0.4578960000000 1.0
C      1  0.4360050000000  0.4852280000000  0.4994170000000 1.0
C      1  0.5240350000000  0.5408390000000  0.4403220000000 1.0
C      1  0.5244500000000  0.4389580000000  0.5350670000000 1.0
C      1  0.5626060000000  0.5275600000000  0.5251730000000 1.0
C      1  0.4755960000000  0.4558280000000  0.4753890000000 1.0
C      1  0.5201690000000  0.5070520000000  0.5058310000000 1.0
C      1  0.5154050000000  0.5314100000000  0.5201930000000 1.0
C      1  0.5295430000000  0.5170540000000  0.4522050000000 1.0
C      1  0.5644200000000  0.4811420000000  0.5041590000000 1.0
C      1  0.4500430000000  0.5492130000000  0.4601060000000 1.0
C      1  0.4385510000000  0.5648820000000  0.4406270000000 1.0
C      1  0.5056790000000  0.4709230000000  0.5840740000000 1.0
C      1  0.4788490000000  0.4855790000000  0.5153520000000 1.0
C      1  0.5315070000000  0.4903760000000  0.4386110000000 1.0
C      1  0.4897520000000  0.5443320000000  0.5165610000000 1.0
C      1  0.5542570000000  0.4832080000000  0.5758520000000 1.0
C      1  0.5364020000000  0.5123950000000  0.4808810000000 1.0
C      1  0.4390050000000  0.5228170000000  0.4644690000000 1.0
C      1  0.5100330000000  0.4621190000000  0.5374580000000 1.0
C      1  0.4716180000000  0.5602570000000  0.4748810000000 1.0
C      1  0.4873020000000  0.4632550000000  0.4276210000000 1.0
C      1  0.4260670000000  0.4750380000000  0.5245150000000 1.0
C      1  0.5314520000000  0.4570180000000  0.4761810000000 1.0
C      1  0.5405250000000  0.5457390000000  0.5219570000000 1.0
C      1  0.5492700000000  0.4561060000000  0.5000510000000 1.0
C      1  0.5035920000000  0.4651050000000  0.4757360000000 1.0
C      1  0.5312340000000  0.4780510000000  0.5884860000000 1.0
C      1  0.5102610000000  0.4776270000000  0.4244110000000 1.0
C      1  0.5675410000000  0.4988450000000  0.5270380000000 1.0
C      1  0.5378820000000  0.5710490000000  0.5090720000000 1.0
C      1  0.5674750000000  0.4883290000000  0.5532040000000 1.0
C      1  0.4328660000000  0.5068620000000  0.4430370000000 1.0
C      1  0.4921150000000  0.4637670000000  0.5603970000000 1.0
C      1  0.4620140000000  0.4727130000000  0.4949460000000 1.0
C      1  0.4904060000000  0.5639170000000  0.4955270000000 1.0
C      1  0.4639000000000  0.4605350000000  0.5577170000000 1.0
C      1  0.4692160000000  0.5052930000000  0.5333640000000 1.0
C      1  0.4987310000000  0.4925300000000  0.4701580000000 1.0
C      1  0.4708070000000  0.4529910000000  0.4470780000000 1.0
C      1  0.4407060000000  0.5333180000000  0.5110860000000 1.0
C      1  0.5149960000000  0.5785810000000  0.4957890000000 1.0
END
