TITL C-612607-4507-1434 139238.322914051 125000 -969.771184657059 0 0 158 (C1) n - 1
REM
REM in /home/nfs/bkarasulu/CARBON/AIRSS/Generating-Clusters/TERSOFF/Only-C1/FIRE-HFTN
REM
REM
REM
REM
REM
REM ./C.cell (11c1c37f851c82e70ff6c80c92926a4b)
REM AIRSS Version 0.9.1 bugfix July 2018 build 013d7b7c2542+ Fri, 06 Jul 2018 19:26:36 +0100
REM compiler GCC version 9.2.1 20190827 (Red Hat 9.2.1-1)
REM options -cpp -mtune=generic -march=x86-64 -g -O0 -fpre-include=/usr/include/finclude/math-vector-fortran.h
REM seed 2114126831 -1086335634 -1209644034 1404201499 2109062204 1470304621 -173423995 -200497207 -1252554670 1406342930 1456639294 -1189785918 -237847436 -116885717 -1683749393 268122078 -1881749875 280663423 1259639127 -436767145 330461442 -1595578785 141069487 -1191195839 -1217484838 2059333100 -689145268 -731085084 -1990119976 -1303331638 -230652760 -825252677 -870978309
REM
CELL 1.54180   50.00000   50.00000   50.00000   90.00000   90.00000   90.00000
LATT -1
SFAC C  
C      1  0.4894410000000  0.5560830000000  0.5173560000000 1.0
C      1  0.4573910000000  0.6241700000000  0.4780480000000 1.0
C      1  0.5703880000000  0.4893400000000  0.5589660000000 1.0
C      1  0.4001300000000  0.4676600000000  0.5343140000000 1.0
C      1  0.3975950000000  0.4892760000000  0.4645670000000 1.0
C      1  0.5701080000000  0.5433350000000  0.4260540000000 1.0
C      1  0.5017710000000  0.4748200000000  0.5534190000000 1.0
C      1  0.4589320000000  0.5520420000000  0.5593440000000 1.0
C      1  0.5547520000000  0.4105010000000  0.4888300000000 1.0
C      1  0.5200280000000  0.5164340000000  0.4552160000000 1.0
C      1  0.5813650000000  0.4216180000000  0.4952130000000 1.0
C      1  0.4805480000000  0.5230170000000  0.6040120000000 1.0
C      1  0.5739650000000  0.4363440000000  0.5673110000000 1.0
C      1  0.5155820000000  0.5530590000000  0.5074550000000 1.0
C      1  0.4627160000000  0.4587070000000  0.4594840000000 1.0
C      1  0.4805000000000  0.5498350000000  0.5434740000000 1.0
C      1  0.5013020000000  0.5381480000000  0.5929850000000 1.0
C      1  0.4567020000000  0.5047800000000  0.5613030000000 1.0
C      1  0.5212280000000  0.4581930000000  0.5406940000000 1.0
C      1  0.4736640000000  0.4569770000000  0.5962450000000 1.0
C      1  0.5073400000000  0.4442770000000  0.4097800000000 1.0
C      1  0.5473610000000  0.4070380000000  0.4615600000000 1.0
C      1  0.6243540000000  0.4984910000000  0.4424840000000 1.0
C      1  0.6073420000000  0.5138670000000  0.4287400000000 1.0
C      1  0.3844640000000  0.5228140000000  0.4966420000000 1.0
C      1  0.4624580000000  0.4018580000000  0.5049420000000 1.0
C      1  0.4257990000000  0.4721290000000  0.4303660000000 1.0
C      1  0.4141920000000  0.5509460000000  0.4340350000000 1.0
C      1  0.5793610000000  0.5167220000000  0.4267340000000 1.0
C      1  0.4452050000000  0.3661450000000  0.4802860000000 1.0
C      1  0.5573180000000  0.4688490000000  0.4443240000000 1.0
C      1  0.5919580000000  0.5459670000000  0.4934270000000 1.0
C      1  0.4413610000000  0.3887230000000  0.4347670000000 1.0
C      1  0.4297310000000  0.4792840000000  0.5914260000000 1.0
C      1  0.5619520000000  0.5147640000000  0.6018210000000 1.0
C      1  0.4755560000000  0.4651390000000  0.5494640000000 1.0
C      1  0.4885170000000  0.5927960000000  0.5581800000000 1.0
C      1  0.5341560000000  0.4117660000000  0.5094430000000 1.0
C      1  0.5190250000000  0.4946380000000  0.5140640000000 1.0
C      1  0.4351080000000  0.6119290000000  0.4695960000000 1.0
C      1  0.4691810000000  0.5132300000000  0.3989560000000 1.0
C      1  0.5857430000000  0.4869590000000  0.4935710000000 1.0
C      1  0.4865180000000  0.5863370000000  0.5854180000000 1.0
C      1  0.5326460000000  0.5363530000000  0.5227750000000 1.0
C      1  0.5945740000000  0.4399670000000  0.4764430000000 1.0
C      1  0.4896260000000  0.6156690000000  0.5178940000000 1.0
C      1  0.4675700000000  0.5079520000000  0.5326280000000 1.0
C      1  0.5471250000000  0.4622140000000  0.4978230000000 1.0
C      1  0.4946940000000  0.4665580000000  0.4021040000000 1.0
C      1  0.4514310000000  0.5325090000000  0.4051370000000 1.0
C      1  0.5727350000000  0.5823910000000  0.5269130000000 1.0
C      1  0.4478270000000  0.4037640000000  0.3849780000000 1.0
C      1  0.5217360000000  0.4776350000000  0.5949980000000 1.0
C      1  0.4354860000000  0.5569320000000  0.5708210000000 1.0
C      1  0.5165260000000  0.5897370000000  0.5484650000000 1.0
C      1  0.5362440000000  0.5686370000000  0.5567390000000 1.0
C      1  0.5671780000000  0.4426550000000  0.4367530000000 1.0
C      1  0.5704540000000  0.5975930000000  0.4799100000000 1.0
C      1  0.4067040000000  0.4652860000000  0.4511810000000 1.0
C      1  0.4460130000000  0.5139460000000  0.5128720000000 1.0
C      1  0.4134420000000  0.4673320000000  0.3836680000000 1.0
C      1  0.5932360000000  0.4367560000000  0.4468970000000 1.0
C      1  0.5146930000000  0.5235210000000  0.5720910000000 1.0
C      1  0.4151400000000  0.4447910000000  0.4694220000000 1.0
C      1  0.4429240000000  0.5043770000000  0.4613200000000 1.0
C      1  0.5891150000000  0.5610990000000  0.5180920000000 1.0
C      1  0.5404480000000  0.6153060000000  0.5134220000000 1.0
C      1  0.5012980000000  0.4957140000000  0.4668420000000 1.0
C      1  0.5448240000000  0.4928680000000  0.6056180000000 1.0
C      1  0.5089570000000  0.5422540000000  0.4114490000000 1.0
C      1  0.5798090000000  0.4626120000000  0.5560120000000 1.0
C      1  0.4439280000000  0.4377300000000  0.4691140000000 1.0
C      1  0.4239800000000  0.5810150000000  0.5130110000000 1.0
C      1  0.4446070000000  0.3885100000000  0.4622160000000 1.0
C      1  0.4548100000000  0.3738210000000  0.5049920000000 1.0
C      1  0.5467920000000  0.4224600000000  0.4377230000000 1.0
C      1  0.6198550000000  0.4735530000000  0.4540550000000 1.0
C      1  0.5348550000000  0.5364750000000  0.5530150000000 1.0
C      1  0.6165600000000  0.4504460000000  0.4366210000000 1.0
C      1  0.4583310000000  0.5481560000000  0.4818220000000 1.0
C      1  0.4100890000000  0.5106620000000  0.4054120000000 1.0
C      1  0.5666970000000  0.5088030000000  0.4963940000000 1.0
C      1  0.4705670000000  0.6003120000000  0.5348650000000 1.0
C      1  0.5095130000000  0.5683410000000  0.3660010000000 1.0
C      1  0.4202570000000  0.5104480000000  0.5232420000000 1.0
C      1  0.4163390000000  0.4829030000000  0.4059080000000 1.0
C      1  0.4552270000000  0.4243740000000  0.5601220000000 1.0
C      1  0.5039140000000  0.4255750000000  0.5684310000000 1.0
C      1  0.4292800000000  0.4924890000000  0.5655820000000 1.0
C      1  0.4903890000000  0.4623630000000  0.4675270000000 1.0
C      1  0.5693580000000  0.4165590000000  0.5454310000000 1.0
C      1  0.4086930000000  0.4425650000000  0.5453830000000 1.0
C      1  0.4643170000000  0.4623470000000  0.5243490000000 1.0
C      1  0.5579950000000  0.5133490000000  0.5554680000000 1.0
C      1  0.5413350000000  0.5345480000000  0.4702040000000 1.0
C      1  0.5165990000000  0.6089030000000  0.5259600000000 1.0
C      1  0.6037850000000  0.4697300000000  0.4781320000000 1.0
C      1  0.5059750000000  0.5605030000000  0.4573850000000 1.0
C      1  0.4518970000000  0.4120560000000  0.4785590000000 1.0
C      1  0.3851820000000  0.5597380000000  0.5855880000000 1.0
C      1  0.6366010000000  0.5117140000000  0.5425840000000 1.0
C      1  0.4785420000000  0.6264470000000  0.4944390000000 1.0
C      1  0.4241940000000  0.5343990000000  0.4126280000000 1.0
C      1  0.4843720000000  0.4115100000000  0.5207220000000 1.0
C      1  0.4161310000000  0.5784130000000  0.4395960000000 1.0
C      1  0.3974470000000  0.5467790000000  0.4831440000000 1.0
C      1  0.4826830000000  0.4901270000000  0.3982020000000 1.0
C      1  0.5117160000000  0.4941680000000  0.5719590000000 1.0
C      1  0.4917230000000  0.5032840000000  0.5146690000000 1.0
C      1  0.5639290000000  0.4931590000000  0.4312990000000 1.0
C      1  0.4153780000000  0.5106200000000  0.4589210000000 1.0
C      1  0.4097320000000  0.5732540000000  0.4890940000000 1.0
C      1  0.5069730000000  0.5380830000000  0.4387760000000 1.0
C      1  0.5014920000000  0.4408070000000  0.4832250000000 1.0
C      1  0.4432340000000  0.3948250000000  0.4090380000000 1.0
C      1  0.5755100000000  0.5348310000000  0.5878430000000 1.0
C      1  0.5067790000000  0.4207490000000  0.5037710000000 1.0
C      1  0.5724490000000  0.4674750000000  0.5089140000000 1.0
C      1  0.5865310000000  0.4547930000000  0.5289020000000 1.0
C      1  0.4571230000000  0.4797150000000  0.6024000000000 1.0
C      1  0.3980610000000  0.4449060000000  0.4921830000000 1.0
C      1  0.5700940000000  0.5681230000000  0.4362770000000 1.0
C      1  0.4493030000000  0.4804380000000  0.4462780000000 1.0
C      1  0.5449490000000  0.4675670000000  0.4699070000000 1.0
C      1  0.3862520000000  0.4929020000000  0.4911380000000 1.0
C      1  0.5646280000000  0.5741460000000  0.5542260000000 1.0
C      1  0.6154440000000  0.5295340000000  0.5006920000000 1.0
C      1  0.5109870000000  0.5540840000000  0.3877880000000 1.0
C      1  0.4453850000000  0.4629440000000  0.5068600000000 1.0
C      1  0.3901560000000  0.4683210000000  0.5073640000000 1.0
C      1  0.4676440000000  0.5655420000000  0.5019550000000 1.0
C      1  0.5029470000000  0.4516920000000  0.5942200000000 1.0
C      1  0.4812220000000  0.4140620000000  0.5508500000000 1.0
C      1  0.5230630000000  0.5562470000000  0.4802480000000 1.0
C      1  0.5630580000000  0.6002080000000  0.5070570000000 1.0
C      1  0.4180490000000  0.5896670000000  0.4657300000000 1.0
C      1  0.6189960000000  0.5277800000000  0.5296130000000 1.0
C      1  0.5412440000000  0.5118980000000  0.5112290000000 1.0
C      1  0.5712820000000  0.5867960000000  0.4554330000000 1.0
C      1  0.4063260000000  0.5366660000000  0.4573280000000 1.0
C      1  0.4570150000000  0.5181860000000  0.4836800000000 1.0
C      1  0.6320510000000  0.4430840000000  0.4156450000000 1.0
C      1  0.4519960000000  0.5841750000000  0.5179580000000 1.0
C      1  0.4844260000000  0.5068450000000  0.4868860000000 1.0
C      1  0.5687980000000  0.5329070000000  0.4811070000000 1.0
C      1  0.5420360000000  0.4148270000000  0.5372940000000 1.0
C      1  0.5267940000000  0.4680150000000  0.5156290000000 1.0
C      1  0.5863870000000  0.4261630000000  0.5233950000000 1.0
C      1  0.6000190000000  0.5460090000000  0.5418200000000 1.0
C      1  0.4637340000000  0.4495820000000  0.5701300000000 1.0
C      1  0.5830170000000  0.5523020000000  0.5654440000000 1.0
C      1  0.4668540000000  0.5039770000000  0.5894160000000 1.0
C      1  0.4125550000000  0.4917060000000  0.5431200000000 1.0
C      1  0.4991180000000  0.5657390000000  0.5974420000000 1.0
C      1  0.4104530000000  0.5591620000000  0.5792250000000 1.0
C      1  0.4280960000000  0.4247530000000  0.5520650000000 1.0
C      1  0.5251620000000  0.4325940000000  0.5515270000000 1.0
C      1  0.5241690000000  0.4271270000000  0.4216190000000 1.0
END
