TITL C-612604-1799-549 -27542.6686115726 125000 -774.542365425369 0 0 129 (C1) n - 1
REM
REM in /home/nfs/bkarasulu/CARBON/AIRSS/Generating-Clusters/TERSOFF/Only-C1/FIRE-HFTN
REM
REM
REM
REM
REM
REM ./C.cell (11c1c37f851c82e70ff6c80c92926a4b)
REM AIRSS Version 0.9.1 bugfix July 2018 build 013d7b7c2542+ Fri, 06 Jul 2018 19:26:36 +0100
REM compiler GCC version 9.2.1 20190827 (Red Hat 9.2.1-1)
REM options -cpp -mtune=generic -march=x86-64 -g -O0 -fpre-include=/usr/include/finclude/math-vector-fortran.h
REM seed 1691842577 -389340548 -392181698 383917497 931079020 1313716781 -1877572026 -1378690355 -1838711008 -1748525560 -2127885143 1535608709 1370782482 -495354146 970062707 -1295934469 -2023679363 -1464719049 -777909320 -823277843 1260770462 -1658837778 192356932 1016996820 1034367517 -1982227939 -107079534 335621724 -1542046071 620880137 -1008931892 1007557764 1933108160
REM
CELL 1.54180   50.00000   50.00000   50.00000   90.00000   90.00000   90.00000
LATT -1
SFAC C  
C      1  0.5277600000000  0.5140340000000  0.4881910000000 1.0
C      1  0.4431580000000  0.5398050000000  0.4571410000000 1.0
C      1  0.4606160000000  0.4302130000000  0.4213360000000 1.0
C      1  0.4313450000000  0.5009170000000  0.5712650000000 1.0
C      1  0.4324450000000  0.4659400000000  0.4586970000000 1.0
C      1  0.6040260000000  0.4549720000000  0.4317390000000 1.0
C      1  0.4703630000000  0.3885870000000  0.5237050000000 1.0
C      1  0.6072270000000  0.5256910000000  0.4990310000000 1.0
C      1  0.4967170000000  0.4588520000000  0.4801050000000 1.0
C      1  0.4746940000000  0.5410540000000  0.5186910000000 1.0
C      1  0.4671570000000  0.3868530000000  0.4666720000000 1.0
C      1  0.4032150000000  0.5217480000000  0.5289430000000 1.0
C      1  0.4815400000000  0.4793950000000  0.4015770000000 1.0
C      1  0.4882780000000  0.4859640000000  0.4872620000000 1.0
C      1  0.5997770000000  0.4977110000000  0.4986950000000 1.0
C      1  0.4456050000000  0.5668830000000  0.4940850000000 1.0
C      1  0.4818190000000  0.5211560000000  0.3779890000000 1.0
C      1  0.5560550000000  0.5815720000000  0.5144370000000 1.0
C      1  0.4341570000000  0.5396910000000  0.4996500000000 1.0
C      1  0.5801190000000  0.5562460000000  0.4619100000000 1.0
C      1  0.4687600000000  0.4346450000000  0.5848710000000 1.0
C      1  0.4184180000000  0.4487450000000  0.5628800000000 1.0
C      1  0.5954930000000  0.4876760000000  0.5837010000000 1.0
C      1  0.4900080000000  0.5257760000000  0.4537930000000 1.0
C      1  0.4913440000000  0.6017890000000  0.5047990000000 1.0
C      1  0.4841480000000  0.5894090000000  0.5527830000000 1.0
C      1  0.5543870000000  0.5666540000000  0.5778360000000 1.0
C      1  0.4249360000000  0.5041970000000  0.4268360000000 1.0
C      1  0.4625670000000  0.4281990000000  0.5568540000000 1.0
C      1  0.5758760000000  0.5749560000000  0.5605890000000 1.0
C      1  0.4853070000000  0.3998690000000  0.4497260000000 1.0
C      1  0.4576010000000  0.5076210000000  0.5843320000000 1.0
C      1  0.6075900000000  0.4819760000000  0.4769050000000 1.0
C      1  0.4910410000000  0.5492690000000  0.5890360000000 1.0
C      1  0.5155070000000  0.5325600000000  0.5888270000000 1.0
C      1  0.5115720000000  0.5083540000000  0.5336820000000 1.0
C      1  0.5986410000000  0.5413220000000  0.4769400000000 1.0
C      1  0.4724240000000  0.5139090000000  0.4327280000000 1.0
C      1  0.4983300000000  0.4997340000000  0.3891120000000 1.0
C      1  0.5980790000000  0.4687190000000  0.5646680000000 1.0
C      1  0.5939680000000  0.4681510000000  0.5380710000000 1.0
C      1  0.4826380000000  0.4965330000000  0.5726430000000 1.0
C      1  0.4939190000000  0.3798580000000  0.5112350000000 1.0
C      1  0.4292810000000  0.4650660000000  0.5151470000000 1.0
C      1  0.4591900000000  0.5612350000000  0.4683380000000 1.0
C      1  0.5425880000000  0.5388030000000  0.4861030000000 1.0
C      1  0.4303640000000  0.4898580000000  0.4753320000000 1.0
C      1  0.4110340000000  0.4018170000000  0.4456740000000 1.0
C      1  0.4464950000000  0.4372150000000  0.3996000000000 1.0
C      1  0.4785390000000  0.4273890000000  0.4429050000000 1.0
C      1  0.5071080000000  0.5046140000000  0.5862030000000 1.0
C      1  0.4562950000000  0.4826380000000  0.3848650000000 1.0
C      1  0.4984970000000  0.4473220000000  0.5274480000000 1.0
C      1  0.4196510000000  0.4870730000000  0.5009150000000 1.0
C      1  0.4867310000000  0.5547550000000  0.4599180000000 1.0
C      1  0.4363160000000  0.5686290000000  0.5416370000000 1.0
C      1  0.4734270000000  0.4013310000000  0.5489400000000 1.0
C      1  0.4421270000000  0.4584130000000  0.3833280000000 1.0
C      1  0.5582440000000  0.4974200000000  0.5252310000000 1.0
C      1  0.6002160000000  0.5997680000000  0.4716430000000 1.0
C      1  0.5884220000000  0.5148950000000  0.5808010000000 1.0
C      1  0.5591500000000  0.5194210000000  0.5438690000000 1.0
C      1  0.4476700000000  0.5208730000000  0.4142250000000 1.0
C      1  0.4454380000000  0.3955940000000  0.5105600000000 1.0
C      1  0.5306380000000  0.4136080000000  0.4393240000000 1.0
C      1  0.4449040000000  0.3965550000000  0.4814990000000 1.0
C      1  0.6083080000000  0.4678380000000  0.4545100000000 1.0
C      1  0.5026980000000  0.5955870000000  0.4813400000000 1.0
C      1  0.4961680000000  0.5940810000000  0.4318940000000 1.0
C      1  0.4711130000000  0.4840080000000  0.4286070000000 1.0
C      1  0.4323970000000  0.4267490000000  0.5511600000000 1.0
C      1  0.4999510000000  0.5516330000000  0.5190510000000 1.0
C      1  0.4543090000000  0.5128140000000  0.3864210000000 1.0
C      1  0.4412890000000  0.4780750000000  0.4339830000000 1.0
C      1  0.3966190000000  0.5230350000000  0.4724550000000 1.0
C      1  0.4262750000000  0.4405850000000  0.4719500000000 1.0
C      1  0.6081480000000  0.5998940000000  0.4972950000000 1.0
C      1  0.4845910000000  0.4530910000000  0.6318310000000 1.0
C      1  0.5242610000000  0.4398520000000  0.4440540000000 1.0
C      1  0.4665270000000  0.5337890000000  0.5953380000000 1.0
C      1  0.5825380000000  0.5848460000000  0.4559030000000 1.0
C      1  0.5314850000000  0.4988750000000  0.5136080000000 1.0
C      1  0.5215240000000  0.4185350000000  0.4974280000000 1.0
C      1  0.4578780000000  0.5228730000000  0.5038120000000 1.0
C      1  0.5122170000000  0.3936650000000  0.4428800000000 1.0
C      1  0.6195070000000  0.5372930000000  0.5221540000000 1.0
C      1  0.3964280000000  0.3915610000000  0.4266860000000 1.0
C      1  0.6025030000000  0.5876700000000  0.5217130000000 1.0
C      1  0.5434180000000  0.5403250000000  0.5838380000000 1.0
C      1  0.4677590000000  0.5319090000000  0.5450230000000 1.0
C      1  0.4700590000000  0.4930690000000  0.5133790000000 1.0
C      1  0.4744830000000  0.5940710000000  0.5260870000000 1.0
C      1  0.4833850000000  0.5035280000000  0.5431240000000 1.0
C      1  0.5563230000000  0.5927600000000  0.4463660000000 1.0
C      1  0.4891510000000  0.5430100000000  0.3638550000000 1.0
C      1  0.4207320000000  0.4745030000000  0.5709050000000 1.0
C      1  0.4271190000000  0.4082860000000  0.5293650000000 1.0
C      1  0.4071200000000  0.5295990000000  0.5001950000000 1.0
C      1  0.4557750000000  0.4682540000000  0.5238850000000 1.0
C      1  0.5831780000000  0.4858180000000  0.5188200000000 1.0
C      1  0.5174590000000  0.5367430000000  0.5349330000000 1.0
C      1  0.4892180000000  0.5736660000000  0.5742600000000 1.0
C      1  0.4272630000000  0.4129760000000  0.4653480000000 1.0
C      1  0.4979220000000  0.4464230000000  0.4539240000000 1.0
C      1  0.4723810000000  0.4494240000000  0.5375650000000 1.0
C      1  0.4494750000000  0.5812440000000  0.5190930000000 1.0
C      1  0.5875940000000  0.4328480000000  0.3869900000000 1.0
C      1  0.5063470000000  0.5785990000000  0.4563020000000 1.0
C      1  0.6136780000000  0.5639270000000  0.5330430000000 1.0
C      1  0.4214840000000  0.5213880000000  0.5522860000000 1.0
C      1  0.5357970000000  0.5726460000000  0.4517690000000 1.0
C      1  0.5513890000000  0.5502780000000  0.4622140000000 1.0
C      1  0.4760710000000  0.4424950000000  0.6090790000000 1.0
C      1  0.5156040000000  0.3927290000000  0.5019530000000 1.0
C      1  0.4414260000000  0.5421830000000  0.5511370000000 1.0
C      1  0.4211840000000  0.4431050000000  0.4998800000000 1.0
C      1  0.4937250000000  0.4646800000000  0.6533220000000 1.0
C      1  0.5964380000000  0.4434440000000  0.4091080000000 1.0
C      1  0.6010490000000  0.5594570000000  0.5602030000000 1.0
C      1  0.6075850000000  0.5323400000000  0.5688630000000 1.0
C      1  0.5756670000000  0.5886120000000  0.5337800000000 1.0
C      1  0.5617950000000  0.5205760000000  0.5722500000000 1.0
C      1  0.5446220000000  0.5410990000000  0.5331560000000 1.0
C      1  0.5079920000000  0.4428750000000  0.5014200000000 1.0
C      1  0.4030040000000  0.5145180000000  0.4457440000000 1.0
C      1  0.6234360000000  0.5218220000000  0.5465720000000 1.0
C      1  0.5499880000000  0.5545320000000  0.5093370000000 1.0
C      1  0.4415640000000  0.5138570000000  0.4656400000000 1.0
C      1  0.5026570000000  0.5085350000000  0.4744420000000 1.0
END
