TITL C-612605-9286-422 0.00431827373455458 125000 -411.529821265441 0 0 68 (C1) n - 1
REM
REM in /home/nfs/bkarasulu/CARBON/AIRSS/Generating-Clusters/TERSOFF/Only-C1/FIRE-HFTN
REM
REM
REM
REM
REM
REM ./C.cell (11c1c37f851c82e70ff6c80c92926a4b)
REM AIRSS Version 0.9.1 bugfix July 2018 build 013d7b7c2542+ Fri, 06 Jul 2018 19:26:36 +0100
REM compiler GCC version 9.2.1 20190827 (Red Hat 9.2.1-1)
REM options -cpp -mtune=generic -march=x86-64 -g -O0 -fpre-include=/usr/include/finclude/math-vector-fortran.h
REM seed 1960993210 -729506961 -1168390919 -1060506219 -959361001 2141464755 427644864 -799462529 -1435735324 1898374942 -833617081 134163335 -1508780134 1137773090 1479260674 -629857375 -1504647529 1771889641 -11645749 -342677467 1941614726 1892405140 319818078 -1823570608 -775509596 -1018039806 200414240 -752542204 844193210 88020624 1081934146 -739199650 1258073129
REM
CELL 1.54180   50.00000   50.00000   50.00000   90.00000   90.00000   90.00000
LATT -1
SFAC C  
C      1  0.5162920000000  0.4821950000000  0.4071030000000 1.0
C      1  0.5768810000000  0.4731820000000  0.4716580000000 1.0
C      1  0.5087450000000  0.4891520000000  0.5381640000000 1.0
C      1  0.4187800000000  0.5091380000000  0.4437840000000 1.0
C      1  0.4593720000000  0.4380840000000  0.5174570000000 1.0
C      1  0.4717280000000  0.4398560000000  0.5429600000000 1.0
C      1  0.5413360000000  0.5035090000000  0.4766000000000 1.0
C      1  0.4266320000000  0.5432450000000  0.5366370000000 1.0
C      1  0.5294440000000  0.5251380000000  0.4298560000000 1.0
C      1  0.5475750000000  0.5330280000000  0.5104920000000 1.0
C      1  0.5227300000000  0.4556290000000  0.4620120000000 1.0
C      1  0.5747930000000  0.5276130000000  0.5891190000000 1.0
C      1  0.4478060000000  0.4609560000000  0.5043420000000 1.0
C      1  0.4152680000000  0.5275950000000  0.5158370000000 1.0
C      1  0.3970520000000  0.4976290000000  0.4351500000000 1.0
C      1  0.5098520000000  0.5598360000000  0.5410420000000 1.0
C      1  0.5499810000000  0.5584160000000  0.5189980000000 1.0
C      1  0.4977800000000  0.5181660000000  0.4883610000000 1.0
C      1  0.5052130000000  0.4631860000000  0.5763530000000 1.0
C      1  0.5690620000000  0.4999050000000  0.4776940000000 1.0
C      1  0.5185260000000  0.4860640000000  0.5662160000000 1.0
C      1  0.4485460000000  0.5184090000000  0.4820270000000 1.0
C      1  0.4809520000000  0.5591430000000  0.5413310000000 1.0
C      1  0.4693220000000  0.5597380000000  0.4962460000000 1.0
C      1  0.5325390000000  0.5123590000000  0.5690910000000 1.0
C      1  0.5528210000000  0.4659540000000  0.5152060000000 1.0
C      1  0.4624980000000  0.4045730000000  0.4761220000000 1.0
C      1  0.6003180000000  0.5601190000000  0.6215950000000 1.0
C      1  0.5169210000000  0.5741410000000  0.4901410000000 1.0
C      1  0.5179480000000  0.5327720000000  0.5527400000000 1.0
C      1  0.4354110000000  0.5022700000000  0.5614060000000 1.0
C      1  0.4729440000000  0.5323800000000  0.4896350000000 1.0
C      1  0.5711740000000  0.4749490000000  0.5347500000000 1.0
C      1  0.4421620000000  0.5200670000000  0.4541950000000 1.0
C      1  0.4755170000000  0.4184320000000  0.4279350000000 1.0
C      1  0.4853420000000  0.5435630000000  0.4346560000000 1.0
C      1  0.4553410000000  0.4646810000000  0.4776020000000 1.0
C      1  0.4636030000000  0.5704950000000  0.5218450000000 1.0
C      1  0.4959900000000  0.4517050000000  0.4531470000000 1.0
C      1  0.5608590000000  0.4856870000000  0.4254500000000 1.0
C      1  0.5010330000000  0.4597500000000  0.4074410000000 1.0
C      1  0.5762120000000  0.4713270000000  0.4429010000000 1.0
C      1  0.5608710000000  0.5112070000000  0.5715220000000 1.0
C      1  0.5274990000000  0.5216770000000  0.4938830000000 1.0
C      1  0.4293650000000  0.4826230000000  0.5439230000000 1.0
C      1  0.4905160000000  0.4422730000000  0.4271600000000 1.0
C      1  0.4869540000000  0.4472050000000  0.5639910000000 1.0
C      1  0.5423000000000  0.4404810000000  0.4750150000000 1.0
C      1  0.4307450000000  0.5078830000000  0.5020580000000 1.0
C      1  0.4340350000000  0.4825480000000  0.5160210000000 1.0
C      1  0.4447380000000  0.5275840000000  0.5533100000000 1.0
C      1  0.5252930000000  0.4741270000000  0.5202610000000 1.0
C      1  0.4791080000000  0.4715340000000  0.4654840000000 1.0
C      1  0.5246180000000  0.5713080000000  0.5183260000000 1.0
C      1  0.5876750000000  0.5439620000000  0.6055090000000 1.0
C      1  0.4959920000000  0.4932890000000  0.4732130000000 1.0
C      1  0.5180960000000  0.5631910000000  0.4647790000000 1.0
C      1  0.5232390000000  0.4841160000000  0.4674400000000 1.0
C      1  0.5739090000000  0.4924850000000  0.5548390000000 1.0
C      1  0.5620020000000  0.4551610000000  0.4894280000000 1.0
C      1  0.5361140000000  0.4989270000000  0.4192580000000 1.0
C      1  0.4615850000000  0.4151620000000  0.5008040000000 1.0
C      1  0.5126130000000  0.5451270000000  0.4424730000000 1.0
C      1  0.4722020000000  0.5315390000000  0.5476200000000 1.0
C      1  0.4362620000000  0.5691980000000  0.5298760000000 1.0
C      1  0.4952130000000  0.5149220000000  0.5412750000000 1.0
C      1  0.4608850000000  0.5333010000000  0.4377810000000 1.0
C      1  0.4658730000000  0.4051340000000  0.4494570000000 1.0
END
