TITL C-612600-6631-367 0.000675191847036717 125000 -481.361096435275 0 0 79 (C1) n - 1
REM
REM in /home/nfs/bkarasulu/CARBON/AIRSS/Generating-Clusters/TERSOFF/Only-C1/FIRE-HFTN
REM
REM
REM
REM
REM
REM ./C.cell (11c1c37f851c82e70ff6c80c92926a4b)
REM AIRSS Version 0.9.1 bugfix July 2018 build 013d7b7c2542+ Fri, 06 Jul 2018 19:26:36 +0100
REM compiler GCC version 9.2.1 20190827 (Red Hat 9.2.1-1)
REM options -cpp -mtune=generic -march=x86-64 -g -O0 -fpre-include=/usr/include/finclude/math-vector-fortran.h
REM seed 156469997 2142742129 -1175762825 -1447817909 262132641 1841990720 1714475403 1119455380 243563127 1853481669 -1665891716 -766577522 -1428157576 -2000367968 168222810 -1113136550 1879579814 -396831588 -1706971260 432254936 867083 -283011982 -1699403284 -1668274232 21927656 96841271 -487921823 -186698292 442831322 -1176878517 580877233 1219665615 -236468444
REM
CELL 1.54180   50.00000   50.00000   50.00000   90.00000   90.00000   90.00000
LATT -1
SFAC C  
C      1  0.5242820000000  0.4831990000000  0.4401960000000 1.0
C      1  0.4577190000000  0.4890040000000  0.4280140000000 1.0
C      1  0.5182560000000  0.5718240000000  0.4879400000000 1.0
C      1  0.5576000000000  0.4212960000000  0.4481200000000 1.0
C      1  0.5150230000000  0.5254440000000  0.4178860000000 1.0
C      1  0.4907770000000  0.5146580000000  0.4746650000000 1.0
C      1  0.4850360000000  0.4700950000000  0.5853740000000 1.0
C      1  0.5321920000000  0.5012580000000  0.4607630000000 1.0
C      1  0.5284860000000  0.4702630000000  0.5691430000000 1.0
C      1  0.5281930000000  0.5152510000000  0.5148780000000 1.0
C      1  0.4937840000000  0.4989300000000  0.5806990000000 1.0
C      1  0.5310430000000  0.4611790000000  0.5087040000000 1.0
C      1  0.4286250000000  0.5019310000000  0.4681820000000 1.0
C      1  0.5171590000000  0.5527960000000  0.4665990000000 1.0
C      1  0.4906380000000  0.5410470000000  0.4145980000000 1.0
C      1  0.5121800000000  0.5266300000000  0.5314840000000 1.0
C      1  0.5162110000000  0.5238080000000  0.4686070000000 1.0
C      1  0.5414110000000  0.5348500000000  0.4294080000000 1.0
C      1  0.4821740000000  0.4882410000000  0.4167400000000 1.0
C      1  0.4690790000000  0.5121030000000  0.5711520000000 1.0
C      1  0.4541290000000  0.5389070000000  0.5017690000000 1.0
C      1  0.4596610000000  0.4415940000000  0.4634680000000 1.0
C      1  0.4472730000000  0.4952350000000  0.5796040000000 1.0
C      1  0.4455180000000  0.4579320000000  0.4790660000000 1.0
C      1  0.5515130000000  0.4720540000000  0.5524210000000 1.0
C      1  0.4416690000000  0.5071150000000  0.4426320000000 1.0
C      1  0.5234560000000  0.4550510000000  0.4428140000000 1.0
C      1  0.4494070000000  0.3978390000000  0.5970480000000 1.0
C      1  0.5037220000000  0.4667850000000  0.5145180000000 1.0
C      1  0.4552810000000  0.4923330000000  0.5127060000000 1.0
C      1  0.4539780000000  0.5200380000000  0.5236430000000 1.0
C      1  0.5635800000000  0.5581910000000  0.5002190000000 1.0
C      1  0.4684230000000  0.5278770000000  0.5476130000000 1.0
C      1  0.5520400000000  0.5404390000000  0.5727090000000 1.0
C      1  0.4562620000000  0.4690960000000  0.5877030000000 1.0
C      1  0.5077160000000  0.4255980000000  0.5783970000000 1.0
C      1  0.4923650000000  0.5824790000000  0.4953660000000 1.0
C      1  0.5383140000000  0.4449080000000  0.4872600000000 1.0
C      1  0.5530080000000  0.4068520000000  0.4258510000000 1.0
C      1  0.5592770000000  0.5383670000000  0.4510910000000 1.0
C      1  0.4997730000000  0.5703210000000  0.5433990000000 1.0
C      1  0.5506340000000  0.5596600000000  0.5521410000000 1.0
C      1  0.5320180000000  0.4077340000000  0.4090440000000 1.0
C      1  0.4031200000000  0.5455560000000  0.4794790000000 1.0
C      1  0.4406610000000  0.4475140000000  0.5951760000000 1.0
C      1  0.5672370000000  0.4959210000000  0.5614820000000 1.0
C      1  0.4467230000000  0.5646000000000  0.4914790000000 1.0
C      1  0.4682060000000  0.5255180000000  0.4815460000000 1.0
C      1  0.4916250000000  0.4227720000000  0.3866730000000 1.0
C      1  0.5722600000000  0.4934590000000  0.5139060000000 1.0
C      1  0.5026580000000  0.4387190000000  0.4315120000000 1.0
C      1  0.4967980000000  0.4017490000000  0.5829970000000 1.0
C      1  0.4790480000000  0.4770180000000  0.5180790000000 1.0
C      1  0.4787830000000  0.4356980000000  0.4459280000000 1.0
C      1  0.5082100000000  0.4228920000000  0.4083440000000 1.0
C      1  0.5836210000000  0.5028750000000  0.5391260000000 1.0
C      1  0.4690910000000  0.5771600000000  0.4776860000000 1.0
C      1  0.4740840000000  0.3897840000000  0.5904530000000 1.0
C      1  0.5416970000000  0.4412370000000  0.4599610000000 1.0
C      1  0.5524180000000  0.4728880000000  0.5232260000000 1.0
C      1  0.5089440000000  0.4968870000000  0.4202910000000 1.0
C      1  0.4368600000000  0.4213910000000  0.5987670000000 1.0
C      1  0.5446110000000  0.5783700000000  0.4940170000000 1.0
C      1  0.4193030000000  0.5664670000000  0.4852800000000 1.0
C      1  0.4675880000000  0.5508910000000  0.4299500000000 1.0
C      1  0.4407090000000  0.4843420000000  0.4881250000000 1.0
C      1  0.4760170000000  0.5705230000000  0.4496690000000 1.0
C      1  0.5266290000000  0.5749560000000  0.5517230000000 1.0
C      1  0.5226120000000  0.4987260000000  0.5777640000000 1.0
C      1  0.5667060000000  0.5564280000000  0.5286130000000 1.0
C      1  0.5046910000000  0.5687530000000  0.4465210000000 1.0
C      1  0.4922690000000  0.5427540000000  0.5425510000000 1.0
C      1  0.4072790000000  0.5193370000000  0.4748200000000 1.0
C      1  0.5736550000000  0.5107890000000  0.4914850000000 1.0
C      1  0.4890110000000  0.5867880000000  0.5231220000000 1.0
C      1  0.4453720000000  0.5341170000000  0.4341430000000 1.0
C      1  0.5676560000000  0.5366770000000  0.4800260000000 1.0
C      1  0.5478190000000  0.5129480000000  0.5749420000000 1.0
C      1  0.5071460000000  0.4532890000000  0.5775030000000 1.0
END
