TITL C-612600-6631-978 -0.043393727040634 125000 -210.224564020648 0 0 35 (C1) n - 1
REM
REM in /home/nfs/bkarasulu/CARBON/AIRSS/Generating-Clusters/TERSOFF/Only-C1/FIRE-HFTN
REM
REM
REM
REM
REM
REM ./C.cell (11c1c37f851c82e70ff6c80c92926a4b)
REM AIRSS Version 0.9.1 bugfix July 2018 build 013d7b7c2542+ Fri, 06 Jul 2018 19:26:36 +0100
REM compiler GCC version 9.2.1 20190827 (Red Hat 9.2.1-1)
REM options -cpp -mtune=generic -march=x86-64 -g -O0 -fpre-include=/usr/include/finclude/math-vector-fortran.h
REM seed -42864587 1631208957 1394675563 -337389897 -894270124 -1721657280 1892956423 1566368559 20151785 1549399984 1252784556 1717500868 1187808706 1054532562 343033908 14360669 375505434 400035522 1717976272 1933665891 -1928292193 -1564002492 -174138304 207488302 -314742240 -1536343446 -648684857 -686108371 -216649809 -948076148 -127492381 -213405114 312501167
REM
CELL 1.54180   50.00000   50.00000   50.00000   90.00000   90.00000   90.00000
LATT -1
SFAC C  
C      1  0.4997610000000  0.4144230000000  0.5001080000000 1.0
C      1  0.5010980000000  0.4964820000000  0.4471300000000 1.0
C      1  0.5169770000000  0.5087110000000  0.5751250000000 1.0
C      1  0.5068940000000  0.4229390000000  0.5244160000000 1.0
C      1  0.4940800000000  0.3930730000000  0.4402280000000 1.0
C      1  0.4975560000000  0.5884120000000  0.5288760000000 1.0
C      1  0.4877710000000  0.4550620000000  0.4184090000000 1.0
C      1  0.4771620000000  0.5769510000000  0.5135120000000 1.0
C      1  0.4855030000000  0.4167620000000  0.4503600000000 1.0
C      1  0.4873050000000  0.4745290000000  0.4905460000000 1.0
C      1  0.5591210000000  0.5268910000000  0.5153310000000 1.0
C      1  0.5059960000000  0.4454590000000  0.5386680000000 1.0
C      1  0.5579750000000  0.5496550000000  0.5290080000000 1.0
C      1  0.4769110000000  0.5805430000000  0.4857190000000 1.0
C      1  0.4656110000000  0.5042190000000  0.5227410000000 1.0
C      1  0.4992870000000  0.4726540000000  0.5386780000000 1.0
C      1  0.4739600000000  0.4518380000000  0.4802860000000 1.0
C      1  0.4885400000000  0.5486710000000  0.4469940000000 1.0
C      1  0.4583350000000  0.4530390000000  0.4559810000000 1.0
C      1  0.4956810000000  0.5235290000000  0.4423890000000 1.0
C      1  0.5088410000000  0.4895600000000  0.5587350000000 1.0
C      1  0.4725900000000  0.4383160000000  0.4351390000000 1.0
C      1  0.5066130000000  0.4880210000000  0.4739850000000 1.0
C      1  0.5449730000000  0.5713440000000  0.5372680000000 1.0
C      1  0.5242930000000  0.5292370000000  0.5902130000000 1.0
C      1  0.5314240000000  0.5498710000000  0.6044610000000 1.0
C      1  0.5226560000000  0.5858510000000  0.5374010000000 1.0
C      1  0.4620710000000  0.5558020000000  0.5240370000000 1.0
C      1  0.4871050000000  0.4254900000000  0.4779560000000 1.0
C      1  0.4996880000000  0.4780360000000  0.4258810000000 1.0
C      1  0.5314730000000  0.4945950000000  0.4851970000000 1.0
C      1  0.5494180000000  0.5077570000000  0.4996640000000 1.0
C      1  0.4815230000000  0.5694600000000  0.4619790000000 1.0
C      1  0.4584200000000  0.5295530000000  0.5261690000000 1.0
C      1  0.4833860000000  0.4832670000000  0.5174100000000 1.0
END
