TITL C-612606-7351-910 0.000107182442113387 125000 -461.789575102299 0 0 77 (C1) n - 1
REM
REM in /home/nfs/bkarasulu/CARBON/AIRSS/Generating-Clusters/TERSOFF/Only-C1/FIRE-HFTN
REM
REM
REM
REM
REM
REM ./C.cell (11c1c37f851c82e70ff6c80c92926a4b)
REM AIRSS Version 0.9.1 bugfix July 2018 build 013d7b7c2542+ Fri, 06 Jul 2018 19:26:36 +0100
REM compiler GCC version 9.2.1 20190827 (Red Hat 9.2.1-1)
REM options -cpp -mtune=generic -march=x86-64 -g -O0 -fpre-include=/usr/include/finclude/math-vector-fortran.h
REM seed 767847202 -1234548743 928023378 1423871035 461462371 1211289117 1486656878 -459776351 1881098010 -1236642415 -549707106 1514207231 1337913116 -3234837 -950203931 1934161845 -2011474465 690016293 -1345343725 -515163787 606850033 -1155040640 -312513910 -1610863089 -2028716397 -1457711955 409128630 1015045472 -1610217884 -518097680 -194223208 -240943633 679894411
REM
CELL 1.54180   50.00000   50.00000   50.00000   90.00000   90.00000   90.00000
LATT -1
SFAC C  
C      1  0.3922280000000  0.5716010000000  0.4710050000000 1.0
C      1  0.5161520000000  0.4147320000000  0.5270570000000 1.0
C      1  0.4810890000000  0.4629620000000  0.5792570000000 1.0
C      1  0.4741780000000  0.5091680000000  0.5045230000000 1.0
C      1  0.4584420000000  0.5193850000000  0.4129740000000 1.0
C      1  0.5079630000000  0.4923580000000  0.5457570000000 1.0
C      1  0.5660140000000  0.4588300000000  0.5203050000000 1.0
C      1  0.4458890000000  0.4309800000000  0.5147090000000 1.0
C      1  0.4094910000000  0.5557880000000  0.4567530000000 1.0
C      1  0.5364320000000  0.5071880000000  0.4010750000000 1.0
C      1  0.4350710000000  0.4776870000000  0.4921740000000 1.0
C      1  0.5855140000000  0.4674780000000  0.5021600000000 1.0
C      1  0.4855260000000  0.4665230000000  0.4975800000000 1.0
C      1  0.5120480000000  0.5016150000000  0.5728950000000 1.0
C      1  0.5725580000000  0.5307380000000  0.5360440000000 1.0
C      1  0.5330160000000  0.4161590000000  0.5048900000000 1.0
C      1  0.5647040000000  0.5575280000000  0.5260090000000 1.0
C      1  0.5290680000000  0.4902270000000  0.4988750000000 1.0
C      1  0.5366220000000  0.5645640000000  0.4554760000000 1.0
C      1  0.4936030000000  0.4228210000000  0.4791120000000 1.0
C      1  0.4946760000000  0.5482970000000  0.4766240000000 1.0
C      1  0.4230540000000  0.5200150000000  0.5223150000000 1.0
C      1  0.4305900000000  0.5023500000000  0.5412460000000 1.0
C      1  0.5344940000000  0.4481310000000  0.4590380000000 1.0
C      1  0.5177040000000  0.5390990000000  0.5160390000000 1.0
C      1  0.5247910000000  0.4702290000000  0.5411150000000 1.0
C      1  0.4995310000000  0.4831470000000  0.4567140000000 1.0
C      1  0.5374700000000  0.4274440000000  0.4801090000000 1.0
C      1  0.5237710000000  0.5814350000000  0.4964160000000 1.0
C      1  0.5059060000000  0.4553460000000  0.4483410000000 1.0
C      1  0.4640200000000  0.5054790000000  0.5767340000000 1.0
C      1  0.5843410000000  0.5173360000000  0.5126480000000 1.0
C      1  0.5376340000000  0.5140750000000  0.5748460000000 1.0
C      1  0.4582880000000  0.5109530000000  0.4395910000000 1.0
C      1  0.4268670000000  0.5560160000000  0.4068630000000 1.0
C      1  0.5109670000000  0.5546890000000  0.4537160000000 1.0
C      1  0.5573710000000  0.4672180000000  0.4583570000000 1.0
C      1  0.5402620000000  0.4720070000000  0.5168620000000 1.0
C      1  0.4486000000000  0.4882880000000  0.5579750000000 1.0
C      1  0.5492050000000  0.5737960000000  0.5429950000000 1.0
C      1  0.4881680000000  0.4910650000000  0.5855540000000 1.0
C      1  0.5968320000000  0.4923790000000  0.5094080000000 1.0
C      1  0.4811150000000  0.5551730000000  0.5732770000000 1.0
C      1  0.4443000000000  0.4298330000000  0.4867850000000 1.0
C      1  0.5684350000000  0.5156130000000  0.4653710000000 1.0
C      1  0.4619850000000  0.4827560000000  0.4998210000000 1.0
C      1  0.4639590000000  0.4379630000000  0.5378180000000 1.0
C      1  0.5475460000000  0.5008160000000  0.4237700000000 1.0
C      1  0.5068450000000  0.4809480000000  0.4847710000000 1.0
C      1  0.5405710000000  0.4533520000000  0.5586140000000 1.0
C      1  0.5469380000000  0.5730330000000  0.4810590000000 1.0
C      1  0.4339100000000  0.5113920000000  0.4550720000000 1.0
C      1  0.4895740000000  0.5067010000000  0.5289480000000 1.0
C      1  0.4224080000000  0.5337180000000  0.4694170000000 1.0
C      1  0.5798830000000  0.4610570000000  0.4750970000000 1.0
C      1  0.4140860000000  0.5614110000000  0.4296610000000 1.0
C      1  0.5591530000000  0.5207700000000  0.5593040000000 1.0
C      1  0.4455490000000  0.5384030000000  0.3991600000000 1.0
C      1  0.5058190000000  0.5596430000000  0.5008410000000 1.0
C      1  0.4611670000000  0.4601830000000  0.5572360000000 1.0
C      1  0.5574090000000  0.4946690000000  0.4491680000000 1.0
C      1  0.5646990000000  0.4469350000000  0.5464800000000 1.0
C      1  0.4151570000000  0.4677610000000  0.5081820000000 1.0
C      1  0.4840180000000  0.4355180000000  0.4550610000000 1.0
C      1  0.5655550000000  0.5575130000000  0.4962390000000 1.0
C      1  0.5029730000000  0.5694250000000  0.5673940000000 1.0
C      1  0.4816060000000  0.5059100000000  0.4550680000000 1.0
C      1  0.4274930000000  0.4864760000000  0.4665000000000 1.0
C      1  0.5299080000000  0.5170580000000  0.5067090000000 1.0
C      1  0.4819470000000  0.5228620000000  0.4794460000000 1.0
C      1  0.4552070000000  0.4351670000000  0.4613530000000 1.0
C      1  0.4213700000000  0.5313510000000  0.4979480000000 1.0
C      1  0.4656350000000  0.5335830000000  0.5767880000000 1.0
C      1  0.5269360000000  0.5763660000000  0.5577140000000 1.0
C      1  0.4908790000000  0.4288940000000  0.5281630000000 1.0
C      1  0.4902950000000  0.4395100000000  0.5015530000000 1.0
C      1  0.5755180000000  0.5311080000000  0.4880800000000 1.0
END
