TITL C-612604-1799-968 -0.00102202570764457 125000 -544.95863320467 0 0 89 (C1) n - 1
REM
REM in /home/nfs/bkarasulu/CARBON/AIRSS/Generating-Clusters/TERSOFF/Only-C1/FIRE-HFTN
REM
REM
REM
REM
REM
REM ./C.cell (11c1c37f851c82e70ff6c80c92926a4b)
REM AIRSS Version 0.9.1 bugfix July 2018 build 013d7b7c2542+ Fri, 06 Jul 2018 19:26:36 +0100
REM compiler GCC version 9.2.1 20190827 (Red Hat 9.2.1-1)
REM options -cpp -mtune=generic -march=x86-64 -g -O0 -fpre-include=/usr/include/finclude/math-vector-fortran.h
REM seed 785054581 -1104353226 -89082936 -241905083 -1929300204 -1181683422 1225891253 1990141197 1958022987 288283897 1924237508 1693907913 799325724 86994767 238138450 -843998539 -1824727135 -1601812463 -378795555 1892242724 -1577335786 -953068492 1250465624 -624476921 390989908 -2087244703 318699260 117781060 111860785 333310825 353859909 -1169667855 635534206
REM
CELL 1.54180   50.00000   50.00000   50.00000   90.00000   90.00000   90.00000
LATT -1
SFAC C  
C      1  0.5039540000000  0.5781540000000  0.5688810000000 1.0
C      1  0.5582520000000  0.5661090000000  0.4512750000000 1.0
C      1  0.5404160000000  0.5184600000000  0.4491530000000 1.0
C      1  0.4356900000000  0.4563040000000  0.5156050000000 1.0
C      1  0.5019770000000  0.4686140000000  0.4971240000000 1.0
C      1  0.5239510000000  0.4751770000000  0.5144560000000 1.0
C      1  0.4461380000000  0.5050080000000  0.4660840000000 1.0
C      1  0.4698960000000  0.4603540000000  0.5558950000000 1.0
C      1  0.4892380000000  0.4926930000000  0.4862500000000 1.0
C      1  0.4251140000000  0.4584320000000  0.4060460000000 1.0
C      1  0.5483820000000  0.5281270000000  0.4755560000000 1.0
C      1  0.5454140000000  0.4383920000000  0.5396300000000 1.0
C      1  0.5244090000000  0.4200110000000  0.5792860000000 1.0
C      1  0.5110630000000  0.5585850000000  0.4447460000000 1.0
C      1  0.4967010000000  0.4198080000000  0.5095420000000 1.0
C      1  0.4567820000000  0.6194460000000  0.5370660000000 1.0
C      1  0.5008550000000  0.5503490000000  0.5626480000000 1.0
C      1  0.4161470000000  0.4531070000000  0.4702350000000 1.0
C      1  0.4442890000000  0.5298260000000  0.4524550000000 1.0
C      1  0.4318780000000  0.4388050000000  0.4520090000000 1.0
C      1  0.4500460000000  0.4980130000000  0.5355770000000 1.0
C      1  0.5181610000000  0.5983380000000  0.5013360000000 1.0
C      1  0.4993390000000  0.4583240000000  0.5949340000000 1.0
C      1  0.4408150000000  0.4278920000000  0.5148580000000 1.0
C      1  0.4992780000000  0.4240070000000  0.5377020000000 1.0
C      1  0.4411550000000  0.4477060000000  0.4259200000000 1.0
C      1  0.4900100000000  0.5450150000000  0.4854030000000 1.0
C      1  0.4997830000000  0.5953160000000  0.5452490000000 1.0
C      1  0.5495210000000  0.4369310000000  0.4914170000000 1.0
C      1  0.5047230000000  0.5168640000000  0.4100520000000 1.0
C      1  0.4769850000000  0.5148140000000  0.6011350000000 1.0
C      1  0.4910130000000  0.4608580000000  0.4107920000000 1.0
C      1  0.4742190000000  0.5070190000000  0.5297770000000 1.0
C      1  0.5254500000000  0.4368500000000  0.4478370000000 1.0
C      1  0.5519170000000  0.5503540000000  0.5499670000000 1.0
C      1  0.4480890000000  0.4703700000000  0.5384270000000 1.0
C      1  0.5249550000000  0.5035950000000  0.5195680000000 1.0
C      1  0.4863700000000  0.5559610000000  0.4593880000000 1.0
C      1  0.4602880000000  0.5245950000000  0.6185860000000 1.0
C      1  0.4769410000000  0.4014080000000  0.5002210000000 1.0
C      1  0.5006440000000  0.5158420000000  0.5308660000000 1.0
C      1  0.5298270000000  0.5189960000000  0.4953050000000 1.0
C      1  0.5342310000000  0.5958180000000  0.4782250000000 1.0
C      1  0.5162630000000  0.4558440000000  0.4278630000000 1.0
C      1  0.4269350000000  0.4969110000000  0.4857190000000 1.0
C      1  0.4713300000000  0.4921450000000  0.4642610000000 1.0
C      1  0.5136390000000  0.4359220000000  0.5980830000000 1.0
C      1  0.5612540000000  0.6045420000000  0.4834910000000 1.0
C      1  0.4806800000000  0.6094340000000  0.5292120000000 1.0
C      1  0.5707270000000  0.4751160000000  0.5129650000000 1.0
C      1  0.5146730000000  0.5252310000000  0.5724570000000 1.0
C      1  0.5319200000000  0.5845920000000  0.5748880000000 1.0
C      1  0.4524640000000  0.4228480000000  0.4646020000000 1.0
C      1  0.4946070000000  0.5043620000000  0.5811890000000 1.0
C      1  0.5445700000000  0.5778330000000  0.5487490000000 1.0
C      1  0.5602420000000  0.5036250000000  0.5559790000000 1.0
C      1  0.4878550000000  0.4918230000000  0.4137330000000 1.0
C      1  0.5203520000000  0.5327870000000  0.4318980000000 1.0
C      1  0.4099970000000  0.5152020000000  0.4970710000000 1.0
C      1  0.5410150000000  0.4904970000000  0.4494080000000 1.0
C      1  0.4880160000000  0.4756650000000  0.5750630000000 1.0
C      1  0.4874100000000  0.5564950000000  0.5110890000000 1.0
C      1  0.5317060000000  0.5770650000000  0.4551230000000 1.0
C      1  0.5259480000000  0.5905340000000  0.5289410000000 1.0
C      1  0.5590900000000  0.4725520000000  0.4622610000000 1.0
C      1  0.5241370000000  0.4244340000000  0.5515310000000 1.0
C      1  0.5014020000000  0.4313430000000  0.4629680000000 1.0
C      1  0.5483760000000  0.4451890000000  0.4641470000000 1.0
C      1  0.4105720000000  0.4698990000000  0.3877130000000 1.0
C      1  0.5023090000000  0.5192700000000  0.4856470000000 1.0
C      1  0.5755500000000  0.4801890000000  0.4849230000000 1.0
C      1  0.4970100000000  0.5442840000000  0.5347070000000 1.0
C      1  0.4922160000000  0.6106690000000  0.5028450000000 1.0
C      1  0.4747350000000  0.4322650000000  0.5502370000000 1.0
C      1  0.5670940000000  0.5491490000000  0.4729780000000 1.0
C      1  0.4768120000000  0.4284020000000  0.4489310000000 1.0
C      1  0.4701220000000  0.4439660000000  0.4238210000000 1.0
C      1  0.5476080000000  0.4553790000000  0.5156800000000 1.0
C      1  0.5838500000000  0.5627760000000  0.4910280000000 1.0
C      1  0.4245490000000  0.4691490000000  0.4921520000000 1.0
C      1  0.5739330000000  0.4909690000000  0.5363410000000 1.0
C      1  0.5430320000000  0.5253610000000  0.5621980000000 1.0
C      1  0.4609570000000  0.5507010000000  0.4483170000000 1.0
C      1  0.4525250000000  0.4141560000000  0.4918800000000 1.0
C      1  0.5003400000000  0.4407970000000  0.4901940000000 1.0
C      1  0.5818720000000  0.5898240000000  0.4934340000000 1.0
C      1  0.5157540000000  0.4799410000000  0.4448200000000 1.0
C      1  0.4889850000000  0.4913360000000  0.4427070000000 1.0
C      1  0.4512600000000  0.4188780000000  0.5402730000000 1.0
END
