TITL C-612602-9376-670 1.32575580531443 125000 -1185.60914776885 0 0 191 (C1) n - 1
REM
REM in /home/nfs/bkarasulu/CARBON/AIRSS/Generating-Clusters/TERSOFF/Only-C1/FIRE-HFTN
REM
REM
REM
REM
REM
REM ./C.cell (11c1c37f851c82e70ff6c80c92926a4b)
REM AIRSS Version 0.9.1 bugfix July 2018 build 013d7b7c2542+ Fri, 06 Jul 2018 19:26:36 +0100
REM compiler GCC version 9.2.1 20190827 (Red Hat 9.2.1-1)
REM options -cpp -mtune=generic -march=x86-64 -g -O0 -fpre-include=/usr/include/finclude/math-vector-fortran.h
REM seed -1767316917 1775626072 1738820498 205005733 1294016204 1841869872 -38205706 1136260753 -1448049898 309960173 1645902398 2039725547 -2057013149 -1677720851 868012810 279794276 346369425 -2069643152 -879951926 1616873023 -1952105632 -38892957 -87968739 1002270153 1735389595 -652065658 1711808989 -295388455 365299975 -1657996515 1690536358 1931681123 651542774
REM
CELL 1.54180   50.00000   50.00000   50.00000   90.00000   90.00000   90.00000
LATT -1
SFAC C  
C      1  0.4233320000000  0.5524440000000  0.4091350000000 1.0
C      1  0.4775090000000  0.5862310000000  0.5649480000000 1.0
C      1  0.4150720000000  0.4881270000000  0.4323370000000 1.0
C      1  0.6002810000000  0.5295380000000  0.5177840000000 1.0
C      1  0.4708790000000  0.5615830000000  0.3997050000000 1.0
C      1  0.5776820000000  0.5407880000000  0.4671890000000 1.0
C      1  0.3908120000000  0.4547490000000  0.5049140000000 1.0
C      1  0.5946220000000  0.4808330000000  0.4754630000000 1.0
C      1  0.5595960000000  0.3698200000000  0.6129500000000 1.0
C      1  0.4274030000000  0.5551730000000  0.5634390000000 1.0
C      1  0.4562710000000  0.4242220000000  0.5181560000000 1.0
C      1  0.4571000000000  0.6211260000000  0.4875630000000 1.0
C      1  0.4690280000000  0.5694910000000  0.4944940000000 1.0
C      1  0.4804440000000  0.4894020000000  0.4507360000000 1.0
C      1  0.3886020000000  0.5171610000000  0.4562270000000 1.0
C      1  0.4945530000000  0.5471320000000  0.4055880000000 1.0
C      1  0.4751280000000  0.5011940000000  0.3843440000000 1.0
C      1  0.4920540000000  0.5302310000000  0.5338750000000 1.0
C      1  0.4350240000000  0.6072840000000  0.4790480000000 1.0
C      1  0.5105780000000  0.5586880000000  0.4272840000000 1.0
C      1  0.4678010000000  0.5508050000000  0.6031270000000 1.0
C      1  0.4896920000000  0.4551030000000  0.5026260000000 1.0
C      1  0.5515230000000  0.5387810000000  0.4549300000000 1.0
C      1  0.3929480000000  0.5028880000000  0.5234130000000 1.0
C      1  0.5332610000000  0.3968020000000  0.5042670000000 1.0
C      1  0.5518280000000  0.3898180000000  0.5974170000000 1.0
C      1  0.5742290000000  0.4748610000000  0.4585350000000 1.0
C      1  0.4575510000000  0.5105020000000  0.6308520000000 1.0
C      1  0.4900470000000  0.4780570000000  0.3734730000000 1.0
C      1  0.4347410000000  0.5035360000000  0.6146720000000 1.0
C      1  0.4495390000000  0.4886580000000  0.3898070000000 1.0
C      1  0.3632060000000  0.5608940000000  0.5070020000000 1.0
C      1  0.4427500000000  0.5213760000000  0.5040690000000 1.0
C      1  0.4397410000000  0.4474500000000  0.4187270000000 1.0
C      1  0.5112580000000  0.4459790000000  0.5481650000000 1.0
C      1  0.4034510000000  0.5892030000000  0.5098690000000 1.0
C      1  0.5804910000000  0.4653640000000  0.5564530000000 1.0
C      1  0.4090210000000  0.4290520000000  0.5003480000000 1.0
C      1  0.4718370000000  0.5765120000000  0.5903210000000 1.0
C      1  0.5038770000000  0.5050880000000  0.6009180000000 1.0
C      1  0.5066950000000  0.5427940000000  0.4869060000000 1.0
C      1  0.4796260000000  0.5888970000000  0.5131330000000 1.0
C      1  0.4058900000000  0.4409650000000  0.4513910000000 1.0
C      1  0.5136320000000  0.3839900000000  0.4864100000000 1.0
C      1  0.3738890000000  0.5395470000000  0.4930270000000 1.0
C      1  0.5482760000000  0.4333790000000  0.4419670000000 1.0
C      1  0.4165650000000  0.4592220000000  0.4316020000000 1.0
C      1  0.5145800000000  0.3783240000000  0.4580330000000 1.0
C      1  0.4655920000000  0.4420430000000  0.4982900000000 1.0
C      1  0.5008610000000  0.4072570000000  0.3949330000000 1.0
C      1  0.4660580000000  0.5423250000000  0.5349820000000 1.0
C      1  0.5275920000000  0.4034140000000  0.5327980000000 1.0
C      1  0.5494880000000  0.4067550000000  0.5519870000000 1.0
C      1  0.3877380000000  0.4969010000000  0.4776280000000 1.0
C      1  0.4363230000000  0.4705070000000  0.5257750000000 1.0
C      1  0.5612250000000  0.5938900000000  0.4255830000000 1.0
C      1  0.5253810000000  0.5946560000000  0.4591810000000 1.0
C      1  0.4379340000000  0.5492280000000  0.4583430000000 1.0
C      1  0.5018480000000  0.4532120000000  0.6293070000000 1.0
C      1  0.4510820000000  0.5409150000000  0.5591020000000 1.0
C      1  0.5312880000000  0.4332930000000  0.5935870000000 1.0
C      1  0.4642520000000  0.5002070000000  0.5013410000000 1.0
C      1  0.5445720000000  0.5297940000000  0.5234640000000 1.0
C      1  0.5527710000000  0.4476590000000  0.3931480000000 1.0
C      1  0.4364580000000  0.5013750000000  0.4454750000000 1.0
C      1  0.3779800000000  0.5124690000000  0.5009910000000 1.0
C      1  0.3901460000000  0.5437260000000  0.4691040000000 1.0
C      1  0.4784370000000  0.4517640000000  0.3824220000000 1.0
C      1  0.5915800000000  0.5508610000000  0.4226090000000 1.0
C      1  0.5288300000000  0.4969230000000  0.4247650000000 1.0
C      1  0.4758970000000  0.5333590000000  0.6254220000000 1.0
C      1  0.6006010000000  0.4246170000000  0.4969320000000 1.0
C      1  0.4185690000000  0.4230970000000  0.4715630000000 1.0
C      1  0.5325450000000  0.4647400000000  0.5519860000000 1.0
C      1  0.5672200000000  0.5633360000000  0.5980720000000 1.0
C      1  0.4894710000000  0.3839890000000  0.4440390000000 1.0
C      1  0.5031290000000  0.5315710000000  0.4616520000000 1.0
C      1  0.5266640000000  0.4798400000000  0.4466400000000 1.0
C      1  0.4138210000000  0.5601840000000  0.4701380000000 1.0
C      1  0.4280110000000  0.4263210000000  0.5232730000000 1.0
C      1  0.5771400000000  0.4772090000000  0.4300230000000 1.0
C      1  0.5179380000000  0.4792160000000  0.3809100000000 1.0
C      1  0.4034840000000  0.4745950000000  0.4863160000000 1.0
C      1  0.5160540000000  0.5683270000000  0.5397940000000 1.0
C      1  0.4241530000000  0.4484920000000  0.5411380000000 1.0
C      1  0.5886710000000  0.5263940000000  0.4090060000000 1.0
C      1  0.6215980000000  0.5083200000000  0.5175730000000 1.0
C      1  0.5578000000000  0.4642380000000  0.5384110000000 1.0
C      1  0.5869130000000  0.4803940000000  0.5038450000000 1.0
C      1  0.4115690000000  0.5764870000000  0.5555040000000 1.0
C      1  0.5265410000000  0.4861670000000  0.4746180000000 1.0
C      1  0.5954420000000  0.4135290000000  0.5234160000000 1.0
C      1  0.5713020000000  0.4225780000000  0.4519590000000 1.0
C      1  0.3784270000000  0.5790050000000  0.5215610000000 1.0
C      1  0.5761510000000  0.4079980000000  0.5416320000000 1.0
C      1  0.5418770000000  0.6358050000000  0.4396510000000 1.0
C      1  0.3877730000000  0.4731320000000  0.5302310000000 1.0
C      1  0.4685750000000  0.4888380000000  0.6455820000000 1.0
C      1  0.5780230000000  0.5748430000000  0.4171940000000 1.0
C      1  0.5743540000000  0.5214660000000  0.5595170000000 1.0
C      1  0.5861220000000  0.5012690000000  0.4180980000000 1.0
C      1  0.4898060000000  0.4002260000000  0.4203410000000 1.0
C      1  0.4839570000000  0.4669800000000  0.6437530000000 1.0
C      1  0.5036560000000  0.4194210000000  0.5394120000000 1.0
C      1  0.5354290000000  0.4850130000000  0.5723670000000 1.0
C      1  0.4211680000000  0.5131740000000  0.5237070000000 1.0
C      1  0.4535060000000  0.4598440000000  0.3965300000000 1.0
C      1  0.4447250000000  0.4111950000000  0.4594060000000 1.0
C      1  0.4186810000000  0.4894130000000  0.5980010000000 1.0
C      1  0.5042720000000  0.5246250000000  0.6225270000000 1.0
C      1  0.5264750000000  0.4516230000000  0.3843710000000 1.0
C      1  0.4209060000000  0.5923940000000  0.5330500000000 1.0
C      1  0.4793240000000  0.5175920000000  0.4548210000000 1.0
C      1  0.4760040000000  0.5761770000000  0.4607270000000 1.0
C      1  0.5550490000000  0.5056980000000  0.5699670000000 1.0
C      1  0.4803350000000  0.6157580000000  0.5034540000000 1.0
C      1  0.3832870000000  0.5747680000000  0.5497570000000 1.0
C      1  0.4364750000000  0.4948860000000  0.5399480000000 1.0
C      1  0.5750870000000  0.3300730000000  0.6436810000000 1.0
C      1  0.4505900000000  0.4585290000000  0.4808770000000 1.0
C      1  0.4803280000000  0.4253340000000  0.4305470000000 1.0
C      1  0.5328090000000  0.5557340000000  0.5207140000000 1.0
C      1  0.6078210000000  0.4652180000000  0.5187580000000 1.0
C      1  0.5024440000000  0.4341290000000  0.3848830000000 1.0
C      1  0.5118170000000  0.4410060000000  0.4956300000000 1.0
C      1  0.4908100000000  0.5830930000000  0.5388410000000 1.0
C      1  0.4898990000000  0.5166330000000  0.5787750000000 1.0
C      1  0.5506270000000  0.5511560000000  0.6156920000000 1.0
C      1  0.5291990000000  0.6034910000000  0.5742490000000 1.0
C      1  0.4309220000000  0.4721640000000  0.4957710000000 1.0
C      1  0.5681530000000  0.5868770000000  0.5253900000000 1.0
C      1  0.5996790000000  0.5466300000000  0.4495460000000 1.0
C      1  0.4482070000000  0.5652930000000  0.4159270000000 1.0
C      1  0.4841320000000  0.3840740000000  0.4911050000000 1.0
C      1  0.5193180000000  0.5020430000000  0.3990110000000 1.0
C      1  0.6389770000000  0.5205750000000  0.4721070000000 1.0
C      1  0.4882400000000  0.4830990000000  0.5041380000000 1.0
C      1  0.6229860000000  0.4731410000000  0.4783540000000 1.0
C      1  0.5706180000000  0.4574700000000  0.4106790000000 1.0
C      1  0.4649490000000  0.4693490000000  0.4594530000000 1.0
C      1  0.4507550000000  0.5236710000000  0.4547510000000 1.0
C      1  0.5386190000000  0.4411770000000  0.4898910000000 1.0
C      1  0.5472130000000  0.6013030000000  0.5090360000000 1.0
C      1  0.5050300000000  0.6284550000000  0.5103710000000 1.0
C      1  0.5004170000000  0.4418860000000  0.4389060000000 1.0
C      1  0.5243470000000  0.5778020000000  0.5824550000000 1.0
C      1  0.5195940000000  0.4821340000000  0.5954370000000 1.0
C      1  0.4059330000000  0.4746670000000  0.5791370000000 1.0
C      1  0.5261650000000  0.4515300000000  0.4413520000000 1.0
C      1  0.5755370000000  0.5729560000000  0.5740690000000 1.0
C      1  0.5439080000000  0.4108710000000  0.5804810000000 1.0
C      1  0.5139260000000  0.4984610000000  0.5011080000000 1.0
C      1  0.5789070000000  0.5681460000000  0.5458200000000 1.0
C      1  0.4157530000000  0.5862920000000  0.4843170000000 1.0
C      1  0.5023170000000  0.5801590000000  0.4474740000000 1.0
C      1  0.5343700000000  0.5878300000000  0.4858690000000 1.0
C      1  0.6182740000000  0.4856760000000  0.5364130000000 1.0
C      1  0.4652380000000  0.5311270000000  0.5815490000000 1.0
C      1  0.5674060000000  0.3497820000000  0.6284430000000 1.0
C      1  0.5860170000000  0.5353410000000  0.4935870000000 1.0
C      1  0.4050330000000  0.5327510000000  0.4132400000000 1.0
C      1  0.5780500000000  0.4177300000000  0.4793390000000 1.0
C      1  0.4955880000000  0.5196180000000  0.3961460000000 1.0
C      1  0.5293820000000  0.6197290000000  0.5234520000000 1.0
C      1  0.4769950000000  0.3839580000000  0.5182670000000 1.0
C      1  0.6037520000000  0.4795260000000  0.5600640000000 1.0
C      1  0.6186370000000  0.4493650000000  0.4968680000000 1.0
C      1  0.4553510000000  0.5472390000000  0.5084700000000 1.0
C      1  0.5054200000000  0.5299520000000  0.5594880000000 1.0
C      1  0.5517630000000  0.4162190000000  0.4924080000000 1.0
C      1  0.6255390000000  0.5385890000000  0.4573230000000 1.0
C      1  0.5255310000000  0.5623760000000  0.4940860000000 1.0
C      1  0.5247800000000  0.5396970000000  0.4443300000000 1.0
C      1  0.5485380000000  0.4680270000000  0.4848700000000 1.0
C      1  0.5021830000000  0.5250150000000  0.5078730000000 1.0
C      1  0.6336180000000  0.4994810000000  0.4906270000000 1.0
C      1  0.5407480000000  0.5026400000000  0.5156980000000 1.0
C      1  0.4261840000000  0.4980220000000  0.3791980000000 1.0
C      1  0.5590580000000  0.4788750000000  0.5115600000000 1.0
C      1  0.4527790000000  0.4272500000000  0.4351410000000 1.0
C      1  0.4536670000000  0.5685280000000  0.4441940000000 1.0
C      1  0.5429230000000  0.6085130000000  0.4413410000000 1.0
C      1  0.5308780000000  0.6189960000000  0.5520510000000 1.0
C      1  0.3966880000000  0.5106810000000  0.4296940000000 1.0
C      1  0.5283270000000  0.5393640000000  0.6254960000000 1.0
C      1  0.4017750000000  0.4620090000000  0.5539560000000 1.0
C      1  0.4772780000000  0.4093040000000  0.5312820000000 1.0
C      1  0.5182220000000  0.4555050000000  0.6065020000000 1.0
C      1  0.4683180000000  0.3908790000000  0.4660740000000 1.0
C      1  0.5870500000000  0.5400520000000  0.5414140000000 1.0
C      1  0.5183710000000  0.5553560000000  0.5656600000000 1.0
END
