TITL C-612603-7354-912 0.0834890968638204 125000 -805.212351593262 0 0 134 (C1) n - 1
REM
REM in /home/nfs/bkarasulu/CARBON/AIRSS/Generating-Clusters/TERSOFF/Only-C1/FIRE-HFTN
REM
REM
REM
REM
REM
REM ./C.cell (11c1c37f851c82e70ff6c80c92926a4b)
REM AIRSS Version 0.9.1 bugfix July 2018 build 013d7b7c2542+ Fri, 06 Jul 2018 19:26:36 +0100
REM compiler GCC version 9.2.1 20190827 (Red Hat 9.2.1-1)
REM options -cpp -mtune=generic -march=x86-64 -g -O0 -fpre-include=/usr/include/finclude/math-vector-fortran.h
REM seed 951397972 1642914734 973786011 -99028620 -2064784827 1243384340 -930876148 -556520667 219184136 -2086938363 -140329404 1227280493 1165437152 1566571130 2041579109 -2048684820 2014710 1009215984 1041904608 1789811295 755268820 -753324058 -1832176908 697975343 -61542276 -695383139 -231557191 -185766546 1778292050 812431819 -138821709 1533315449 42480405
REM
CELL 1.54180   50.00000   50.00000   50.00000   90.00000   90.00000   90.00000
LATT -1
SFAC C  
C      1  0.5262820000000  0.5428050000000  0.5572040000000 1.0
C      1  0.5629330000000  0.5166400000000  0.5295210000000 1.0
C      1  0.4868570000000  0.5051220000000  0.6441260000000 1.0
C      1  0.4298590000000  0.4844670000000  0.3747090000000 1.0
C      1  0.3987830000000  0.5042720000000  0.4692960000000 1.0
C      1  0.5975300000000  0.4816090000000  0.4520000000000 1.0
C      1  0.5218000000000  0.5980650000000  0.3921790000000 1.0
C      1  0.5573130000000  0.5375460000000  0.3997040000000 1.0
C      1  0.5240650000000  0.4725780000000  0.4032110000000 1.0
C      1  0.4851460000000  0.6122980000000  0.5030980000000 1.0
C      1  0.5399310000000  0.4242980000000  0.4098090000000 1.0
C      1  0.4313720000000  0.4826510000000  0.5996630000000 1.0
C      1  0.5366240000000  0.5227830000000  0.4576750000000 1.0
C      1  0.4586760000000  0.4435110000000  0.5906040000000 1.0
C      1  0.4959520000000  0.4817520000000  0.4087860000000 1.0
C      1  0.4052080000000  0.4658770000000  0.5430210000000 1.0
C      1  0.4206290000000  0.4142710000000  0.5038980000000 1.0
C      1  0.5365810000000  0.4732290000000  0.4569280000000 1.0
C      1  0.5560570000000  0.4306730000000  0.5395870000000 1.0
C      1  0.4427880000000  0.4995270000000  0.6167990000000 1.0
C      1  0.6113760000000  0.4745480000000  0.5165890000000 1.0
C      1  0.4733140000000  0.4337460000000  0.5678390000000 1.0
C      1  0.3916450000000  0.5104670000000  0.5238600000000 1.0
C      1  0.5085810000000  0.4696120000000  0.5555710000000 1.0
C      1  0.4566400000000  0.4915710000000  0.4995850000000 1.0
C      1  0.5654000000000  0.5463460000000  0.4253630000000 1.0
C      1  0.4818730000000  0.4872550000000  0.4572820000000 1.0
C      1  0.4375520000000  0.5573030000000  0.5554280000000 1.0
C      1  0.5684210000000  0.5819950000000  0.4726390000000 1.0
C      1  0.4871820000000  0.5637310000000  0.5025630000000 1.0
C      1  0.5374230000000  0.6186930000000  0.3891010000000 1.0
C      1  0.4891280000000  0.5145850000000  0.4574050000000 1.0
C      1  0.6315080000000  0.5206530000000  0.4588780000000 1.0
C      1  0.5357880000000  0.5818380000000  0.5224620000000 1.0
C      1  0.3803590000000  0.5569060000000  0.5131990000000 1.0
C      1  0.6161260000000  0.5338400000000  0.4410200000000 1.0
C      1  0.5859160000000  0.4693980000000  0.5280890000000 1.0
C      1  0.5277830000000  0.4791300000000  0.6425080000000 1.0
C      1  0.5573930000000  0.4380470000000  0.5927540000000 1.0
C      1  0.4889070000000  0.5067630000000  0.3958710000000 1.0
C      1  0.5497970000000  0.4647370000000  0.6329550000000 1.0
C      1  0.5257550000000  0.5685270000000  0.4529070000000 1.0
C      1  0.4488410000000  0.5887540000000  0.4821670000000 1.0
C      1  0.6096950000000  0.4703170000000  0.4318730000000 1.0
C      1  0.4573050000000  0.4292760000000  0.4780910000000 1.0
C      1  0.4831670000000  0.5353700000000  0.5399490000000 1.0
C      1  0.5053710000000  0.4970680000000  0.5527970000000 1.0
C      1  0.4574960000000  0.4199160000000  0.5485060000000 1.0
C      1  0.5321020000000  0.4198730000000  0.6292820000000 1.0
C      1  0.5462060000000  0.4406150000000  0.6183080000000 1.0
C      1  0.4883370000000  0.5732090000000  0.4189970000000 1.0
C      1  0.4661950000000  0.4093180000000  0.5235220000000 1.0
C      1  0.5177380000000  0.4561410000000  0.4438340000000 1.0
C      1  0.4795070000000  0.5409590000000  0.4545110000000 1.0
C      1  0.4929170000000  0.4713250000000  0.4367840000000 1.0
C      1  0.4404440000000  0.4969120000000  0.3965150000000 1.0
C      1  0.4510870000000  0.5417180000000  0.4585850000000 1.0
C      1  0.5127970000000  0.3819070000000  0.5607860000000 1.0
C      1  0.4754950000000  0.5879220000000  0.4911560000000 1.0
C      1  0.4904440000000  0.3946160000000  0.5200590000000 1.0
C      1  0.5911780000000  0.5376880000000  0.4826480000000 1.0
C      1  0.5576490000000  0.4689550000000  0.4748490000000 1.0
C      1  0.5756670000000  0.4740100000000  0.6380790000000 1.0
C      1  0.6353150000000  0.5049090000000  0.4804720000000 1.0
C      1  0.4886040000000  0.3843400000000  0.4210860000000 1.0
C      1  0.4313650000000  0.4923290000000  0.4225750000000 1.0
C      1  0.4263930000000  0.5470790000000  0.4718670000000 1.0
C      1  0.4922150000000  0.3762060000000  0.4997350000000 1.0
C      1  0.4352770000000  0.4594980000000  0.5846460000000 1.0
C      1  0.4972840000000  0.4463570000000  0.5615100000000 1.0
C      1  0.3925640000000  0.5328250000000  0.5064180000000 1.0
C      1  0.4298320000000  0.4253920000000  0.5524090000000 1.0
C      1  0.4825370000000  0.4019490000000  0.4393260000000 1.0
C      1  0.3699170000000  0.5795670000000  0.5207240000000 1.0
C      1  0.5528120000000  0.4027940000000  0.4026800000000 1.0
C      1  0.4971780000000  0.5631250000000  0.4446850000000 1.0
C      1  0.5690410000000  0.4474000000000  0.5205950000000 1.0
C      1  0.5767190000000  0.5135890000000  0.4850670000000 1.0
C      1  0.5930100000000  0.5439160000000  0.4314650000000 1.0
C      1  0.5595080000000  0.4490270000000  0.4942020000000 1.0
C      1  0.5123750000000  0.6167150000000  0.4987060000000 1.0
C      1  0.4490140000000  0.4144740000000  0.5011590000000 1.0
C      1  0.5126840000000  0.3969820000000  0.5378290000000 1.0
C      1  0.4050730000000  0.4377900000000  0.5003240000000 1.0
C      1  0.5076300000000  0.5519270000000  0.3814440000000 1.0
C      1  0.5314710000000  0.5650740000000  0.5430160000000 1.0
C      1  0.4095350000000  0.4934250000000  0.5375440000000 1.0
C      1  0.5185990000000  0.5076090000000  0.6799770000000 1.0
C      1  0.4263150000000  0.5742990000000  0.4796260000000 1.0
C      1  0.4624060000000  0.5655560000000  0.4103960000000 1.0
C      1  0.4585500000000  0.4979420000000  0.5273740000000 1.0
C      1  0.5111240000000  0.4973610000000  0.6557240000000 1.0
C      1  0.4660210000000  0.4372590000000  0.6161730000000 1.0
C      1  0.5997780000000  0.4829950000000  0.6422120000000 1.0
C      1  0.5281910000000  0.4479070000000  0.4176180000000 1.0
C      1  0.5400110000000  0.5849350000000  0.4729960000000 1.0
C      1  0.5719790000000  0.4915460000000  0.5386170000000 1.0
C      1  0.5308060000000  0.5267450000000  0.4868140000000 1.0
C      1  0.4829130000000  0.5076820000000  0.5391020000000 1.0
C      1  0.4336820000000  0.5306700000000  0.5555900000000 1.0
C      1  0.4557610000000  0.4810860000000  0.4705150000000 1.0
C      1  0.5065800000000  0.5754310000000  0.3971940000000 1.0
C      1  0.5871270000000  0.5640380000000  0.4794880000000 1.0
C      1  0.5392040000000  0.4953940000000  0.4132860000000 1.0
C      1  0.4579090000000  0.6021460000000  0.5427070000000 1.0
C      1  0.5223850000000  0.5161200000000  0.5664570000000 1.0
C      1  0.4732920000000  0.4177420000000  0.4585000000000 1.0
C      1  0.4374380000000  0.4920710000000  0.4484740000000 1.0
C      1  0.5434480000000  0.5470850000000  0.4441920000000 1.0
C      1  0.5107890000000  0.5246970000000  0.3881470000000 1.0
C      1  0.5347900000000  0.4135760000000  0.5323900000000 1.0
C      1  0.3994780000000  0.4774600000000  0.4712510000000 1.0
C      1  0.5373720000000  0.5180590000000  0.3965560000000 1.0
C      1  0.5348930000000  0.5085280000000  0.5896830000000 1.0
C      1  0.4550170000000  0.5427900000000  0.3981680000000 1.0
C      1  0.4563250000000  0.5740820000000  0.5427570000000 1.0
C      1  0.4347780000000  0.5056740000000  0.5420950000000 1.0
C      1  0.4058880000000  0.5289540000000  0.4811740000000 1.0
C      1  0.5535850000000  0.5178340000000  0.5024740000000 1.0
C      1  0.4617210000000  0.5156470000000  0.3945430000000 1.0
C      1  0.5087420000000  0.5446500000000  0.4948870000000 1.0
C      1  0.4430940000000  0.4536670000000  0.4741190000000 1.0
C      1  0.4709520000000  0.6194360000000  0.5264690000000 1.0
C      1  0.5789920000000  0.4882060000000  0.4719090000000 1.0
C      1  0.5741070000000  0.5387210000000  0.5414350000000 1.0
C      1  0.4632600000000  0.5068010000000  0.6321060000000 1.0
C      1  0.5616180000000  0.4336120000000  0.5669340000000 1.0
C      1  0.6279150000000  0.4884400000000  0.5004850000000 1.0
C      1  0.5387930000000  0.4984570000000  0.4425930000000 1.0
C      1  0.4204960000000  0.4507700000000  0.5618610000000 1.0
C      1  0.5307860000000  0.5954580000000  0.4979330000000 1.0
C      1  0.3931370000000  0.4503640000000  0.5225190000000 1.0
C      1  0.4144300000000  0.4549620000000  0.4794340000000 1.0
C      1  0.4762840000000  0.5593120000000  0.5285760000000 1.0
END
