TITL C-612604-1799-206 -46.0579114753271 125000 -695.144005660438 0 0 114 (C1) n - 1
REM
REM in /home/nfs/bkarasulu/CARBON/AIRSS/Generating-Clusters/TERSOFF/Only-C1/FIRE-HFTN
REM
REM
REM
REM
REM
REM ./C.cell (11c1c37f851c82e70ff6c80c92926a4b)
REM AIRSS Version 0.9.1 bugfix July 2018 build 013d7b7c2542+ Fri, 06 Jul 2018 19:26:36 +0100
REM compiler GCC version 9.2.1 20190827 (Red Hat 9.2.1-1)
REM options -cpp -mtune=generic -march=x86-64 -g -O0 -fpre-include=/usr/include/finclude/math-vector-fortran.h
REM seed 609670850 232942517 1292630517 -1266423358 -733422400 468999643 2123604803 -1896403978 277228897 -285692181 1355164873 -1021219648 1795212032 -258171532 -1735744709 330687247 -125116674 -51853267 730057685 1946062030 1314189829 -1028822938 -1854845499 -498197993 1852804619 -214611327 -846290806 1023666626 1326274425 823347890 -160825544 -1836799289 1190337153
REM
CELL 1.54180   50.00000   50.00000   50.00000   90.00000   90.00000   90.00000
LATT -1
SFAC C  
C      1  0.5159930000000  0.4435080000000  0.4887410000000 1.0
C      1  0.4629010000000  0.4822370000000  0.3772490000000 1.0
C      1  0.5702480000000  0.4320820000000  0.5546210000000 1.0
C      1  0.5107700000000  0.5610200000000  0.4918060000000 1.0
C      1  0.4904470000000  0.6353130000000  0.4849270000000 1.0
C      1  0.4837230000000  0.4781320000000  0.3923860000000 1.0
C      1  0.5376030000000  0.4780050000000  0.5443430000000 1.0
C      1  0.4905360000000  0.4294320000000  0.4492710000000 1.0
C      1  0.4365540000000  0.5875580000000  0.4581810000000 1.0
C      1  0.4741890000000  0.6187140000000  0.4671120000000 1.0
C      1  0.5053160000000  0.4068580000000  0.4454480000000 1.0
C      1  0.4439400000000  0.5058390000000  0.5943540000000 1.0
C      1  0.4981350000000  0.3919470000000  0.4910900000000 1.0
C      1  0.5352810000000  0.5324110000000  0.4365620000000 1.0
C      1  0.5428150000000  0.5223160000000  0.5005830000000 1.0
C      1  0.4745610000000  0.4091960000000  0.5356160000000 1.0
C      1  0.4177310000000  0.5677950000000  0.5586670000000 1.0
C      1  0.5547180000000  0.5634990000000  0.4745640000000 1.0
C      1  0.4305290000000  0.4123360000000  0.4857020000000 1.0
C      1  0.4952930000000  0.6031000000000  0.4535340000000 1.0
C      1  0.4823960000000  0.5326840000000  0.4455930000000 1.0
C      1  0.5517460000000  0.5383910000000  0.4591890000000 1.0
C      1  0.5639840000000  0.4799360000000  0.5542510000000 1.0
C      1  0.5845140000000  0.5424330000000  0.5158650000000 1.0
C      1  0.4925390000000  0.4608750000000  0.5283460000000 1.0
C      1  0.3738360000000  0.4841430000000  0.4814990000000 1.0
C      1  0.5674790000000  0.4267250000000  0.4591570000000 1.0
C      1  0.5029480000000  0.5592510000000  0.5551610000000 1.0
C      1  0.4657340000000  0.5326120000000  0.5377250000000 1.0
C      1  0.4345810000000  0.5925030000000  0.5208190000000 1.0
C      1  0.5602540000000  0.4667780000000  0.4833100000000 1.0
C      1  0.5473580000000  0.4059360000000  0.4720150000000 1.0
C      1  0.5343960000000  0.4565760000000  0.4444920000000 1.0
C      1  0.5481830000000  0.5175320000000  0.4146380000000 1.0
C      1  0.5341330000000  0.4593690000000  0.4735020000000 1.0
C      1  0.5156270000000  0.5157700000000  0.5855680000000 1.0
C      1  0.5187020000000  0.3963370000000  0.4686430000000 1.0
C      1  0.5193370000000  0.4537450000000  0.5926180000000 1.0
C      1  0.5400900000000  0.5243250000000  0.5777280000000 1.0
C      1  0.4206260000000  0.5035070000000  0.4517020000000 1.0
C      1  0.5625850000000  0.4472450000000  0.4386650000000 1.0
C      1  0.5496010000000  0.5410600000000  0.5562500000000 1.0
C      1  0.4315530000000  0.5681430000000  0.5343810000000 1.0
C      1  0.5167410000000  0.4748870000000  0.5269950000000 1.0
C      1  0.4224460000000  0.5427670000000  0.4773140000000 1.0
C      1  0.4998570000000  0.4068440000000  0.5472710000000 1.0
C      1  0.4699630000000  0.5072120000000  0.4472020000000 1.0
C      1  0.5193080000000  0.5374430000000  0.5042570000000 1.0
C      1  0.5470370000000  0.4159880000000  0.5535470000000 1.0
C      1  0.4435310000000  0.5443960000000  0.5244830000000 1.0
C      1  0.5301930000000  0.5776260000000  0.4786310000000 1.0
C      1  0.4743420000000  0.4021360000000  0.5071260000000 1.0
C      1  0.5437420000000  0.5292930000000  0.3891250000000 1.0
C      1  0.6068340000000  0.5290790000000  0.5036870000000 1.0
C      1  0.5750770000000  0.4745190000000  0.4307180000000 1.0
C      1  0.4674770000000  0.4450630000000  0.4902290000000 1.0
C      1  0.5167270000000  0.6260570000000  0.4861780000000 1.0
C      1  0.4767410000000  0.5116390000000  0.5225590000000 1.0
C      1  0.4906960000000  0.4424420000000  0.4745360000000 1.0
C      1  0.5463220000000  0.4540820000000  0.5905010000000 1.0
C      1  0.5044680000000  0.4756710000000  0.4086790000000 1.0
C      1  0.4367320000000  0.5313790000000  0.4997570000000 1.0
C      1  0.4843110000000  0.5623740000000  0.4829660000000 1.0
C      1  0.4047820000000  0.5197500000000  0.4697920000000 1.0
C      1  0.6169470000000  0.5172140000000  0.4816020000000 1.0
C      1  0.5512090000000  0.4120940000000  0.5007730000000 1.0
C      1  0.4510760000000  0.4562380000000  0.5563340000000 1.0
C      1  0.4179770000000  0.5076440000000  0.5882920000000 1.0
C      1  0.5878640000000  0.4293630000000  0.5322240000000 1.0
C      1  0.5166280000000  0.4934370000000  0.5069570000000 1.0
C      1  0.5719600000000  0.5309300000000  0.5402730000000 1.0
C      1  0.5214740000000  0.5443180000000  0.3845940000000 1.0
C      1  0.4554790000000  0.4194590000000  0.4936930000000 1.0
C      1  0.4087200000000  0.4911170000000  0.5407690000000 1.0
C      1  0.3783260000000  0.5271260000000  0.5295420000000 1.0
C      1  0.5034900000000  0.5490480000000  0.4044980000000 1.0
C      1  0.5009720000000  0.5160790000000  0.5106040000000 1.0
C      1  0.5203640000000  0.6023980000000  0.4694420000000 1.0
C      1  0.3944690000000  0.5059800000000  0.5193220000000 1.0
C      1  0.5666420000000  0.4560330000000  0.5701860000000 1.0
C      1  0.5273660000000  0.4255620000000  0.5103900000000 1.0
C      1  0.6149880000000  0.4296070000000  0.5353650000000 1.0
C      1  0.4469900000000  0.4997650000000  0.4619660000000 1.0
C      1  0.5067400000000  0.5389130000000  0.4312090000000 1.0
C      1  0.4059060000000  0.5712420000000  0.5816380000000 1.0
C      1  0.4403830000000  0.5596980000000  0.4616900000000 1.0
C      1  0.6120140000000  0.5027060000000  0.4591160000000 1.0
C      1  0.5522560000000  0.4896910000000  0.4182560000000 1.0
C      1  0.4687640000000  0.5523250000000  0.4617160000000 1.0
C      1  0.5691500000000  0.4918280000000  0.4737890000000 1.0
C      1  0.4289990000000  0.4704540000000  0.5431690000000 1.0
C      1  0.4825670000000  0.5396840000000  0.5594890000000 1.0
C      1  0.5758090000000  0.4262210000000  0.5067730000000 1.0
C      1  0.4704610000000  0.4698730000000  0.5746400000000 1.0
C      1  0.4486650000000  0.6082430000000  0.4735420000000 1.0
C      1  0.4884100000000  0.5177570000000  0.5778320000000 1.0
C      1  0.5881400000000  0.4893360000000  0.4521680000000 1.0
C      1  0.5781120000000  0.5034130000000  0.5472520000000 1.0
C      1  0.4615920000000  0.4913580000000  0.5095480000000 1.0
C      1  0.5277270000000  0.4746460000000  0.4235200000000 1.0
C      1  0.5775060000000  0.4428950000000  0.4834640000000 1.0
C      1  0.4400990000000  0.6087260000000  0.5004030000000 1.0
C      1  0.4702450000000  0.4647120000000  0.5106260000000 1.0
C      1  0.4467780000000  0.5050320000000  0.4904970000000 1.0
C      1  0.4571120000000  0.4289870000000  0.5477280000000 1.0
C      1  0.3914080000000  0.5035160000000  0.4904300000000 1.0
C      1  0.5560030000000  0.5163870000000  0.4772670000000 1.0
C      1  0.5297320000000  0.5605570000000  0.5502950000000 1.0
C      1  0.5237370000000  0.4174500000000  0.5378450000000 1.0
C      1  0.4937120000000  0.4567000000000  0.5848590000000 1.0
C      1  0.4682390000000  0.4977290000000  0.5827320000000 1.0
C      1  0.3607250000000  0.5453540000000  0.5356510000000 1.0
C      1  0.5721060000000  0.5614620000000  0.4978510000000 1.0
C      1  0.4031470000000  0.5018720000000  0.5667480000000 1.0
END
