TITL C-612607-4507-317 8993.23208758278 125000 -907.833658373256 0 0 149 (C1) n - 1
REM
REM in /home/nfs/bkarasulu/CARBON/AIRSS/Generating-Clusters/TERSOFF/Only-C1/FIRE-HFTN
REM
REM
REM
REM
REM
REM ./C.cell (11c1c37f851c82e70ff6c80c92926a4b)
REM AIRSS Version 0.9.1 bugfix July 2018 build 013d7b7c2542+ Fri, 06 Jul 2018 19:26:36 +0100
REM compiler GCC version 9.2.1 20190827 (Red Hat 9.2.1-1)
REM options -cpp -mtune=generic -march=x86-64 -g -O0 -fpre-include=/usr/include/finclude/math-vector-fortran.h
REM seed -1319372718 1171677494 2045877245 1510853665 -1397368128 1442146530 -943286851 -1665958013 -1345634250 -534998971 -1931677429 303189381 -364224296 1535559127 195686240 1887196902 -1287718098 -969122693 -985634049 51502495 -2064774660 -1610833751 -1841342859 1196252965 964352252 1238710680 -1499249197 988409842 -326062487 662521178 -1968248231 -1723915130 802755540
REM
CELL 1.54180   50.00000   50.00000   50.00000   90.00000   90.00000   90.00000
LATT -1
SFAC C  
C      1  0.5479690000000  0.5448430000000  0.4821850000000 1.0
C      1  0.5097110000000  0.5339350000000  0.4484000000000 1.0
C      1  0.4332490000000  0.4566270000000  0.4666390000000 1.0
C      1  0.4249900000000  0.4782100000000  0.4221370000000 1.0
C      1  0.6185150000000  0.4581000000000  0.5443410000000 1.0
C      1  0.5419520000000  0.6192210000000  0.5554510000000 1.0
C      1  0.5266700000000  0.4247450000000  0.5497530000000 1.0
C      1  0.5492360000000  0.6136010000000  0.5807820000000 1.0
C      1  0.5536430000000  0.4625880000000  0.5501160000000 1.0
C      1  0.4303390000000  0.6044180000000  0.5396150000000 1.0
C      1  0.5281690000000  0.5969870000000  0.4429760000000 1.0
C      1  0.4993010000000  0.6292990000000  0.4940530000000 1.0
C      1  0.4600040000000  0.6070140000000  0.4700060000000 1.0
C      1  0.5475290000000  0.4003980000000  0.4602230000000 1.0
C      1  0.4787910000000  0.4459290000000  0.4720980000000 1.0
C      1  0.4620670000000  0.5416860000000  0.5252160000000 1.0
C      1  0.5794640000000  0.4647870000000  0.4357580000000 1.0
C      1  0.5244980000000  0.3837660000000  0.5748800000000 1.0
C      1  0.4688120000000  0.4764850000000  0.5810200000000 1.0
C      1  0.5407620000000  0.6012240000000  0.4662320000000 1.0
C      1  0.4458990000000  0.4950610000000  0.4926450000000 1.0
C      1  0.5226970000000  0.5178950000000  0.5856780000000 1.0
C      1  0.4300770000000  0.4329290000000  0.5125820000000 1.0
C      1  0.4662430000000  0.5175460000000  0.3920610000000 1.0
C      1  0.5337840000000  0.4694690000000  0.4354970000000 1.0
C      1  0.5569340000000  0.4761010000000  0.4528640000000 1.0
C      1  0.4511620000000  0.5913330000000  0.5533810000000 1.0
C      1  0.4456950000000  0.5255260000000  0.4094410000000 1.0
C      1  0.4263890000000  0.3953370000000  0.4754700000000 1.0
C      1  0.4109720000000  0.5451250000000  0.5279110000000 1.0
C      1  0.4854280000000  0.5442770000000  0.4532330000000 1.0
C      1  0.3913450000000  0.5376700000000  0.5454320000000 1.0
C      1  0.4708520000000  0.4011580000000  0.4541720000000 1.0
C      1  0.5021660000000  0.4628470000000  0.5342790000000 1.0
C      1  0.4434500000000  0.5514610000000  0.4222010000000 1.0
C      1  0.5825350000000  0.4360490000000  0.4382720000000 1.0
C      1  0.5215900000000  0.4249170000000  0.4987910000000 1.0
C      1  0.4252420000000  0.5169900000000  0.4533110000000 1.0
C      1  0.4271070000000  0.5584600000000  0.5849370000000 1.0
C      1  0.6032870000000  0.4798620000000  0.4331150000000 1.0
C      1  0.5385910000000  0.5968330000000  0.5990220000000 1.0
C      1  0.4256740000000  0.5472660000000  0.4462480000000 1.0
C      1  0.4940170000000  0.5666680000000  0.4994500000000 1.0
C      1  0.4352400000000  0.5057680000000  0.5159640000000 1.0
C      1  0.5213860000000  0.4384480000000  0.4742960000000 1.0
C      1  0.5229460000000  0.5025530000000  0.5141300000000 1.0
C      1  0.4619200000000  0.4550300000000  0.5615420000000 1.0
C      1  0.4927430000000  0.3894740000000  0.4698100000000 1.0
C      1  0.5631720000000  0.5471220000000  0.4546470000000 1.0
C      1  0.5028420000000  0.4811980000000  0.3987320000000 1.0
C      1  0.6182210000000  0.4866250000000  0.4547560000000 1.0
C      1  0.5193440000000  0.3912410000000  0.4546320000000 1.0
C      1  0.4045520000000  0.5631150000000  0.5074460000000 1.0
C      1  0.5403620000000  0.6067580000000  0.4926080000000 1.0
C      1  0.4831590000000  0.5847190000000  0.4190120000000 1.0
C      1  0.5281190000000  0.5333140000000  0.5628100000000 1.0
C      1  0.4551090000000  0.6002610000000  0.4972730000000 1.0
C      1  0.5079780000000  0.5918400000000  0.4261900000000 1.0
C      1  0.5207970000000  0.6103010000000  0.5388830000000 1.0
C      1  0.5201960000000  0.6169580000000  0.5099990000000 1.0
C      1  0.5596400000000  0.4617600000000  0.4792910000000 1.0
C      1  0.4184750000000  0.5334270000000  0.5903500000000 1.0
C      1  0.5151170000000  0.4558710000000  0.4507910000000 1.0
C      1  0.5009100000000  0.4109320000000  0.4104660000000 1.0
C      1  0.4290070000000  0.5084600000000  0.5887160000000 1.0
C      1  0.6063530000000  0.4883680000000  0.4810710000000 1.0
C      1  0.5711210000000  0.5563350000000  0.5513400000000 1.0
C      1  0.4720500000000  0.5276990000000  0.5893490000000 1.0
C      1  0.4727790000000  0.5461170000000  0.4989860000000 1.0
C      1  0.4808550000000  0.5431550000000  0.5465890000000 1.0
C      1  0.4089820000000  0.4461130000000  0.5276240000000 1.0
C      1  0.6063470000000  0.4611860000000  0.4958020000000 1.0
C      1  0.5158680000000  0.5294810000000  0.5171170000000 1.0
C      1  0.4824330000000  0.6252490000000  0.4725540000000 1.0
C      1  0.5547050000000  0.5340520000000  0.5521600000000 1.0
C      1  0.5114960000000  0.4958610000000  0.5957940000000 1.0
C      1  0.4088220000000  0.5735450000000  0.4834030000000 1.0
C      1  0.5212790000000  0.5512980000000  0.4977260000000 1.0
C      1  0.4988870000000  0.5762290000000  0.5764890000000 1.0
C      1  0.4798190000000  0.3856150000000  0.4958520000000 1.0
C      1  0.5889380000000  0.5750690000000  0.5455470000000 1.0
C      1  0.4835960000000  0.4718620000000  0.4374660000000 1.0
C      1  0.4754670000000  0.5543620000000  0.5742640000000 1.0
C      1  0.5278090000000  0.4878580000000  0.4135040000000 1.0
C      1  0.6059830000000  0.5933990000000  0.5382650000000 1.0
C      1  0.4876120000000  0.5020540000000  0.3869740000000 1.0
C      1  0.4746600000000  0.4931350000000  0.4531660000000 1.0
C      1  0.6027010000000  0.4345080000000  0.4826960000000 1.0
C      1  0.6054350000000  0.4307610000000  0.4546630000000 1.0
C      1  0.5201880000000  0.4116290000000  0.5249820000000 1.0
C      1  0.4465300000000  0.5897340000000  0.4515250000000 1.0
C      1  0.5140220000000  0.3928970000000  0.4259970000000 1.0
C      1  0.4497270000000  0.5706500000000  0.5731480000000 1.0
C      1  0.4358770000000  0.5314470000000  0.5264830000000 1.0
C      1  0.4449530000000  0.4305850000000  0.5590460000000 1.0
C      1  0.5897340000000  0.5137360000000  0.4816560000000 1.0
C      1  0.5713830000000  0.4577300000000  0.5277580000000 1.0
C      1  0.5635830000000  0.3997080000000  0.4840940000000 1.0
C      1  0.5596380000000  0.5152510000000  0.4889330000000 1.0
C      1  0.5608500000000  0.4876530000000  0.5603630000000 1.0
C      1  0.5074000000000  0.4791930000000  0.5123410000000 1.0
C      1  0.5996350000000  0.4589390000000  0.5240760000000 1.0
C      1  0.4566970000000  0.5028730000000  0.5859450000000 1.0
C      1  0.5125150000000  0.3724520000000  0.5533380000000 1.0
C      1  0.5036700000000  0.4488020000000  0.6035970000000 1.0
C      1  0.6356670000000  0.4578040000000  0.5639560000000 1.0
C      1  0.5592480000000  0.4711930000000  0.5057710000000 1.0
C      1  0.5611690000000  0.4167680000000  0.4398810000000 1.0
C      1  0.4975170000000  0.4952950000000  0.4711480000000 1.0
C      1  0.4574330000000  0.5768960000000  0.4271830000000 1.0
C      1  0.4030650000000  0.5031580000000  0.4714280000000 1.0
C      1  0.4953790000000  0.4727690000000  0.4878460000000 1.0
C      1  0.5461010000000  0.5019790000000  0.4645190000000 1.0
C      1  0.4735880000000  0.4564010000000  0.5347330000000 1.0
C      1  0.5178590000000  0.4270980000000  0.5974630000000 1.0
C      1  0.4300640000000  0.5056740000000  0.4245330000000 1.0
C      1  0.3949110000000  0.4859590000000  0.4917170000000 1.0
C      1  0.4765870000000  0.3924870000000  0.5239730000000 1.0
C      1  0.5170530000000  0.5806890000000  0.5974040000000 1.0
C      1  0.5415580000000  0.5140280000000  0.4151510000000 1.0
C      1  0.4846120000000  0.4324490000000  0.4191920000000 1.0
C      1  0.4762850000000  0.5932160000000  0.5389510000000 1.0
C      1  0.4779500000000  0.5890390000000  0.5109220000000 1.0
C      1  0.4333010000000  0.6090740000000  0.5130150000000 1.0
C      1  0.5527700000000  0.5350890000000  0.4295560000000 1.0
C      1  0.5619010000000  0.5088720000000  0.5411110000000 1.0
C      1  0.4166320000000  0.4379460000000  0.5545190000000 1.0
C      1  0.4674280000000  0.5359200000000  0.4734650000000 1.0
C      1  0.5188640000000  0.5103880000000  0.4609820000000 1.0
C      1  0.5079070000000  0.5364070000000  0.5430260000000 1.0
C      1  0.4255570000000  0.4590800000000  0.4410690000000 1.0
C      1  0.4754660000000  0.4285360000000  0.4477190000000 1.0
C      1  0.5263010000000  0.4119730000000  0.5755440000000 1.0
C      1  0.5006420000000  0.5940010000000  0.5527870000000 1.0
C      1  0.4524330000000  0.5104070000000  0.4676470000000 1.0
C      1  0.4248260000000  0.5719430000000  0.4608370000000 1.0
C      1  0.4942420000000  0.4735650000000  0.5947030000000 1.0
C      1  0.4584020000000  0.4071850000000  0.5431710000000 1.0
C      1  0.5526110000000  0.4998630000000  0.5130240000000 1.0
C      1  0.4240660000000  0.4104360000000  0.4973080000000 1.0
C      1  0.5905780000000  0.5364120000000  0.4624050000000 1.0
C      1  0.4458210000000  0.4674620000000  0.4898330000000 1.0
C      1  0.5036290000000  0.3892790000000  0.5326040000000 1.0
C      1  0.3961200000000  0.4675070000000  0.5124800000000 1.0
C      1  0.4447680000000  0.3912260000000  0.4564120000000 1.0
C      1  0.4535560000000  0.4505550000000  0.5119350000000 1.0
C      1  0.5848780000000  0.4142380000000  0.4934620000000 1.0
C      1  0.4863150000000  0.4606190000000  0.4119640000000 1.0
C      1  0.5264980000000  0.4527110000000  0.5477520000000 1.0
END
