TITL C-612603-7354-1406 2.46132275964522 125000 -142.636215039988 0 0 26 (C1) n - 1
REM
REM in /home/nfs/bkarasulu/CARBON/AIRSS/Generating-Clusters/TERSOFF/Only-C1/FIRE-HFTN
REM
REM
REM
REM
REM
REM ./C.cell (11c1c37f851c82e70ff6c80c92926a4b)
REM AIRSS Version 0.9.1 bugfix July 2018 build 013d7b7c2542+ Fri, 06 Jul 2018 19:26:36 +0100
REM compiler GCC version 9.2.1 20190827 (Red Hat 9.2.1-1)
REM options -cpp -mtune=generic -march=x86-64 -g -O0 -fpre-include=/usr/include/finclude/math-vector-fortran.h
REM seed -773012798 754155540 444089710 -877088515 1946683125 -426876507 -1594839105 1068506601 -1384785814 -1464409620 884800259 -312979929 -1765546872 681636701 409903010 431034880 525564447 1280101736 1699692827 -510545287 1974668378 -805903054 1520855424 -1779945390 -260465694 -1685676014 801106341 -982712159 643986345 -479693867 2338871 1144903796 627069083
REM
CELL 1.54180   50.00000   50.00000   50.00000   90.00000   90.00000   90.00000
LATT -1
SFAC C  
C      1  0.4457280000000  0.3975310000000  0.4310060000000 1.0
C      1  0.5713860000000  0.6297320000000  0.5840650000000 1.0
C      1  0.4933260000000  0.4707820000000  0.4935340000000 1.0
C      1  0.5604060000000  0.6027720000000  0.5828880000000 1.0
C      1  0.4593200000000  0.3996780000000  0.3842290000000 1.0
C      1  0.4580990000000  0.4162020000000  0.4477300000000 1.0
C      1  0.5318590000000  0.5997250000000  0.5937030000000 1.0
C      1  0.3697820000000  0.4391350000000  0.3861450000000 1.0
C      1  0.5050710000000  0.4889940000000  0.5087870000000 1.0
C      1  0.5811430000000  0.6538690000000  0.5849890000000 1.0
C      1  0.5167940000000  0.5825400000000  0.5776380000000 1.0
C      1  0.4389280000000  0.3727380000000  0.4403650000000 1.0
C      1  0.5772790000000  0.5544190000000  0.5890100000000 1.0
C      1  0.5621830000000  0.5389130000000  0.5728450000000 1.0
C      1  0.4158870000000  0.4165850000000  0.3974900000000 1.0
C      1  0.4698370000000  0.4343610000000  0.4630270000000 1.0
C      1  0.5406250000000  0.5446200000000  0.5552530000000 1.0
C      1  0.3926540000000  0.4279510000000  0.3917520000000 1.0
C      1  0.4773340000000  0.3949620000000  0.3659960000000 1.0
C      1  0.5285340000000  0.5254190000000  0.5392870000000 1.0
C      1  0.5326380000000  0.5719260000000  0.5555410000000 1.0
C      1  0.5778750000000  0.5809790000000  0.5942840000000 1.0
C      1  0.5546500000000  0.5917510000000  0.5540820000000 1.0
C      1  0.4402640000000  0.4046410000000  0.4040330000000 1.0
C      1  0.5168140000000  0.5072050000000  0.5240400000000 1.0
C      1  0.4815820000000  0.4525710000000  0.4782810000000 1.0
END
