TITL C-612605-9286-1495 -4154.90927918196 125000 -1024.4297030701 0 0 168 (C1) n - 1
REM
REM in /home/nfs/bkarasulu/CARBON/AIRSS/Generating-Clusters/TERSOFF/Only-C1/FIRE-HFTN
REM
REM
REM
REM
REM
REM ./C.cell (11c1c37f851c82e70ff6c80c92926a4b)
REM AIRSS Version 0.9.1 bugfix July 2018 build 013d7b7c2542+ Fri, 06 Jul 2018 19:26:36 +0100
REM compiler GCC version 9.2.1 20190827 (Red Hat 9.2.1-1)
REM options -cpp -mtune=generic -march=x86-64 -g -O0 -fpre-include=/usr/include/finclude/math-vector-fortran.h
REM seed -1322543240 1480897458 127492051 1988601758 383792609 -1454078806 -546147296 69569487 -1820489566 118991899 1393045430 -1285884726 1863909407 -150548972 -196040003 -1286915526 1516548566 417485803 859718806 -2074800077 586977087 1559224021 -1155822506 1941182975 -1063129071 -1858961770 1782368530 -782196630 -977656169 879757069 1335826387 1528760920 1471270056
REM
CELL 1.54180   50.00000   50.00000   50.00000   90.00000   90.00000   90.00000
LATT -1
SFAC C  
C      1  0.5287860000000  0.5277330000000  0.4404080000000 1.0
C      1  0.4833980000000  0.4990330000000  0.5188380000000 1.0
C      1  0.5320520000000  0.5439500000000  0.6163040000000 1.0
C      1  0.5776360000000  0.4796660000000  0.4405560000000 1.0
C      1  0.6013820000000  0.5333010000000  0.5480990000000 1.0
C      1  0.4816290000000  0.5977990000000  0.4605010000000 1.0
C      1  0.4503640000000  0.4056530000000  0.5382740000000 1.0
C      1  0.4549270000000  0.3944080000000  0.4670090000000 1.0
C      1  0.3616300000000  0.5134770000000  0.5104350000000 1.0
C      1  0.6282210000000  0.5038160000000  0.4445120000000 1.0
C      1  0.3981340000000  0.5194640000000  0.4259000000000 1.0
C      1  0.4413850000000  0.5163610000000  0.4053990000000 1.0
C      1  0.5532260000000  0.5742820000000  0.4424900000000 1.0
C      1  0.4965900000000  0.4349210000000  0.3833720000000 1.0
C      1  0.4174490000000  0.5370100000000  0.5486230000000 1.0
C      1  0.6124820000000  0.5347870000000  0.5742250000000 1.0
C      1  0.5810660000000  0.4866270000000  0.5567230000000 1.0
C      1  0.3851930000000  0.4638080000000  0.4516860000000 1.0
C      1  0.5174780000000  0.4304450000000  0.4038650000000 1.0
C      1  0.3809890000000  0.5559840000000  0.4845310000000 1.0
C      1  0.3667320000000  0.5383460000000  0.5001490000000 1.0
C      1  0.4988200000000  0.6014950000000  0.4860220000000 1.0
C      1  0.5494130000000  0.5995020000000  0.4959870000000 1.0
C      1  0.5726470000000  0.4042460000000  0.4756730000000 1.0
C      1  0.4393140000000  0.5229350000000  0.4818290000000 1.0
C      1  0.3819450000000  0.4721740000000  0.4263700000000 1.0
C      1  0.3839410000000  0.4658510000000  0.5020400000000 1.0
C      1  0.5169080000000  0.5145120000000  0.4181040000000 1.0
C      1  0.4928250000000  0.5092070000000  0.5654140000000 1.0
C      1  0.5604640000000  0.4483270000000  0.4785600000000 1.0
C      1  0.4415960000000  0.5686460000000  0.5772320000000 1.0
C      1  0.5034640000000  0.5963510000000  0.4394380000000 1.0
C      1  0.5133880000000  0.4301020000000  0.4311890000000 1.0
C      1  0.5134790000000  0.3821200000000  0.5034390000000 1.0
C      1  0.5494680000000  0.4938100000000  0.4769000000000 1.0
C      1  0.5939580000000  0.4117740000000  0.4567350000000 1.0
C      1  0.4166910000000  0.5601480000000  0.5892100000000 1.0
C      1  0.4342810000000  0.6056700000000  0.4795610000000 1.0
C      1  0.5570820000000  0.4410100000000  0.5657940000000 1.0
C      1  0.4209990000000  0.5691360000000  0.4475930000000 1.0
C      1  0.4803810000000  0.5502200000000  0.4515180000000 1.0
C      1  0.5113200000000  0.5576310000000  0.6022510000000 1.0
C      1  0.4487110000000  0.5122730000000  0.5930630000000 1.0
C      1  0.5250850000000  0.4027240000000  0.5540450000000 1.0
C      1  0.5639310000000  0.5004720000000  0.4529030000000 1.0
C      1  0.4569560000000  0.4606780000000  0.4349180000000 1.0
C      1  0.4583840000000  0.4351970000000  0.4995050000000 1.0
C      1  0.5886930000000  0.5086740000000  0.5383970000000 1.0
C      1  0.4818200000000  0.5447320000000  0.5272470000000 1.0
C      1  0.4531770000000  0.5665140000000  0.4125760000000 1.0
C      1  0.5878330000000  0.5693090000000  0.5109090000000 1.0
C      1  0.3668360000000  0.4867070000000  0.5140290000000 1.0
C      1  0.5731390000000  0.6016430000000  0.5405510000000 1.0
C      1  0.5261990000000  0.4452030000000  0.5071240000000 1.0
C      1  0.5306630000000  0.5166100000000  0.6266340000000 1.0
C      1  0.4555380000000  0.4884160000000  0.4421090000000 1.0
C      1  0.4584050000000  0.4146480000000  0.4480180000000 1.0
C      1  0.5043440000000  0.5975400000000  0.5368900000000 1.0
C      1  0.4704990000000  0.4432830000000  0.3895210000000 1.0
C      1  0.6006800000000  0.5099550000000  0.6131270000000 1.0
C      1  0.5257280000000  0.4748940000000  0.5864860000000 1.0
C      1  0.4123040000000  0.5236640000000  0.5240310000000 1.0
C      1  0.4745840000000  0.5588500000000  0.4268930000000 1.0
C      1  0.4703670000000  0.4578370000000  0.5791010000000 1.0
C      1  0.5760130000000  0.4972130000000  0.6074240000000 1.0
C      1  0.5721570000000  0.4609790000000  0.5007870000000 1.0
C      1  0.4502370000000  0.4798850000000  0.4901090000000 1.0
C      1  0.4450500000000  0.4179560000000  0.4224220000000 1.0
C      1  0.5340790000000  0.5045760000000  0.3971090000000 1.0
C      1  0.4797010000000  0.4768520000000  0.5986990000000 1.0
C      1  0.5688200000000  0.4989280000000  0.5797130000000 1.0
C      1  0.5496040000000  0.4811390000000  0.3998240000000 1.0
C      1  0.5548860000000  0.5015410000000  0.6256530000000 1.0
C      1  0.5881040000000  0.5812200000000  0.5543390000000 1.0
C      1  0.4629110000000  0.3865920000000  0.5166920000000 1.0
C      1  0.4437220000000  0.4532330000000  0.4866440000000 1.0
C      1  0.5645240000000  0.3967740000000  0.5037070000000 1.0
C      1  0.5162940000000  0.4921900000000  0.5660520000000 1.0
C      1  0.5077560000000  0.5010380000000  0.6323190000000 1.0
C      1  0.4624500000000  0.5054650000000  0.4204110000000 1.0
C      1  0.4978680000000  0.3948380000000  0.5484640000000 1.0
C      1  0.5300400000000  0.5895620000000  0.4511660000000 1.0
C      1  0.5596950000000  0.4546910000000  0.4054420000000 1.0
C      1  0.4952330000000  0.5730270000000  0.5844200000000 1.0
C      1  0.5223850000000  0.5379190000000  0.4666870000000 1.0
C      1  0.4810900000000  0.4382650000000  0.5613580000000 1.0
C      1  0.4203210000000  0.4179390000000  0.5221470000000 1.0
C      1  0.5410090000000  0.4526450000000  0.5857510000000 1.0
C      1  0.5703440000000  0.5925800000000  0.5129160000000 1.0
C      1  0.6308080000000  0.4770330000000  0.4454270000000 1.0
C      1  0.4197160000000  0.5327200000000  0.4132980000000 1.0
C      1  0.5770270000000  0.4453310000000  0.5239750000000 1.0
C      1  0.5034190000000  0.4962320000000  0.4987370000000 1.0
C      1  0.4219280000000  0.5133180000000  0.5904040000000 1.0
C      1  0.4463770000000  0.5925990000000  0.4581740000000 1.0
C      1  0.5707060000000  0.5507400000000  0.4406750000000 1.0
C      1  0.5664620000000  0.4170250000000  0.5252510000000 1.0
C      1  0.3958750000000  0.5248970000000  0.4536850000000 1.0
C      1  0.4918440000000  0.4477810000000  0.5365280000000 1.0
C      1  0.3979360000000  0.5051470000000  0.4753230000000 1.0
C      1  0.5416280000000  0.5412290000000  0.4873450000000 1.0
C      1  0.4830660000000  0.4354220000000  0.5115190000000 1.0
C      1  0.5271800000000  0.5975200000000  0.4792210000000 1.0
C      1  0.4200070000000  0.3997580000000  0.5003830000000 1.0
C      1  0.5055890000000  0.5861240000000  0.5612900000000 1.0
C      1  0.4633430000000  0.6124970000000  0.5168650000000 1.0
C      1  0.5575400000000  0.5331770000000  0.5072920000000 1.0
C      1  0.4455600000000  0.5498660000000  0.4860780000000 1.0
C      1  0.5572290000000  0.5253820000000  0.4411690000000 1.0
C      1  0.4514350000000  0.4440870000000  0.4105050000000 1.0
C      1  0.4581340000000  0.4865070000000  0.5168420000000 1.0
C      1  0.3860140000000  0.4964130000000  0.4154720000000 1.0
C      1  0.4861810000000  0.5192500000000  0.5391330000000 1.0
C      1  0.5443480000000  0.4347610000000  0.3925800000000 1.0
C      1  0.6224010000000  0.4513490000000  0.4444800000000 1.0
C      1  0.4089650000000  0.5345040000000  0.5770010000000 1.0
C      1  0.4025070000000  0.4484760000000  0.5178900000000 1.0
C      1  0.5534500000000  0.4244390000000  0.4691190000000 1.0
C      1  0.4165030000000  0.4671690000000  0.5334010000000 1.0
C      1  0.4717950000000  0.4409560000000  0.4508900000000 1.0
C      1  0.5354070000000  0.5187100000000  0.3736020000000 1.0
C      1  0.5666210000000  0.4883230000000  0.4993740000000 1.0
C      1  0.5982400000000  0.4362520000000  0.4404840000000 1.0
C      1  0.4576800000000  0.5587840000000  0.5306220000000 1.0
C      1  0.4429550000000  0.5972380000000  0.5048340000000 1.0
C      1  0.5754210000000  0.4587000000000  0.5502500000000 1.0
C      1  0.3992250000000  0.5535530000000  0.4619990000000 1.0
C      1  0.4497890000000  0.4703420000000  0.5640880000000 1.0
C      1  0.5176030000000  0.4591350000000  0.5301500000000 1.0
C      1  0.5391910000000  0.4334160000000  0.3639840000000 1.0
C      1  0.4273360000000  0.5591650000000  0.4213190000000 1.0
C      1  0.5527500000000  0.5206970000000  0.5732640000000 1.0
C      1  0.5254290000000  0.4832190000000  0.5410490000000 1.0
C      1  0.5725800000000  0.5106220000000  0.5150640000000 1.0
C      1  0.5119120000000  0.4343960000000  0.3587720000000 1.0
C      1  0.5534620000000  0.6472100000000  0.5609660000000 1.0
C      1  0.5212830000000  0.4874550000000  0.4784680000000 1.0
C      1  0.5110640000000  0.4685530000000  0.4604380000000 1.0
C      1  0.5636540000000  0.6252670000000  0.5512830000000 1.0
C      1  0.3905750000000  0.4769190000000  0.4758740000000 1.0
C      1  0.5497860000000  0.4169440000000  0.5503320000000 1.0
C      1  0.4669810000000  0.5742350000000  0.5876170000000 1.0
C      1  0.5581240000000  0.5558280000000  0.6158760000000 1.0
C      1  0.4465890000000  0.5690230000000  0.5067700000000 1.0
C      1  0.6039000000000  0.5356230000000  0.6011490000000 1.0
C      1  0.5085790000000  0.4031660000000  0.4850160000000 1.0
C      1  0.5060830000000  0.4287240000000  0.4956410000000 1.0
C      1  0.4996500000000  0.4453360000000  0.4500140000000 1.0
C      1  0.4739030000000  0.4108850000000  0.5565610000000 1.0
C      1  0.4742560000000  0.5031420000000  0.5864370000000 1.0
C      1  0.4504490000000  0.4990870000000  0.4689040000000 1.0
C      1  0.4417200000000  0.4771890000000  0.5385540000000 1.0
C      1  0.4925540000000  0.4804030000000  0.6234930000000 1.0
C      1  0.4907240000000  0.6059420000000  0.5133750000000 1.0
C      1  0.4928210000000  0.5486120000000  0.5013430000000 1.0
C      1  0.5844240000000  0.5544980000000  0.6099110000000 1.0
C      1  0.4150390000000  0.5156060000000  0.4966560000000 1.0
C      1  0.4894600000000  0.5102050000000  0.4154280000000 1.0
C      1  0.5957120000000  0.5588390000000  0.5368680000000 1.0
C      1  0.4456760000000  0.3882420000000  0.4929760000000 1.0
C      1  0.4965260000000  0.5453790000000  0.4736290000000 1.0
C      1  0.4398320000000  0.5559100000000  0.5511910000000 1.0
C      1  0.6177720000000  0.5285570000000  0.4428340000000 1.0
C      1  0.5004930000000  0.6050830000000  0.4137220000000 1.0
C      1  0.5419410000000  0.3783530000000  0.5066230000000 1.0
C      1  0.5988350000000  0.5477420000000  0.4412220000000 1.0
C      1  0.5779140000000  0.4538350000000  0.4279190000000 1.0
C      1  0.4918040000000  0.3813350000000  0.5230120000000 1.0
END
