TITL C-612603-7354-100 -16861.4673494181 125000 -1076.13806033257 0 0 176 (C1) n - 1
REM
REM in /home/nfs/bkarasulu/CARBON/AIRSS/Generating-Clusters/TERSOFF/Only-C1/FIRE-HFTN
REM
REM
REM
REM
REM
REM ./C.cell (11c1c37f851c82e70ff6c80c92926a4b)
REM AIRSS Version 0.9.1 bugfix July 2018 build 013d7b7c2542+ Fri, 06 Jul 2018 19:26:36 +0100
REM compiler GCC version 9.2.1 20190827 (Red Hat 9.2.1-1)
REM options -cpp -mtune=generic -march=x86-64 -g -O0 -fpre-include=/usr/include/finclude/math-vector-fortran.h
REM seed -32634228 -1887617914 -665574527 1171581050 1879345763 345892393 -1681625563 -1229944197 -1289304815 2133625144 289321244 1170085313 -387555114 -1522166283 966666816 -1299729819 740204504 1462181738 1553142845 -616254513 1082336740 -1139528462 -355476806 -1622769864 1912990239 1730067536 1894367976 404149850 -695141384 1488808347 -1335566341 2006353963 1236056434
REM
CELL 1.54180   50.00000   50.00000   50.00000   90.00000   90.00000   90.00000
LATT -1
SFAC C  
C      1  0.4015460000000  0.5434480000000  0.5572810000000 1.0
C      1  0.4082240000000  0.4217160000000  0.4629470000000 1.0
C      1  0.4224450000000  0.4181590000000  0.4850190000000 1.0
C      1  0.4058620000000  0.5205700000000  0.4414970000000 1.0
C      1  0.4915170000000  0.5133650000000  0.5159660000000 1.0
C      1  0.5226260000000  0.4466720000000  0.5484340000000 1.0
C      1  0.5748220000000  0.4835530000000  0.4968740000000 1.0
C      1  0.3986940000000  0.4827010000000  0.3501550000000 1.0
C      1  0.6055130000000  0.4687490000000  0.5750810000000 1.0
C      1  0.4384130000000  0.5754120000000  0.5521290000000 1.0
C      1  0.5809870000000  0.4840410000000  0.5245570000000 1.0
C      1  0.4226200000000  0.5850050000000  0.4508860000000 1.0
C      1  0.4251180000000  0.4903700000000  0.5773010000000 1.0
C      1  0.4425180000000  0.5129750000000  0.4054860000000 1.0
C      1  0.4660320000000  0.5735050000000  0.6014520000000 1.0
C      1  0.4798200000000  0.5372280000000  0.5679880000000 1.0
C      1  0.6036300000000  0.4530210000000  0.4707160000000 1.0
C      1  0.4708580000000  0.4847110000000  0.5563060000000 1.0
C      1  0.5565300000000  0.4033010000000  0.5694390000000 1.0
C      1  0.5902630000000  0.5531770000000  0.5199470000000 1.0
C      1  0.4664070000000  0.4593150000000  0.3105110000000 1.0
C      1  0.4900730000000  0.5413870000000  0.4223770000000 1.0
C      1  0.5678770000000  0.4302660000000  0.5247410000000 1.0
C      1  0.5590990000000  0.5874090000000  0.4598090000000 1.0
C      1  0.4729350000000  0.5713920000000  0.4561040000000 1.0
C      1  0.4132490000000  0.5012610000000  0.4835150000000 1.0
C      1  0.4658070000000  0.5000650000000  0.4778510000000 1.0
C      1  0.5041920000000  0.4760130000000  0.6250200000000 1.0
C      1  0.5584860000000  0.4109070000000  0.5066210000000 1.0
C      1  0.5731780000000  0.5747940000000  0.4273650000000 1.0
C      1  0.3973190000000  0.4301980000000  0.4403260000000 1.0
C      1  0.5259620000000  0.5343330000000  0.5459110000000 1.0
C      1  0.4851410000000  0.5473810000000  0.4492740000000 1.0
C      1  0.5501430000000  0.6466300000000  0.4964000000000 1.0
C      1  0.5112320000000  0.4677260000000  0.5072000000000 1.0
C      1  0.4206780000000  0.5089440000000  0.4225240000000 1.0
C      1  0.5187220000000  0.4920510000000  0.5588700000000 1.0
C      1  0.4995190000000  0.5343150000000  0.4701240000000 1.0
C      1  0.5270740000000  0.4024880000000  0.5717150000000 1.0
C      1  0.5540240000000  0.4468550000000  0.4711410000000 1.0
C      1  0.5132500000000  0.5959520000000  0.5326270000000 1.0
C      1  0.4702200000000  0.4482150000000  0.4805660000000 1.0
C      1  0.4397770000000  0.4210130000000  0.5066100000000 1.0
C      1  0.4643510000000  0.5214680000000  0.5249830000000 1.0
C      1  0.5622000000000  0.3841060000000  0.5475630000000 1.0
C      1  0.5301520000000  0.5191150000000  0.4094810000000 1.0
C      1  0.3899490000000  0.4544700000000  0.3940900000000 1.0
C      1  0.5534220000000  0.5293030000000  0.5356650000000 1.0
C      1  0.5205520000000  0.4877390000000  0.2714420000000 1.0
C      1  0.5200740000000  0.4777700000000  0.4416110000000 1.0
C      1  0.4523420000000  0.5006910000000  0.5402240000000 1.0
C      1  0.5885510000000  0.4245020000000  0.5432320000000 1.0
C      1  0.5096700000000  0.3902650000000  0.5494110000000 1.0
C      1  0.5118370000000  0.5098770000000  0.5366310000000 1.0
C      1  0.4876320000000  0.5070700000000  0.3889940000000 1.0
C      1  0.5030480000000  0.4224450000000  0.4583700000000 1.0
C      1  0.4775110000000  0.4764590000000  0.6716010000000 1.0
C      1  0.4412610000000  0.5380620000000  0.3912460000000 1.0
C      1  0.5029660000000  0.4512450000000  0.5286550000000 1.0
C      1  0.4928660000000  0.4669130000000  0.4382070000000 1.0
C      1  0.4899860000000  0.5308640000000  0.6136660000000 1.0
C      1  0.5045720000000  0.4825740000000  0.2919370000000 1.0
C      1  0.4906180000000  0.4753680000000  0.6491050000000 1.0
C      1  0.4601500000000  0.5493480000000  0.5184720000000 1.0
C      1  0.5277450000000  0.5796260000000  0.4254770000000 1.0
C      1  0.6235660000000  0.5217990000000  0.4267450000000 1.0
C      1  0.5206130000000  0.3864460000000  0.5230810000000 1.0
C      1  0.4921750000000  0.4894040000000  0.3382180000000 1.0
C      1  0.6385810000000  0.5008060000000  0.4329960000000 1.0
C      1  0.4868000000000  0.4456770000000  0.4577560000000 1.0
C      1  0.4280000000000  0.5495680000000  0.5593140000000 1.0
C      1  0.4117820000000  0.4686000000000  0.5371670000000 1.0
C      1  0.4374280000000  0.5138890000000  0.5896170000000 1.0
C      1  0.5362730000000  0.4928090000000  0.2512720000000 1.0
C      1  0.4895630000000  0.5882540000000  0.6076380000000 1.0
C      1  0.5966380000000  0.5564310000000  0.4923680000000 1.0
C      1  0.5517780000000  0.5377140000000  0.4056010000000 1.0
C      1  0.4646820000000  0.4563560000000  0.5550230000000 1.0
C      1  0.4096150000000  0.5505000000000  0.4806090000000 1.0
C      1  0.5786710000000  0.5277360000000  0.4068640000000 1.0
C      1  0.4201450000000  0.4184960000000  0.5526320000000 1.0
C      1  0.5407940000000  0.5490670000000  0.4939490000000 1.0
C      1  0.4809440000000  0.4088670000000  0.5814740000000 1.0
C      1  0.5668830000000  0.5763640000000  0.5562730000000 1.0
C      1  0.4331940000000  0.4052250000000  0.5743950000000 1.0
C      1  0.5417950000000  0.6230130000000  0.5035970000000 1.0
C      1  0.5368770000000  0.5108420000000  0.6210230000000 1.0
C      1  0.4936350000000  0.4909480000000  0.5766730000000 1.0
C      1  0.5575890000000  0.5251560000000  0.6082380000000 1.0
C      1  0.5399940000000  0.5829080000000  0.5962380000000 1.0
C      1  0.4924310000000  0.4992110000000  0.3628090000000 1.0
C      1  0.4562000000000  0.4503790000000  0.4117930000000 1.0
C      1  0.5495870000000  0.4983580000000  0.4956010000000 1.0
C      1  0.4562040000000  0.3919150000000  0.5436870000000 1.0
C      1  0.5274970000000  0.5390110000000  0.4706540000000 1.0
C      1  0.5151210000000  0.4481040000000  0.5855050000000 1.0
C      1  0.4885200000000  0.5141730000000  0.4869650000000 1.0
C      1  0.6099380000000  0.4916610000000  0.5608160000000 1.0
C      1  0.4393210000000  0.5869870000000  0.4981060000000 1.0
C      1  0.5997050000000  0.5453890000000  0.5974620000000 1.0
C      1  0.4457780000000  0.4427040000000  0.3097360000000 1.0
C      1  0.4363370000000  0.4071830000000  0.5305610000000 1.0
C      1  0.4719020000000  0.4720560000000  0.4187160000000 1.0
C      1  0.3910400000000  0.4416230000000  0.4172480000000 1.0
C      1  0.5959230000000  0.5036360000000  0.5390630000000 1.0
C      1  0.5318400000000  0.4821860000000  0.6206150000000 1.0
C      1  0.4253380000000  0.4925390000000  0.5467730000000 1.0
C      1  0.3706010000000  0.4709420000000  0.4948060000000 1.0
C      1  0.4615420000000  0.4393090000000  0.5060840000000 1.0
C      1  0.5033220000000  0.5512450000000  0.5547560000000 1.0
C      1  0.4489440000000  0.5331080000000  0.5696700000000 1.0
C      1  0.5196280000000  0.4102810000000  0.4775000000000 1.0
C      1  0.4270770000000  0.5778140000000  0.4254580000000 1.0
C      1  0.4627680000000  0.6301810000000  0.4983650000000 1.0
C      1  0.4244090000000  0.4603290000000  0.5800540000000 1.0
C      1  0.5461410000000  0.4209390000000  0.4824150000000 1.0
C      1  0.5034030000000  0.5255570000000  0.4031960000000 1.0
C      1  0.5823160000000  0.4527740000000  0.5807460000000 1.0
C      1  0.5333500000000  0.4661950000000  0.4646180000000 1.0
C      1  0.5412970000000  0.5205720000000  0.4540950000000 1.0
C      1  0.5480310000000  0.5740280000000  0.5091340000000 1.0
C      1  0.4936990000000  0.4685370000000  0.5973030000000 1.0
C      1  0.4068060000000  0.5249720000000  0.4692190000000 1.0
C      1  0.4814920000000  0.3929540000000  0.5563950000000 1.0
C      1  0.4421300000000  0.5284850000000  0.6142140000000 1.0
C      1  0.5334670000000  0.5982750000000  0.5132020000000 1.0
C      1  0.5488850000000  0.4482110000000  0.5362110000000 1.0
C      1  0.5837550000000  0.5294600000000  0.5362920000000 1.0
C      1  0.4040880000000  0.4966350000000  0.3287920000000 1.0
C      1  0.5995860000000  0.5356290000000  0.4247990000000 1.0
C      1  0.4898760000000  0.5184340000000  0.5878880000000 1.0
C      1  0.4424470000000  0.5724000000000  0.5231400000000 1.0
C      1  0.5590760000000  0.4690200000000  0.5840320000000 1.0
C      1  0.4125250000000  0.4463250000000  0.5558920000000 1.0
C      1  0.5137930000000  0.5267440000000  0.6279970000000 1.0
C      1  0.4344680000000  0.5613630000000  0.4057490000000 1.0
C      1  0.4612420000000  0.6043950000000  0.4891330000000 1.0
C      1  0.6265020000000  0.4587240000000  0.4584490000000 1.0
C      1  0.5873870000000  0.5656790000000  0.4675480000000 1.0
C      1  0.3931980000000  0.4682830000000  0.3717060000000 1.0
C      1  0.5485330000000  0.5244260000000  0.5071960000000 1.0
C      1  0.5085100000000  0.6006620000000  0.4655660000000 1.0
C      1  0.5397500000000  0.4609600000000  0.6017240000000 1.0
C      1  0.5091030000000  0.3933330000000  0.4980520000000 1.0
C      1  0.4809180000000  0.5942770000000  0.4704380000000 1.0
C      1  0.5783510000000  0.4605190000000  0.4796850000000 1.0
C      1  0.4661670000000  0.4964830000000  0.4046050000000 1.0
C      1  0.3926350000000  0.4846040000000  0.4919850000000 1.0
C      1  0.5781620000000  0.4251870000000  0.5707170000000 1.0
C      1  0.5493710000000  0.3879560000000  0.5220830000000 1.0
C      1  0.5159830000000  0.5903610000000  0.6048970000000 1.0
C      1  0.4544980000000  0.4185310000000  0.5860460000000 1.0
C      1  0.5700170000000  0.5721180000000  0.5283850000000 1.0
C      1  0.4445750000000  0.5391690000000  0.3641100000000 1.0
C      1  0.4219950000000  0.5757990000000  0.4776800000000 1.0
C      1  0.4877360000000  0.4771030000000  0.3135360000000 1.0
C      1  0.4250960000000  0.4268320000000  0.3097920000000 1.0
C      1  0.5599270000000  0.5684970000000  0.5826990000000 1.0
C      1  0.4650210000000  0.5466450000000  0.6152350000000 1.0
C      1  0.5722820000000  0.5460560000000  0.5958970000000 1.0
C      1  0.4848800000000  0.5630250000000  0.5141600000000 1.0
C      1  0.5930240000000  0.5585540000000  0.4399730000000 1.0
C      1  0.4668340000000  0.4595710000000  0.6037730000000 1.0
C      1  0.4520220000000  0.5831780000000  0.5771620000000 1.0
C      1  0.5079930000000  0.4189590000000  0.5873450000000 1.0
C      1  0.5498400000000  0.5653160000000  0.4143660000000 1.0
C      1  0.6400750000000  0.4768470000000  0.4444630000000 1.0
C      1  0.5594840000000  0.4739980000000  0.5395780000000 1.0
C      1  0.5320760000000  0.5030450000000  0.4333580000000 1.0
C      1  0.4401980000000  0.4938020000000  0.4819130000000 1.0
C      1  0.4988810000000  0.5724990000000  0.5365560000000 1.0
C      1  0.5280800000000  0.4807200000000  0.4890290000000 1.0
C      1  0.4753040000000  0.4455260000000  0.5307990000000 1.0
C      1  0.5470810000000  0.4847900000000  0.5627150000000 1.0
C      1  0.4519030000000  0.4477100000000  0.5821270000000 1.0
C      1  0.5318970000000  0.5912810000000  0.4518970000000 1.0
END
