TITL C-612605-9286-217 5.21101749020764e-05 125000 -1197.67265553726 0 0 191 (C1) n - 1
REM
REM in /home/nfs/bkarasulu/CARBON/AIRSS/Generating-Clusters/TERSOFF/Only-C1/FIRE-HFTN
REM
REM
REM
REM
REM
REM ./C.cell (11c1c37f851c82e70ff6c80c92926a4b)
REM AIRSS Version 0.9.1 bugfix July 2018 build 013d7b7c2542+ Fri, 06 Jul 2018 19:26:36 +0100
REM compiler GCC version 9.2.1 20190827 (Red Hat 9.2.1-1)
REM options -cpp -mtune=generic -march=x86-64 -g -O0 -fpre-include=/usr/include/finclude/math-vector-fortran.h
REM seed -1357432205 2054180982 303300465 974643559 1043632716 1979676317 -132774387 -7186385 174786347 422636907 1992611361 1236492306 2025654015 -2045383202 -179482812 1128215715 -1250172524 -199951933 -1049652161 -2101581446 -230780486 424757438 -1769898367 1776330482 -2058247077 -1510053053 -918592887 -1349796529 1712377208 -890905341 937250268 77167570 -1605883174
REM
CELL 1.54180   50.00000   50.00000   50.00000   90.00000   90.00000   90.00000
LATT -1
SFAC C  
C      1  0.5241650000000  0.6529480000000  0.4974530000000 1.0
C      1  0.5100190000000  0.4811500000000  0.5757200000000 1.0
C      1  0.4738860000000  0.4216610000000  0.6285200000000 1.0
C      1  0.4355450000000  0.4860770000000  0.4496140000000 1.0
C      1  0.4027540000000  0.5800780000000  0.5416310000000 1.0
C      1  0.4949740000000  0.3689230000000  0.4591860000000 1.0
C      1  0.4497560000000  0.5401940000000  0.4023980000000 1.0
C      1  0.5378690000000  0.5449740000000  0.5889290000000 1.0
C      1  0.5896050000000  0.4392030000000  0.4466490000000 1.0
C      1  0.4343150000000  0.5412180000000  0.5926110000000 1.0
C      1  0.6069740000000  0.5061090000000  0.4654980000000 1.0
C      1  0.4830380000000  0.5239550000000  0.4549660000000 1.0
C      1  0.4528990000000  0.5792010000000  0.4643630000000 1.0
C      1  0.4523360000000  0.4832290000000  0.5103490000000 1.0
C      1  0.5107410000000  0.4171550000000  0.5795110000000 1.0
C      1  0.4537240000000  0.4054350000000  0.4504030000000 1.0
C      1  0.5782560000000  0.6189050000000  0.5080100000000 1.0
C      1  0.5358100000000  0.4225970000000  0.5164390000000 1.0
C      1  0.4296460000000  0.5180920000000  0.4879700000000 1.0
C      1  0.5079610000000  0.4455180000000  0.4835830000000 1.0
C      1  0.5826620000000  0.4760680000000  0.6044640000000 1.0
C      1  0.4194250000000  0.4452160000000  0.5129400000000 1.0
C      1  0.5519720000000  0.5428810000000  0.4292630000000 1.0
C      1  0.4186240000000  0.4397670000000  0.4567960000000 1.0
C      1  0.4757210000000  0.5321510000000  0.3932370000000 1.0
C      1  0.5731480000000  0.4460250000000  0.4022600000000 1.0
C      1  0.5263830000000  0.4612780000000  0.5882990000000 1.0
C      1  0.4857910000000  0.4591990000000  0.5442520000000 1.0
C      1  0.4335080000000  0.4207140000000  0.4373850000000 1.0
C      1  0.5248690000000  0.5340700000000  0.3899730000000 1.0
C      1  0.5677360000000  0.6423380000000  0.5195970000000 1.0
C      1  0.5351300000000  0.4754700000000  0.6129200000000 1.0
C      1  0.4027650000000  0.4525520000000  0.5360390000000 1.0
C      1  0.4826320000000  0.4186720000000  0.5733480000000 1.0
C      1  0.5892670000000  0.5979760000000  0.5231210000000 1.0
C      1  0.5045000000000  0.6350920000000  0.4885320000000 1.0
C      1  0.5499990000000  0.4152980000000  0.4913090000000 1.0
C      1  0.4473430000000  0.5116680000000  0.5096530000000 1.0
C      1  0.5333980000000  0.5380710000000  0.4790190000000 1.0
C      1  0.5251500000000  0.5869030000000  0.4348050000000 1.0
C      1  0.5065400000000  0.5781470000000  0.5433200000000 1.0
C      1  0.5488290000000  0.5983760000000  0.5607900000000 1.0
C      1  0.4104700000000  0.5297890000000  0.5886910000000 1.0
C      1  0.5499790000000  0.4356840000000  0.4709880000000 1.0
C      1  0.5153840000000  0.5230690000000  0.5483840000000 1.0
C      1  0.5519010000000  0.4109480000000  0.4332560000000 1.0
C      1  0.4412270000000  0.4949770000000  0.5602030000000 1.0
C      1  0.5105200000000  0.5673660000000  0.4480570000000 1.0
C      1  0.5271260000000  0.5389670000000  0.4479530000000 1.0
C      1  0.5499690000000  0.5749960000000  0.4252190000000 1.0
C      1  0.4205350000000  0.5961470000000  0.5272960000000 1.0
C      1  0.4337310000000  0.4006060000000  0.5472080000000 1.0
C      1  0.6055630000000  0.5544540000000  0.5395260000000 1.0
C      1  0.5094750000000  0.5662810000000  0.5181510000000 1.0
C      1  0.4734430000000  0.5155100000000  0.6098670000000 1.0
C      1  0.4373730000000  0.5684190000000  0.4426730000000 1.0
C      1  0.4581950000000  0.4375980000000  0.6107870000000 1.0
C      1  0.5503610000000  0.5514190000000  0.5633610000000 1.0
C      1  0.5613830000000  0.4689570000000  0.6215550000000 1.0
C      1  0.5758270000000  0.4270780000000  0.4240250000000 1.0
C      1  0.4398740000000  0.4266890000000  0.4099600000000 1.0
C      1  0.5476140000000  0.5247540000000  0.6078730000000 1.0
C      1  0.5612530000000  0.4967040000000  0.4056350000000 1.0
C      1  0.5452260000000  0.5163690000000  0.4931920000000 1.0
C      1  0.4647250000000  0.5889110000000  0.4093830000000 1.0
C      1  0.5927030000000  0.5156410000000  0.4431430000000 1.0
C      1  0.5534900000000  0.5203830000000  0.5206650000000 1.0
C      1  0.5542060000000  0.3895940000000  0.4789140000000 1.0
C      1  0.6094800000000  0.4698000000000  0.6081450000000 1.0
C      1  0.4489680000000  0.5973300000000  0.5314030000000 1.0
C      1  0.4564530000000  0.4264580000000  0.5835320000000 1.0
C      1  0.3992720000000  0.4783190000000  0.4215140000000 1.0
C      1  0.6221190000000  0.5028390000000  0.5342430000000 1.0
C      1  0.5075610000000  0.4694650000000  0.5297480000000 1.0
C      1  0.4991670000000  0.5691100000000  0.4733950000000 1.0
C      1  0.5273230000000  0.5041740000000  0.6156080000000 1.0
C      1  0.4732000000000  0.4655200000000  0.4282050000000 1.0
C      1  0.4721710000000  0.3950410000000  0.5195450000000 1.0
C      1  0.5851640000000  0.4986040000000  0.4217820000000 1.0
C      1  0.5603370000000  0.3668280000000  0.4938680000000 1.0
C      1  0.4834960000000  0.5542110000000  0.5815240000000 1.0
C      1  0.4821560000000  0.4437910000000  0.3824620000000 1.0
C      1  0.5048400000000  0.4953980000000  0.4207950000000 1.0
C      1  0.4849550000000  0.4392890000000  0.4675110000000 1.0
C      1  0.4840460000000  0.4206120000000  0.5189110000000 1.0
C      1  0.4967570000000  0.4914630000000  0.4889470000000 1.0
C      1  0.4729530000000  0.5290360000000  0.5118990000000 1.0
C      1  0.4621200000000  0.5389970000000  0.5952490000000 1.0
C      1  0.5305310000000  0.4371340000000  0.5699300000000 1.0
C      1  0.4411760000000  0.6167170000000  0.4895540000000 1.0
C      1  0.5044540000000  0.5224590000000  0.4339130000000 1.0
C      1  0.3772410000000  0.5198860000000  0.5083870000000 1.0
C      1  0.6335010000000  0.4703250000000  0.5966100000000 1.0
C      1  0.6168560000000  0.5304390000000  0.5368340000000 1.0
C      1  0.5085490000000  0.5439170000000  0.5934870000000 1.0
C      1  0.4494620000000  0.5659310000000  0.4165510000000 1.0
C      1  0.5876980000000  0.5760900000000  0.5409240000000 1.0
C      1  0.4611420000000  0.4900770000000  0.6044510000000 1.0
C      1  0.4559930000000  0.5273090000000  0.4495520000000 1.0
C      1  0.5004960000000  0.4699390000000  0.4337360000000 1.0
C      1  0.5718370000000  0.6160040000000  0.4808430000000 1.0
C      1  0.4849440000000  0.6275300000000  0.5074960000000 1.0
C      1  0.3987630000000  0.4563030000000  0.4384720000000 1.0
C      1  0.5182050000000  0.5595280000000  0.4930740000000 1.0
C      1  0.4590870000000  0.4329320000000  0.3917910000000 1.0
C      1  0.5148560000000  0.4061900000000  0.6055550000000 1.0
C      1  0.5257600000000  0.5012260000000  0.5643000000000 1.0
C      1  0.5193240000000  0.4737570000000  0.4806870000000 1.0
C      1  0.4842060000000  0.4738890000000  0.5674410000000 1.0
C      1  0.5022680000000  0.5191430000000  0.6106860000000 1.0
C      1  0.3812810000000  0.4945670000000  0.5165020000000 1.0
C      1  0.4755630000000  0.6099960000000  0.4226250000000 1.0
C      1  0.4159240000000  0.6045940000000  0.4993870000000 1.0
C      1  0.4272150000000  0.5214310000000  0.4031080000000 1.0
C      1  0.4326760000000  0.4008030000000  0.4943340000000 1.0
C      1  0.4106780000000  0.5627780000000  0.4448380000000 1.0
C      1  0.4977020000000  0.4090480000000  0.6263780000000 1.0
C      1  0.4719770000000  0.5681320000000  0.4826270000000 1.0
C      1  0.4946280000000  0.5178130000000  0.5300200000000 1.0
C      1  0.4777230000000  0.6177740000000  0.4501330000000 1.0
C      1  0.4379530000000  0.4614080000000  0.4631350000000 1.0
C      1  0.5034520000000  0.4937570000000  0.5174820000000 1.0
C      1  0.4330750000000  0.4217960000000  0.5665160000000 1.0
C      1  0.3873880000000  0.4905210000000  0.5633700000000 1.0
C      1  0.4712380000000  0.5581480000000  0.5109880000000 1.0
C      1  0.5210410000000  0.4506100000000  0.4289170000000 1.0
C      1  0.6059210000000  0.4872850000000  0.5161660000000 1.0
C      1  0.3889460000000  0.4778300000000  0.5380060000000 1.0
C      1  0.5811200000000  0.4769780000000  0.5271780000000 1.0
C      1  0.4434380000000  0.3960960000000  0.5211340000000 1.0
C      1  0.5123820000000  0.5237560000000  0.3657080000000 1.0
C      1  0.5045030000000  0.6231310000000  0.4621980000000 1.0
C      1  0.5702240000000  0.4515990000000  0.5359580000000 1.0
C      1  0.4739190000000  0.3725400000000  0.4783740000000 1.0
C      1  0.5458710000000  0.6562930000000  0.5126670000000 1.0
C      1  0.4792660000000  0.4178070000000  0.4507140000000 1.0
C      1  0.3821590000000  0.5668530000000  0.4898330000000 1.0
C      1  0.4555670000000  0.4654430000000  0.6174150000000 1.0
C      1  0.5279140000000  0.4564160000000  0.4007880000000 1.0
C      1  0.4687520000000  0.4426200000000  0.5296210000000 1.0
C      1  0.4546390000000  0.6081800000000  0.4658060000000 1.0
C      1  0.3871350000000  0.5589270000000  0.5359510000000 1.0
C      1  0.5005900000000  0.5395040000000  0.4079030000000 1.0
C      1  0.4122500000000  0.4403990000000  0.5605310000000 1.0
C      1  0.5892320000000  0.5674730000000  0.4485450000000 1.0
C      1  0.5460840000000  0.4355180000000  0.5417670000000 1.0
C      1  0.5734650000000  0.4511400000000  0.4668500000000 1.0
C      1  0.5737590000000  0.4896560000000  0.5813060000000 1.0
C      1  0.4609390000000  0.4859600000000  0.5763300000000 1.0
C      1  0.5447590000000  0.3878820000000  0.4509550000000 1.0
C      1  0.5798330000000  0.5409710000000  0.4424140000000 1.0
C      1  0.4819020000000  0.3724170000000  0.5058490000000 1.0
C      1  0.5642290000000  0.4982670000000  0.5351230000000 1.0
C      1  0.4967950000000  0.4895220000000  0.3921030000000 1.0
C      1  0.4636730000000  0.4568030000000  0.4730920000000 1.0
C      1  0.4712590000000  0.4771790000000  0.4899690000000 1.0
C      1  0.5193570000000  0.3745900000000  0.4487520000000 1.0
C      1  0.3941940000000  0.5106170000000  0.5796440000000 1.0
C      1  0.4098880000000  0.5009160000000  0.4095450000000 1.0
C      1  0.4822560000000  0.5695930000000  0.5571710000000 1.0
C      1  0.5354820000000  0.4327590000000  0.4454700000000 1.0
C      1  0.5091180000000  0.4284580000000  0.5073400000000 1.0
C      1  0.4513780000000  0.4811680000000  0.4263270000000 1.0
C      1  0.5478260000000  0.5239770000000  0.4046850000000 1.0
C      1  0.5037380000000  0.4622930000000  0.3854490000000 1.0
C      1  0.5710200000000  0.5883530000000  0.4413220000000 1.0
C      1  0.6454630000000  0.4782150000000  0.5741230000000 1.0
C      1  0.4182460000000  0.4260520000000  0.4900220000000 1.0
C      1  0.5545020000000  0.4963410000000  0.5618980000000 1.0
C      1  0.5229220000000  0.5984690000000  0.5534720000000 1.0
C      1  0.4624950000000  0.5726390000000  0.5356370000000 1.0
C      1  0.5543440000000  0.4680630000000  0.3985330000000 1.0
C      1  0.6407150000000  0.4902410000000  0.5508490000000 1.0
C      1  0.4885340000000  0.5180320000000  0.4806510000000 1.0
C      1  0.4497360000000  0.3887430000000  0.4729770000000 1.0
C      1  0.3801930000000  0.5477690000000  0.5108180000000 1.0
C      1  0.5396310000000  0.5370640000000  0.5405310000000 1.0
C      1  0.5441010000000  0.4894250000000  0.4816660000000 1.0
C      1  0.4873020000000  0.5112710000000  0.3758930000000 1.0
C      1  0.4455580000000  0.4565300000000  0.5194800000000 1.0
C      1  0.6101170000000  0.4930660000000  0.4887590000000 1.0
C      1  0.3952620000000  0.5903810000000  0.4863890000000 1.0
C      1  0.4596850000000  0.6169960000000  0.5126230000000 1.0
C      1  0.5237550000000  0.3440490000000  0.5188830000000 1.0
C      1  0.4988930000000  0.3534440000000  0.5169810000000 1.0
C      1  0.5649320000000  0.5752780000000  0.5581350000000 1.0
C      1  0.5679030000000  0.4776830000000  0.4726290000000 1.0
C      1  0.5483590000000  0.3490120000000  0.5097560000000 1.0
C      1  0.4353770000000  0.5118470000000  0.4608250000000 1.0
C      1  0.5291690000000  0.6111190000000  0.4510470000000 1.0
C      1  0.5584040000000  0.6090520000000  0.4574550000000 1.0
END
