TITL C-612601-4209-19 0.449089780652168 125000 -998.352452592568 0 0 162 (C1) n - 1
REM
REM in /home/nfs/bkarasulu/CARBON/AIRSS/Generating-Clusters/TERSOFF/Only-C1/FIRE-HFTN
REM
REM
REM
REM
REM
REM ./C.cell (11c1c37f851c82e70ff6c80c92926a4b)
REM AIRSS Version 0.9.1 bugfix July 2018 build 013d7b7c2542+ Fri, 06 Jul 2018 19:26:36 +0100
REM compiler GCC version 9.2.1 20190827 (Red Hat 9.2.1-1)
REM options -cpp -mtune=generic -march=x86-64 -g -O0 -fpre-include=/usr/include/finclude/math-vector-fortran.h
REM seed 1591748231 -2081289524 -1041018976 -1936206765 1033553942 1821283544 1277691345 -686735776 -1004815854 1698220824 -225311931 1755593781 -1426152871 162745394 717466129 -218310739 -2024479445 -1293257128 -2132014403 -1574465082 817994605 48937960 -2102903188 1384607928 -978576217 2076740494 -1464239986 71296562 40730294 -1549474458 1648982451 776617438 -1377724874
REM
CELL 1.54180   50.00000   50.00000   50.00000   90.00000   90.00000   90.00000
LATT -1
SFAC C  
C      1  0.4876470000000  0.5542980000000  0.5969570000000 1.0
C      1  0.5514370000000  0.3917230000000  0.5150660000000 1.0
C      1  0.4919850000000  0.4843570000000  0.5278770000000 1.0
C      1  0.4577030000000  0.5236050000000  0.5134560000000 1.0
C      1  0.4955550000000  0.4412260000000  0.5984640000000 1.0
C      1  0.5238260000000  0.4517740000000  0.4503280000000 1.0
C      1  0.4500050000000  0.4831680000000  0.4884530000000 1.0
C      1  0.5706450000000  0.4760660000000  0.4160210000000 1.0
C      1  0.5466060000000  0.3811090000000  0.4891330000000 1.0
C      1  0.4233890000000  0.4075850000000  0.4536000000000 1.0
C      1  0.5760930000000  0.6217930000000  0.5067480000000 1.0
C      1  0.4938360000000  0.5981150000000  0.5240590000000 1.0
C      1  0.5615090000000  0.4743360000000  0.5563510000000 1.0
C      1  0.3802990000000  0.5921690000000  0.5213200000000 1.0
C      1  0.5401660000000  0.4359250000000  0.5760320000000 1.0
C      1  0.4488940000000  0.4919060000000  0.4009120000000 1.0
C      1  0.5373220000000  0.5397320000000  0.5031500000000 1.0
C      1  0.4722170000000  0.5303560000000  0.5983800000000 1.0
C      1  0.4588410000000  0.5211830000000  0.5748040000000 1.0
C      1  0.5441980000000  0.4923620000000  0.5728280000000 1.0
C      1  0.5340990000000  0.4679560000000  0.6119430000000 1.0
C      1  0.5285430000000  0.3856350000000  0.5324580000000 1.0
C      1  0.4037610000000  0.4952800000000  0.4619380000000 1.0
C      1  0.4095820000000  0.5398240000000  0.4830250000000 1.0
C      1  0.5157430000000  0.5958560000000  0.5429400000000 1.0
C      1  0.4232930000000  0.5146670000000  0.4482230000000 1.0
C      1  0.5923880000000  0.5508700000000  0.4923340000000 1.0
C      1  0.4374110000000  0.5283280000000  0.5576550000000 1.0
C      1  0.4140470000000  0.4669110000000  0.4621730000000 1.0
C      1  0.4851730000000  0.4574060000000  0.6196190000000 1.0
C      1  0.5804800000000  0.5382510000000  0.4687340000000 1.0
C      1  0.4616950000000  0.5900390000000  0.5722780000000 1.0
C      1  0.6281280000000  0.4947160000000  0.5476410000000 1.0
C      1  0.4517220000000  0.3993810000000  0.5472580000000 1.0
C      1  0.4850040000000  0.5061130000000  0.4457650000000 1.0
C      1  0.5088380000000  0.4520690000000  0.3816930000000 1.0
C      1  0.5736280000000  0.5111830000000  0.4745640000000 1.0
C      1  0.4743110000000  0.4838780000000  0.6197670000000 1.0
C      1  0.5141620000000  0.5213710000000  0.4089440000000 1.0
C      1  0.5812700000000  0.4863080000000  0.5387910000000 1.0
C      1  0.4402490000000  0.4646720000000  0.4463570000000 1.0
C      1  0.4487620000000  0.4800980000000  0.6069480000000 1.0
C      1  0.3929920000000  0.5144240000000  0.4853610000000 1.0
C      1  0.5380840000000  0.5576650000000  0.4354850000000 1.0
C      1  0.3949350000000  0.5835880000000  0.5008890000000 1.0
C      1  0.4821150000000  0.5345120000000  0.4057880000000 1.0
C      1  0.4846720000000  0.5288030000000  0.4593850000000 1.0
C      1  0.5740560000000  0.4120820000000  0.4399620000000 1.0
C      1  0.4460300000000  0.5870320000000  0.5507830000000 1.0
C      1  0.4335130000000  0.5275060000000  0.4721440000000 1.0
C      1  0.5552480000000  0.5660000000000  0.5738660000000 1.0
C      1  0.5804480000000  0.5738440000000  0.5045610000000 1.0
C      1  0.6111630000000  0.5028650000000  0.5025320000000 1.0
C      1  0.5242770000000  0.4449220000000  0.5973720000000 1.0
C      1  0.5779080000000  0.4173960000000  0.4658840000000 1.0
C      1  0.5065090000000  0.4382980000000  0.4670390000000 1.0
C      1  0.4130310000000  0.5681670000000  0.4863210000000 1.0
C      1  0.4427970000000  0.5677370000000  0.5324600000000 1.0
C      1  0.4308910000000  0.4378640000000  0.5622980000000 1.0
C      1  0.5951720000000  0.6680940000000  0.4907770000000 1.0
C      1  0.4755290000000  0.4205220000000  0.4016720000000 1.0
C      1  0.5676970000000  0.4617290000000  0.4826380000000 1.0
C      1  0.4931590000000  0.4365020000000  0.5499060000000 1.0
C      1  0.3700840000000  0.5779890000000  0.5694480000000 1.0
C      1  0.4796250000000  0.4446490000000  0.4759620000000 1.0
C      1  0.3965770000000  0.5091260000000  0.5375150000000 1.0
C      1  0.5495110000000  0.4313300000000  0.3983060000000 1.0
C      1  0.4693350000000  0.4953500000000  0.5674720000000 1.0
C      1  0.4736860000000  0.3908280000000  0.5290790000000 1.0
C      1  0.5353900000000  0.4548720000000  0.3912410000000 1.0
C      1  0.5737140000000  0.5131700000000  0.5347120000000 1.0
C      1  0.4212710000000  0.4528920000000  0.5129280000000 1.0
C      1  0.5143010000000  0.3836110000000  0.4524500000000 1.0
C      1  0.4601000000000  0.4647680000000  0.4683930000000 1.0
C      1  0.5324070000000  0.5728580000000  0.4112250000000 1.0
C      1  0.5421810000000  0.5976090000000  0.5310260000000 1.0
C      1  0.4878690000000  0.5089390000000  0.6130800000000 1.0
C      1  0.5383110000000  0.5074900000000  0.3968900000000 1.0
C      1  0.4338820000000  0.5260730000000  0.4247130000000 1.0
C      1  0.4134380000000  0.4457010000000  0.4850450000000 1.0
C      1  0.4881830000000  0.5404750000000  0.4841340000000 1.0
C      1  0.4680610000000  0.4697060000000  0.5263170000000 1.0
C      1  0.6116490000000  0.5323530000000  0.5041670000000 1.0
C      1  0.5011380000000  0.3837520000000  0.5339200000000 1.0
C      1  0.5208330000000  0.4756990000000  0.4395580000000 1.0
C      1  0.4953740000000  0.4839740000000  0.4325620000000 1.0
C      1  0.5174680000000  0.5164980000000  0.6080990000000 1.0
C      1  0.5980860000000  0.4946340000000  0.4784700000000 1.0
C      1  0.5203380000000  0.4210360000000  0.4848380000000 1.0
C      1  0.5520170000000  0.4939750000000  0.4863760000000 1.0
C      1  0.6036700000000  0.5688330000000  0.4393920000000 1.0
C      1  0.4367020000000  0.4027180000000  0.4310480000000 1.0
C      1  0.5856910000000  0.6451500000000  0.4987360000000 1.0
C      1  0.5300750000000  0.5680040000000  0.5853780000000 1.0
C      1  0.5450900000000  0.4362750000000  0.5275990000000 1.0
C      1  0.4196680000000  0.4345500000000  0.5355090000000 1.0
C      1  0.5203020000000  0.5006040000000  0.5602410000000 1.0
C      1  0.5631620000000  0.4167320000000  0.4160310000000 1.0
C      1  0.5375240000000  0.5472640000000  0.5314340000000 1.0
C      1  0.4514130000000  0.4706350000000  0.4203180000000 1.0
C      1  0.3938730000000  0.5345150000000  0.5787500000000 1.0
C      1  0.5291590000000  0.5731270000000  0.4583380000000 1.0
C      1  0.4460810000000  0.5108980000000  0.4906400000000 1.0
C      1  0.4559120000000  0.4064070000000  0.4129650000000 1.0
C      1  0.5055850000000  0.3697700000000  0.4321650000000 1.0
C      1  0.4216740000000  0.4178650000000  0.4796000000000 1.0
C      1  0.5596240000000  0.5536230000000  0.5492040000000 1.0
C      1  0.5265460000000  0.5320280000000  0.4332160000000 1.0
C      1  0.5214980000000  0.4327670000000  0.5117140000000 1.0
C      1  0.6261090000000  0.5179460000000  0.5617000000000 1.0
C      1  0.5310370000000  0.5097730000000  0.4991420000000 1.0
C      1  0.4509520000000  0.4774930000000  0.5798670000000 1.0
C      1  0.5785290000000  0.5341030000000  0.4182400000000 1.0
C      1  0.4096370000000  0.5216980000000  0.5594140000000 1.0
C      1  0.5028210000000  0.4560270000000  0.3553290000000 1.0
C      1  0.5632870000000  0.4191930000000  0.5134420000000 1.0
C      1  0.4358580000000  0.5801900000000  0.4729140000000 1.0
C      1  0.4796050000000  0.4650700000000  0.4185370000000 1.0
C      1  0.4639600000000  0.5904520000000  0.4792170000000 1.0
C      1  0.5859440000000  0.4702950000000  0.4373530000000 1.0
C      1  0.3879230000000  0.5067380000000  0.5121400000000 1.0
C      1  0.5050930000000  0.5808760000000  0.4160510000000 1.0
C      1  0.5111750000000  0.5855990000000  0.5703390000000 1.0
C      1  0.3709620000000  0.5909810000000  0.5462010000000 1.0
C      1  0.4852550000000  0.5786180000000  0.5817590000000 1.0
C      1  0.4848540000000  0.5237780000000  0.5060110000000 1.0
C      1  0.5278280000000  0.5617330000000  0.4848800000000 1.0
C      1  0.6063180000000  0.5364640000000  0.5608110000000 1.0
C      1  0.4282080000000  0.4071770000000  0.5289290000000 1.0
C      1  0.4886190000000  0.4452920000000  0.4005010000000 1.0
C      1  0.5506910000000  0.4479060000000  0.5526300000000 1.0
C      1  0.4804210000000  0.4316370000000  0.5749280000000 1.0
C      1  0.4998850000000  0.5645890000000  0.4911860000000 1.0
C      1  0.4556960000000  0.5193750000000  0.4069050000000 1.0
C      1  0.5040540000000  0.5025770000000  0.5091380000000 1.0
C      1  0.3788260000000  0.5562780000000  0.5822520000000 1.0
C      1  0.5812970000000  0.5364800000000  0.5477710000000 1.0
C      1  0.5708920000000  0.4329000000000  0.4886420000000 1.0
C      1  0.5899590000000  0.4705360000000  0.4653090000000 1.0
C      1  0.4648140000000  0.4039380000000  0.5035000000000 1.0
C      1  0.4806870000000  0.5639590000000  0.4127210000000 1.0
C      1  0.4781530000000  0.5903780000000  0.4530410000000 1.0
C      1  0.4362660000000  0.5756340000000  0.4437710000000 1.0
C      1  0.5366100000000  0.4943810000000  0.6012150000000 1.0
C      1  0.4837750000000  0.5862710000000  0.5002050000000 1.0
C      1  0.5658710000000  0.5967450000000  0.5144780000000 1.0
C      1  0.4943820000000  0.4932110000000  0.5545050000000 1.0
C      1  0.4621680000000  0.5763020000000  0.4319330000000 1.0
C      1  0.5470250000000  0.4796390000000  0.3996650000000 1.0
C      1  0.5061110000000  0.5886990000000  0.4459730000000 1.0
C      1  0.5617990000000  0.5246690000000  0.3991850000000 1.0
C      1  0.4455210000000  0.5398410000000  0.5328670000000 1.0
C      1  0.5165330000000  0.5462890000000  0.6000430000000 1.0
C      1  0.4957580000000  0.4353130000000  0.5221000000000 1.0
C      1  0.4765600000000  0.4297310000000  0.5010280000000 1.0
C      1  0.6088440000000  0.4872670000000  0.5278570000000 1.0
C      1  0.4540900000000  0.4205810000000  0.5685670000000 1.0
C      1  0.5873640000000  0.5468350000000  0.4421070000000 1.0
C      1  0.4357360000000  0.4043290000000  0.5009450000000 1.0
C      1  0.5268570000000  0.3949820000000  0.4744880000000 1.0
C      1  0.4440280000000  0.4697180000000  0.5127670000000 1.0
C      1  0.5125900000000  0.5452500000000  0.5431870000000 1.0
END
