TITL C-612602-9376-149 0.00470218649971773 125000 -962.605654783422 0 0 160 (C1) n - 1
REM
REM in /home/nfs/bkarasulu/CARBON/AIRSS/Generating-Clusters/TERSOFF/Only-C1/FIRE-HFTN
REM
REM
REM
REM
REM
REM ./C.cell (11c1c37f851c82e70ff6c80c92926a4b)
REM AIRSS Version 0.9.1 bugfix July 2018 build 013d7b7c2542+ Fri, 06 Jul 2018 19:26:36 +0100
REM compiler GCC version 9.2.1 20190827 (Red Hat 9.2.1-1)
REM options -cpp -mtune=generic -march=x86-64 -g -O0 -fpre-include=/usr/include/finclude/math-vector-fortran.h
REM seed -910683336 -252639277 1652445867 215682393 1365718480 -918883131 -1724334310 -503899890 412547493 231584366 -912790429 284461507 -1084746430 -493402834 -996279701 -232814040 262399867 167544500 2146634926 -79271320 -1759440316 -231586257 -14703391 -1905810519 1202615173 -1283155592 1232361552 161683221 -1416837544 1899277107 -1109171062 -63064780 -1828330753
REM
CELL 1.54180   50.00000   50.00000   50.00000   90.00000   90.00000   90.00000
LATT -1
SFAC C  
C      1  0.5110150000000  0.3875680000000  0.5179330000000 1.0
C      1  0.5739160000000  0.5945100000000  0.4971940000000 1.0
C      1  0.5334980000000  0.4745460000000  0.5811530000000 1.0
C      1  0.4326860000000  0.5419380000000  0.5033250000000 1.0
C      1  0.4576520000000  0.4956660000000  0.4913580000000 1.0
C      1  0.5178130000000  0.5397700000000  0.5167780000000 1.0
C      1  0.4900160000000  0.4130000000000  0.6419880000000 1.0
C      1  0.4977210000000  0.4088540000000  0.4373950000000 1.0
C      1  0.4047820000000  0.4934080000000  0.4143420000000 1.0
C      1  0.5438880000000  0.4715550000000  0.4878680000000 1.0
C      1  0.4297710000000  0.5337470000000  0.5522090000000 1.0
C      1  0.5688020000000  0.4183170000000  0.4951400000000 1.0
C      1  0.4624470000000  0.4621140000000  0.5946640000000 1.0
C      1  0.4921220000000  0.5055690000000  0.5453680000000 1.0
C      1  0.4351920000000  0.4225490000000  0.5666000000000 1.0
C      1  0.5271010000000  0.4534420000000  0.5626160000000 1.0
C      1  0.5383050000000  0.5102140000000  0.4049270000000 1.0
C      1  0.5282500000000  0.5050930000000  0.5791850000000 1.0
C      1  0.5144070000000  0.4434030000000  0.5175850000000 1.0
C      1  0.4895330000000  0.4399120000000  0.4029580000000 1.0
C      1  0.4432080000000  0.5234240000000  0.4567320000000 1.0
C      1  0.5325040000000  0.4995240000000  0.4779420000000 1.0
C      1  0.4960720000000  0.5402020000000  0.4161960000000 1.0
C      1  0.5086090000000  0.4221940000000  0.4161990000000 1.0
C      1  0.4887670000000  0.3952070000000  0.4780730000000 1.0
C      1  0.5460090000000  0.5136500000000  0.5564950000000 1.0
C      1  0.4956990000000  0.4863620000000  0.4067800000000 1.0
C      1  0.5437770000000  0.5287180000000  0.4727510000000 1.0
C      1  0.4408720000000  0.5811180000000  0.4131220000000 1.0
C      1  0.4329730000000  0.5233330000000  0.5248000000000 1.0
C      1  0.4520130000000  0.4861370000000  0.3892280000000 1.0
C      1  0.5579910000000  0.5560630000000  0.5416220000000 1.0
C      1  0.4077730000000  0.5525140000000  0.4982720000000 1.0
C      1  0.4170790000000  0.4674840000000  0.4199200000000 1.0
C      1  0.4755470000000  0.5641110000000  0.5056160000000 1.0
C      1  0.5855440000000  0.5551470000000  0.4737780000000 1.0
C      1  0.4675380000000  0.4672970000000  0.5284450000000 1.0
C      1  0.4911160000000  0.5977260000000  0.4113510000000 1.0
C      1  0.5958760000000  0.4619350000000  0.5124180000000 1.0
C      1  0.4447930000000  0.4756560000000  0.5100120000000 1.0
C      1  0.5637450000000  0.4749050000000  0.5854240000000 1.0
C      1  0.5644500000000  0.5828980000000  0.4381040000000 1.0
C      1  0.5661100000000  0.5385800000000  0.5899200000000 1.0
C      1  0.6046670000000  0.5428130000000  0.5351000000000 1.0
C      1  0.6001480000000  0.4835640000000  0.4919040000000 1.0
C      1  0.5332870000000  0.3979270000000  0.5326630000000 1.0
C      1  0.4899790000000  0.5227700000000  0.4740210000000 1.0
C      1  0.4455040000000  0.5536880000000  0.5647300000000 1.0
C      1  0.4901780000000  0.4568900000000  0.5147210000000 1.0
C      1  0.4567770000000  0.5517220000000  0.4904910000000 1.0
C      1  0.4650220000000  0.5920180000000  0.4086900000000 1.0
C      1  0.4408840000000  0.5894790000000  0.5309430000000 1.0
C      1  0.5277610000000  0.5560520000000  0.5392670000000 1.0
C      1  0.5343190000000  0.4583300000000  0.4027270000000 1.0
C      1  0.4949800000000  0.4699270000000  0.4888130000000 1.0
C      1  0.4574550000000  0.5755420000000  0.5503930000000 1.0
C      1  0.5389610000000  0.6138540000000  0.5231350000000 1.0
C      1  0.5239370000000  0.5423260000000  0.6088760000000 1.0
C      1  0.4806320000000  0.5288150000000  0.3949970000000 1.0
C      1  0.5444650000000  0.4791700000000  0.4402130000000 1.0
C      1  0.3670380000000  0.4805710000000  0.4928710000000 1.0
C      1  0.5759530000000  0.5266050000000  0.4710820000000 1.0
C      1  0.5569670000000  0.4064640000000  0.5187140000000 1.0
C      1  0.4132800000000  0.5134570000000  0.5649700000000 1.0
C      1  0.5065300000000  0.5397450000000  0.6309370000000 1.0
C      1  0.5843260000000  0.5685510000000  0.4989920000000 1.0
C      1  0.4861790000000  0.5822040000000  0.5524170000000 1.0
C      1  0.4666190000000  0.3795300000000  0.4752990000000 1.0
C      1  0.5648420000000  0.4951920000000  0.6074120000000 1.0
C      1  0.5958590000000  0.4705670000000  0.5403230000000 1.0
C      1  0.4928910000000  0.4189970000000  0.4632820000000 1.0
C      1  0.5873740000000  0.5707680000000  0.4495770000000 1.0
C      1  0.5486550000000  0.5030560000000  0.5316520000000 1.0
C      1  0.4651900000000  0.4846440000000  0.5786100000000 1.0
C      1  0.4837760000000  0.3898810000000  0.5264280000000 1.0
C      1  0.4305710000000  0.5964920000000  0.5066920000000 1.0
C      1  0.4763740000000  0.4378390000000  0.5962480000000 1.0
C      1  0.4805900000000  0.5507700000000  0.4383280000000 1.0
C      1  0.4622740000000  0.4448090000000  0.4136480000000 1.0
C      1  0.5357950000000  0.5377930000000  0.4444600000000 1.0
C      1  0.4723140000000  0.4842380000000  0.5504090000000 1.0
C      1  0.4113580000000  0.5431110000000  0.4286380000000 1.0
C      1  0.5171350000000  0.5971420000000  0.4178510000000 1.0
C      1  0.4776940000000  0.5081470000000  0.5900260000000 1.0
C      1  0.5483170000000  0.4326920000000  0.4495960000000 1.0
C      1  0.5465620000000  0.5976830000000  0.5015350000000 1.0
C      1  0.5396720000000  0.4572860000000  0.5145340000000 1.0
C      1  0.5732050000000  0.4655590000000  0.5574010000000 1.0
C      1  0.4668500000000  0.5289930000000  0.6055400000000 1.0
C      1  0.6036690000000  0.4438710000000  0.4700860000000 1.0
C      1  0.5119870000000  0.4289700000000  0.5642930000000 1.0
C      1  0.4045860000000  0.5208720000000  0.4109800000000 1.0
C      1  0.5242740000000  0.5898220000000  0.6001020000000 1.0
C      1  0.4836460000000  0.4269670000000  0.5706350000000 1.0
C      1  0.5905940000000  0.4371630000000  0.4956660000000 1.0
C      1  0.4184490000000  0.5849750000000  0.4556030000000 1.0
C      1  0.5275970000000  0.4051900000000  0.5597210000000 1.0
C      1  0.4163310000000  0.5292150000000  0.4531910000000 1.0
C      1  0.3790980000000  0.4996150000000  0.4789430000000 1.0
C      1  0.4756550000000  0.5011860000000  0.3931280000000 1.0
C      1  0.5508170000000  0.4594530000000  0.4605520000000 1.0
C      1  0.5536090000000  0.4123080000000  0.4702380000000 1.0
C      1  0.5189360000000  0.5645730000000  0.5894270000000 1.0
C      1  0.5354070000000  0.4338490000000  0.4212040000000 1.0
C      1  0.4238670000000  0.4288350000000  0.4916620000000 1.0
C      1  0.4396030000000  0.4531510000000  0.4906680000000 1.0
C      1  0.4086510000000  0.4484130000000  0.4420110000000 1.0
C      1  0.4711660000000  0.4874840000000  0.4467190000000 1.0
C      1  0.4238250000000  0.5949370000000  0.4803300000000 1.0
C      1  0.4600980000000  0.4188720000000  0.5552050000000 1.0
C      1  0.4379650000000  0.4107140000000  0.5104650000000 1.0
C      1  0.6121510000000  0.4929520000000  0.5465670000000 1.0
C      1  0.4210490000000  0.5706190000000  0.4304650000000 1.0
C      1  0.4816910000000  0.6148450000000  0.5144850000000 1.0
C      1  0.4528980000000  0.4501640000000  0.4653950000000 1.0
C      1  0.4110220000000  0.4907890000000  0.5491550000000 1.0
C      1  0.4521940000000  0.5484410000000  0.5915760000000 1.0
C      1  0.4422000000000  0.4637060000000  0.4042240000000 1.0
C      1  0.3955180000000  0.5164470000000  0.4667300000000 1.0
C      1  0.5005060000000  0.5120900000000  0.5725640000000 1.0
C      1  0.5676600000000  0.5082040000000  0.5144990000000 1.0
C      1  0.5616320000000  0.5368410000000  0.5623250000000 1.0
C      1  0.5492780000000  0.4566520000000  0.5423540000000 1.0
C      1  0.3531330000000  0.4396760000000  0.5227570000000 1.0
C      1  0.6118440000000  0.5740400000000  0.4376460000000 1.0
C      1  0.5418200000000  0.5919650000000  0.4269550000000 1.0
C      1  0.4603200000000  0.4057760000000  0.5296130000000 1.0
C      1  0.5299890000000  0.5495610000000  0.4918000000000 1.0
C      1  0.5060410000000  0.4625280000000  0.3961090000000 1.0
C      1  0.4966940000000  0.4892480000000  0.4355430000000 1.0
C      1  0.3589380000000  0.4602390000000  0.5078210000000 1.0
C      1  0.4513870000000  0.4975870000000  0.4635990000000 1.0
C      1  0.5367080000000  0.3901430000000  0.5806590000000 1.0
C      1  0.5129420000000  0.3862070000000  0.4898270000000 1.0
C      1  0.4668750000000  0.5407340000000  0.4633820000000 1.0
C      1  0.4800740000000  0.5348110000000  0.6296410000000 1.0
C      1  0.4579590000000  0.4396460000000  0.4412020000000 1.0
C      1  0.4827960000000  0.4252920000000  0.6201740000000 1.0
C      1  0.5286460000000  0.5790260000000  0.4881950000000 1.0
C      1  0.4875600000000  0.5002430000000  0.4942500000000 1.0
C      1  0.6017510000000  0.4900190000000  0.4446130000000 1.0
C      1  0.5057110000000  0.5919980000000  0.4776760000000 1.0
C      1  0.4972920000000  0.4466740000000  0.4706400000000 1.0
C      1  0.5207370000000  0.4917870000000  0.4512160000000 1.0
C      1  0.5361770000000  0.3900720000000  0.4741150000000 1.0
C      1  0.4935630000000  0.6070320000000  0.5391350000000 1.0
C      1  0.5241030000000  0.5315710000000  0.4193400000000 1.0
C      1  0.5460670000000  0.4830120000000  0.4123050000000 1.0
C      1  0.4879770000000  0.6090420000000  0.4888410000000 1.0
C      1  0.4999650000000  0.5152920000000  0.5196620000000 1.0
C      1  0.5822760000000  0.5573680000000  0.5251430000000 1.0
C      1  0.4258520000000  0.4938720000000  0.5245210000000 1.0
C      1  0.6064370000000  0.4721470000000  0.4657950000000 1.0
C      1  0.6148320000000  0.5194840000000  0.5435790000000 1.0
C      1  0.5199040000000  0.6166600000000  0.5417560000000 1.0
C      1  0.5848080000000  0.5074920000000  0.4931340000000 1.0
C      1  0.4087590000000  0.4319070000000  0.4653280000000 1.0
C      1  0.5874810000000  0.5131390000000  0.4463130000000 1.0
C      1  0.5097530000000  0.5654320000000  0.5610200000000 1.0
C      1  0.5450800000000  0.5200640000000  0.6025840000000 1.0
END
