TITL C-612606-7351-5 -0.0060147339920287 125000 -921.720821875289 0 0 151 (C1) n - 1
REM
REM in /home/nfs/bkarasulu/CARBON/AIRSS/Generating-Clusters/TERSOFF/Only-C1/FIRE-HFTN
REM
REM
REM
REM
REM
REM ./C.cell (11c1c37f851c82e70ff6c80c92926a4b)
REM AIRSS Version 0.9.1 bugfix July 2018 build 013d7b7c2542+ Fri, 06 Jul 2018 19:26:36 +0100
REM compiler GCC version 9.2.1 20190827 (Red Hat 9.2.1-1)
REM options -cpp -mtune=generic -march=x86-64 -g -O0 -fpre-include=/usr/include/finclude/math-vector-fortran.h
REM seed -670014712 408100766 627259048 -1425717940 -1919404747 1584442427 951601106 2075187146 1198783254 -2091686051 794969544 -497949494 321561810 -774191331 -359456043 719449880 447196774 1938034291 862964979 1172690800 -1159754493 876922261 -806250922 -1213781670 -825508655 881683965 1492117078 1203069257 -505105514 1825789738 -1961244729 1476277067 1747946186
REM
CELL 1.54180   50.00000   50.00000   50.00000   90.00000   90.00000   90.00000
LATT -1
SFAC C  
C      1  0.4769910000000  0.4457010000000  0.5432930000000 1.0
C      1  0.5432330000000  0.4060050000000  0.5457540000000 1.0
C      1  0.4869860000000  0.5230280000000  0.5063260000000 1.0
C      1  0.5368800000000  0.4875190000000  0.4795740000000 1.0
C      1  0.5384990000000  0.5992160000000  0.4629680000000 1.0
C      1  0.4845500000000  0.4043550000000  0.4930200000000 1.0
C      1  0.4143350000000  0.4834830000000  0.5725870000000 1.0
C      1  0.4951150000000  0.4014550000000  0.5425920000000 1.0
C      1  0.4313630000000  0.5135530000000  0.5048640000000 1.0
C      1  0.5298870000000  0.4311320000000  0.5376780000000 1.0
C      1  0.4865390000000  0.6075140000000  0.5651590000000 1.0
C      1  0.4654920000000  0.4767100000000  0.5070800000000 1.0
C      1  0.5621120000000  0.4870340000000  0.4295920000000 1.0
C      1  0.4630100000000  0.5281210000000  0.4270430000000 1.0
C      1  0.4609610000000  0.5570930000000  0.5280940000000 1.0
C      1  0.4788350000000  0.4567610000000  0.4390270000000 1.0
C      1  0.5918450000000  0.5361860000000  0.4520280000000 1.0
C      1  0.5203590000000  0.3880820000000  0.5478350000000 1.0
C      1  0.5115560000000  0.3904640000000  0.4900210000000 1.0
C      1  0.4352690000000  0.4138830000000  0.4442540000000 1.0
C      1  0.6001080000000  0.5453530000000  0.5168540000000 1.0
C      1  0.5496010000000  0.4216030000000  0.4922660000000 1.0
C      1  0.5314670000000  0.5591880000000  0.5357520000000 1.0
C      1  0.5351480000000  0.4222620000000  0.4320240000000 1.0
C      1  0.4665980000000  0.3896290000000  0.4735560000000 1.0
C      1  0.5709090000000  0.4039840000000  0.5413120000000 1.0
C      1  0.4704530000000  0.4897690000000  0.3964870000000 1.0
C      1  0.5129970000000  0.4337400000000  0.6136900000000 1.0
C      1  0.4172650000000  0.5008020000000  0.5523720000000 1.0
C      1  0.5569030000000  0.6167370000000  0.4741380000000 1.0
C      1  0.4533320000000  0.5024990000000  0.4161330000000 1.0
C      1  0.6171330000000  0.5287300000000  0.5333560000000 1.0
C      1  0.6028230000000  0.5141360000000  0.4679580000000 1.0
C      1  0.5350850000000  0.5135760000000  0.4619060000000 1.0
C      1  0.4219230000000  0.4916430000000  0.4527510000000 1.0
C      1  0.4295610000000  0.4355230000000  0.5256910000000 1.0
C      1  0.4959980000000  0.5246970000000  0.3897730000000 1.0
C      1  0.5668080000000  0.5390920000000  0.5874710000000 1.0
C      1  0.4386670000000  0.4494640000000  0.4750550000000 1.0
C      1  0.5483340000000  0.4078810000000  0.4130580000000 1.0
C      1  0.5688070000000  0.5056080000000  0.5144210000000 1.0
C      1  0.3905320000000  0.4671440000000  0.5184890000000 1.0
C      1  0.5019010000000  0.4311460000000  0.5470910000000 1.0
C      1  0.4866090000000  0.4957270000000  0.4652880000000 1.0
C      1  0.4518040000000  0.3920930000000  0.4511250000000 1.0
C      1  0.4906990000000  0.4347000000000  0.4527550000000 1.0
C      1  0.4926700000000  0.4815450000000  0.4418990000000 1.0
C      1  0.4645060000000  0.4525090000000  0.6177390000000 1.0
C      1  0.4982770000000  0.4974820000000  0.3971650000000 1.0
C      1  0.5853320000000  0.5874570000000  0.5342960000000 1.0
C      1  0.5860780000000  0.4908870000000  0.4704500000000 1.0
C      1  0.4162980000000  0.5644560000000  0.5105890000000 1.0
C      1  0.5114840000000  0.4509040000000  0.4980840000000 1.0
C      1  0.5651250000000  0.4678760000000  0.5725300000000 1.0
C      1  0.5147840000000  0.4815760000000  0.5010620000000 1.0
C      1  0.4247390000000  0.4706990000000  0.5938230000000 1.0
C      1  0.5183320000000  0.5457480000000  0.5538670000000 1.0
C      1  0.5475490000000  0.5685750000000  0.5146270000000 1.0
C      1  0.5955090000000  0.4241910000000  0.5012140000000 1.0
C      1  0.4066960000000  0.5166750000000  0.4498400000000 1.0
C      1  0.5352850000000  0.5889990000000  0.4379790000000 1.0
C      1  0.4956040000000  0.5952880000000  0.5197010000000 1.0
C      1  0.5113990000000  0.4922210000000  0.4224980000000 1.0
C      1  0.4245460000000  0.4263090000000  0.4673440000000 1.0
C      1  0.5081360000000  0.4180560000000  0.4383990000000 1.0
C      1  0.4307650000000  0.5531980000000  0.5608640000000 1.0
C      1  0.5755100000000  0.4307910000000  0.4822870000000 1.0
C      1  0.4386430000000  0.4832410000000  0.4307950000000 1.0
C      1  0.3717250000000  0.4846020000000  0.5097490000000 1.0
C      1  0.5370020000000  0.5390340000000  0.4763960000000 1.0
C      1  0.4707340000000  0.4940280000000  0.5560020000000 1.0
C      1  0.5857110000000  0.5517410000000  0.5697910000000 1.0
C      1  0.5155300000000  0.5578300000000  0.4804930000000 1.0
C      1  0.3983090000000  0.5228090000000  0.4241080000000 1.0
C      1  0.4464270000000  0.5351950000000  0.5743040000000 1.0
C      1  0.5424550000000  0.6347220000000  0.5504590000000 1.0
C      1  0.4829880000000  0.5697650000000  0.5160890000000 1.0
C      1  0.4838040000000  0.5408690000000  0.4101810000000 1.0
C      1  0.5334300000000  0.6088190000000  0.5544890000000 1.0
C      1  0.5028230000000  0.5596010000000  0.4179190000000 1.0
C      1  0.4141520000000  0.5168550000000  0.5291000000000 1.0
C      1  0.6049990000000  0.5727230000000  0.5208390000000 1.0
C      1  0.4886300000000  0.4345500000000  0.4833850000000 1.0
C      1  0.4874610000000  0.4390690000000  0.6189640000000 1.0
C      1  0.5600980000000  0.4941670000000  0.5634860000000 1.0
C      1  0.5225790000000  0.5003760000000  0.6253560000000 1.0
C      1  0.4722450000000  0.4729840000000  0.5368410000000 1.0
C      1  0.5372430000000  0.4368180000000  0.6031590000000 1.0
C      1  0.5561390000000  0.4483440000000  0.5883430000000 1.0
C      1  0.5469600000000  0.4427510000000  0.4469750000000 1.0
C      1  0.4354440000000  0.4840430000000  0.5040190000000 1.0
C      1  0.5910430000000  0.4122370000000  0.5252590000000 1.0
C      1  0.4686220000000  0.5292260000000  0.5273930000000 1.0
C      1  0.4114240000000  0.5594570000000  0.4820610000000 1.0
C      1  0.5374000000000  0.3969250000000  0.4859290000000 1.0
C      1  0.5636030000000  0.5923080000000  0.5168640000000 1.0
C      1  0.4202930000000  0.4163190000000  0.3461320000000 1.0
C      1  0.5005160000000  0.6031450000000  0.4925740000000 1.0
C      1  0.4266740000000  0.4757410000000  0.4757540000000 1.0
C      1  0.4544160000000  0.5682920000000  0.4546440000000 1.0
C      1  0.5741190000000  0.5529360000000  0.4391650000000 1.0
C      1  0.6248580000000  0.5139630000000  0.4865170000000 1.0
C      1  0.5206630000000  0.5865470000000  0.4806390000000 1.0
C      1  0.5650220000000  0.6141020000000  0.4995190000000 1.0
C      1  0.5058640000000  0.6035800000000  0.5456540000000 1.0
C      1  0.5802440000000  0.4735120000000  0.4487410000000 1.0
C      1  0.5368820000000  0.5016050000000  0.4339980000000 1.0
C      1  0.4618700000000  0.5112150000000  0.5773120000000 1.0
C      1  0.5332700000000  0.4636380000000  0.4605850000000 1.0
C      1  0.5376540000000  0.5051630000000  0.6046410000000 1.0
C      1  0.5740940000000  0.4454980000000  0.4569710000000 1.0
C      1  0.5561190000000  0.5476050000000  0.4967710000000 1.0
C      1  0.6082770000000  0.5360710000000  0.5598660000000 1.0
C      1  0.4189760000000  0.4627890000000  0.5205710000000 1.0
C      1  0.4096000000000  0.4129220000000  0.4870550000000 1.0
C      1  0.5654860000000  0.4902950000000  0.4905960000000 1.0
C      1  0.5767340000000  0.5787130000000  0.5601070000000 1.0
C      1  0.5333710000000  0.4371050000000  0.5100220000000 1.0
C      1  0.5514420000000  0.5912950000000  0.5697530000000 1.0
C      1  0.3728340000000  0.5265980000000  0.4823340000000 1.0
C      1  0.4452570000000  0.5265170000000  0.4801040000000 1.0
C      1  0.5764180000000  0.5323890000000  0.5085820000000 1.0
C      1  0.4336930000000  0.5623600000000  0.5336170000000 1.0
C      1  0.4739360000000  0.4043800000000  0.5222790000000 1.0
C      1  0.4770150000000  0.5867670000000  0.4513160000000 1.0
C      1  0.4394430000000  0.4319720000000  0.4225510000000 1.0
C      1  0.4616870000000  0.4984730000000  0.6026280000000 1.0
C      1  0.5526590000000  0.5574530000000  0.6041110000000 1.0
C      1  0.4491700000000  0.4735320000000  0.6076960000000 1.0
C      1  0.4641680000000  0.4509410000000  0.4893130000000 1.0
C      1  0.5523040000000  0.4977760000000  0.5363560000000 1.0
C      1  0.4132590000000  0.4153970000000  0.5137260000000 1.0
C      1  0.4562390000000  0.5389420000000  0.4539830000000 1.0
C      1  0.5440160000000  0.5816150000000  0.5954040000000 1.0
C      1  0.4284600000000  0.5750570000000  0.4647060000000 1.0
C      1  0.4955320000000  0.5495770000000  0.4983290000000 1.0
C      1  0.5505950000000  0.5660260000000  0.4284620000000 1.0
C      1  0.4566720000000  0.4274340000000  0.5316270000000 1.0
C      1  0.4514960000000  0.4569690000000  0.4296330000000 1.0
C      1  0.5003570000000  0.5819920000000  0.4341940000000 1.0
C      1  0.3973580000000  0.5353960000000  0.4705090000000 1.0
C      1  0.3874340000000  0.5257090000000  0.5261540000000 1.0
C      1  0.4323820000000  0.4258260000000  0.3963920000000 1.0
C      1  0.5557340000000  0.5131510000000  0.5844840000000 1.0
C      1  0.3713710000000  0.5128580000000  0.5067970000000 1.0
C      1  0.4262530000000  0.4209700000000  0.3710810000000 1.0
C      1  0.5305840000000  0.5525500000000  0.4128520000000 1.0
C      1  0.4879620000000  0.4954180000000  0.4950660000000 1.0
C      1  0.5264340000000  0.4894990000000  0.5277120000000 1.0
C      1  0.6310030000000  0.5135610000000  0.5133930000000 1.0
C      1  0.4803010000000  0.6062910000000  0.4724590000000 1.0
END
