TITL C-612607-4507-220 -0.00065991078147814 125000 -723.320253279039 0 0 121 (C1) n - 1
REM
REM in /home/nfs/bkarasulu/CARBON/AIRSS/Generating-Clusters/TERSOFF/Only-C1/FIRE-HFTN
REM
REM
REM
REM
REM
REM ./C.cell (11c1c37f851c82e70ff6c80c92926a4b)
REM AIRSS Version 0.9.1 bugfix July 2018 build 013d7b7c2542+ Fri, 06 Jul 2018 19:26:36 +0100
REM compiler GCC version 9.2.1 20190827 (Red Hat 9.2.1-1)
REM options -cpp -mtune=generic -march=x86-64 -g -O0 -fpre-include=/usr/include/finclude/math-vector-fortran.h
REM seed 1441117241 888560422 288260618 -1221565834 -1963770564 320773646 1810450972 -957396529 -491486634 1054329824 -1553742222 1113231756 -1413932642 1385183523 982666874 -1389659755 1159912726 -313102102 388009627 -487627785 1958039739 1483842732 1352375979 -1860012075 -239104311 1028109871 -230421876 828815568 727764445 235618880 -820352696 -2020473285 -1769961821
REM
CELL 1.54180   50.00000   50.00000   50.00000   90.00000   90.00000   90.00000
LATT -1
SFAC C  
C      1  0.4343490000000  0.4544950000000  0.5608000000000 1.0
C      1  0.4676340000000  0.4608220000000  0.5132040000000 1.0
C      1  0.4833980000000  0.5490640000000  0.6132920000000 1.0
C      1  0.4373580000000  0.5493310000000  0.4313290000000 1.0
C      1  0.5830280000000  0.4323540000000  0.3968830000000 1.0
C      1  0.5476610000000  0.4279470000000  0.5228450000000 1.0
C      1  0.4417780000000  0.4791810000000  0.5742960000000 1.0
C      1  0.4369380000000  0.5214340000000  0.4259630000000 1.0
C      1  0.4660960000000  0.3998140000000  0.4394120000000 1.0
C      1  0.4286560000000  0.5625510000000  0.5690010000000 1.0
C      1  0.3977500000000  0.4337170000000  0.4835900000000 1.0
C      1  0.5954420000000  0.4852810000000  0.4839660000000 1.0
C      1  0.5001770000000  0.5801860000000  0.4445840000000 1.0
C      1  0.4912970000000  0.5215720000000  0.6064870000000 1.0
C      1  0.5972340000000  0.4929200000000  0.4264120000000 1.0
C      1  0.4348580000000  0.5494940000000  0.5933790000000 1.0
C      1  0.5515970000000  0.5201170000000  0.5330380000000 1.0
C      1  0.5283330000000  0.5359400000000  0.4736600000000 1.0
C      1  0.5179840000000  0.5560620000000  0.4326570000000 1.0
C      1  0.4152770000000  0.5165710000000  0.4725820000000 1.0
C      1  0.5465280000000  0.4567530000000  0.5640340000000 1.0
C      1  0.5300210000000  0.6158820000000  0.5349990000000 1.0
C      1  0.5891000000000  0.5757670000000  0.5635150000000 1.0
C      1  0.5884080000000  0.4392170000000  0.5474500000000 1.0
C      1  0.5919780000000  0.5230590000000  0.5106280000000 1.0
C      1  0.4809830000000  0.4301580000000  0.5584130000000 1.0
C      1  0.4793780000000  0.4831790000000  0.5254630000000 1.0
C      1  0.5314690000000  0.5047620000000  0.5801740000000 1.0
C      1  0.4765170000000  0.5337460000000  0.5186840000000 1.0
C      1  0.5072870000000  0.4834080000000  0.5259810000000 1.0
C      1  0.4522920000000  0.4336680000000  0.5515720000000 1.0
C      1  0.4636630000000  0.5536700000000  0.4735210000000 1.0
C      1  0.5078820000000  0.5330380000000  0.4515720000000 1.0
C      1  0.5768110000000  0.4769100000000  0.4154720000000 1.0
C      1  0.4882830000000  0.4362890000000  0.5845230000000 1.0
C      1  0.4365900000000  0.5072470000000  0.5217720000000 1.0
C      1  0.5765350000000  0.4988460000000  0.5011740000000 1.0
C      1  0.6143920000000  0.4383660000000  0.5492480000000 1.0
C      1  0.4591230000000  0.5111090000000  0.4116810000000 1.0
C      1  0.5544690000000  0.4893660000000  0.4009900000000 1.0
C      1  0.5795610000000  0.4344590000000  0.4449010000000 1.0
C      1  0.6133150000000  0.5261280000000  0.4918480000000 1.0
C      1  0.3834890000000  0.4536770000000  0.5439030000000 1.0
C      1  0.6095720000000  0.5112770000000  0.4437100000000 1.0
C      1  0.4282680000000  0.5495890000000  0.5436830000000 1.0
C      1  0.5615540000000  0.5714040000000  0.4926540000000 1.0
C      1  0.4384770000000  0.5634350000000  0.5203330000000 1.0
C      1  0.5086840000000  0.5623930000000  0.6171960000000 1.0
C      1  0.5182640000000  0.4535380000000  0.3921770000000 1.0
C      1  0.4732230000000  0.5008760000000  0.6052600000000 1.0
C      1  0.5721250000000  0.5709490000000  0.4339840000000 1.0
C      1  0.4467490000000  0.4325760000000  0.4780350000000 1.0
C      1  0.4554020000000  0.6049840000000  0.5005170000000 1.0
C      1  0.4066830000000  0.4512810000000  0.5566980000000 1.0
C      1  0.5963530000000  0.5600800000000  0.4324750000000 1.0
C      1  0.4739350000000  0.4014550000000  0.5236420000000 1.0
C      1  0.5616360000000  0.4253340000000  0.4976680000000 1.0
C      1  0.4853530000000  0.5064840000000  0.4154090000000 1.0
C      1  0.4373320000000  0.5563130000000  0.4588110000000 1.0
C      1  0.5444310000000  0.5165550000000  0.4025900000000 1.0
C      1  0.5062350000000  0.5075240000000  0.4347560000000 1.0
C      1  0.4375320000000  0.5912230000000  0.5154110000000 1.0
C      1  0.5211800000000  0.4189340000000  0.5276970000000 1.0
C      1  0.5793550000000  0.4479270000000  0.4193310000000 1.0
C      1  0.5378150000000  0.4711430000000  0.3869930000000 1.0
C      1  0.5100500000000  0.5724850000000  0.5276090000000 1.0
C      1  0.4591550000000  0.4564130000000  0.4870220000000 1.0
C      1  0.4805880000000  0.5290290000000  0.4668080000000 1.0
C      1  0.4289980000000  0.5053620000000  0.5702150000000 1.0
C      1  0.4622300000000  0.4778280000000  0.5944910000000 1.0
C      1  0.4576390000000  0.4173860000000  0.4573460000000 1.0
C      1  0.5736990000000  0.4407790000000  0.4742790000000 1.0
C      1  0.5491250000000  0.5007700000000  0.5105620000000 1.0
C      1  0.4747100000000  0.3823620000000  0.4220690000000 1.0
C      1  0.5153300000000  0.5990630000000  0.5192010000000 1.0
C      1  0.4655500000000  0.5076280000000  0.5228570000000 1.0
C      1  0.5606200000000  0.4414630000000  0.5448260000000 1.0
C      1  0.4229720000000  0.4239750000000  0.4909770000000 1.0
C      1  0.4255730000000  0.5052260000000  0.4475070000000 1.0
C      1  0.4799740000000  0.5780170000000  0.4662220000000 1.0
C      1  0.4570210000000  0.5569560000000  0.6089500000000 1.0
C      1  0.5037610000000  0.4476040000000  0.4139810000000 1.0
C      1  0.5199940000000  0.5199320000000  0.6009150000000 1.0
C      1  0.5457520000000  0.5516570000000  0.4861710000000 1.0
C      1  0.4262290000000  0.5223360000000  0.5930880000000 1.0
C      1  0.5970200000000  0.4573710000000  0.4830270000000 1.0
C      1  0.5067640000000  0.4900900000000  0.4790780000000 1.0
C      1  0.4265200000000  0.5200630000000  0.5449980000000 1.0
C      1  0.5198210000000  0.6163860000000  0.4714650000000 1.0
C      1  0.4254740000000  0.4087570000000  0.5149850000000 1.0
C      1  0.4398280000000  0.4814880000000  0.4515320000000 1.0
C      1  0.5297800000000  0.5456020000000  0.6106230000000 1.0
C      1  0.4483730000000  0.4133980000000  0.5306620000000 1.0
C      1  0.5021650000000  0.4589000000000  0.4383570000000 1.0
C      1  0.5230220000000  0.4906470000000  0.5034920000000 1.0
C      1  0.5274110000000  0.5375760000000  0.4077440000000 1.0
C      1  0.5765730000000  0.5345940000000  0.5314520000000 1.0
C      1  0.4775780000000  0.3797140000000  0.5077200000000 1.0
C      1  0.4986070000000  0.5481840000000  0.5283100000000 1.0
C      1  0.4211580000000  0.5049710000000  0.4980460000000 1.0
C      1  0.5841190000000  0.5555270000000  0.5478740000000 1.0
C      1  0.5431590000000  0.4794140000000  0.4530040000000 1.0
C      1  0.5530410000000  0.4617250000000  0.4699770000000 1.0
C      1  0.4149820000000  0.5449900000000  0.4722490000000 1.0
C      1  0.5146700000000  0.4831440000000  0.4500680000000 1.0
C      1  0.6122250000000  0.5054980000000  0.4712530000000 1.0
C      1  0.4950640000000  0.4157490000000  0.5374860000000 1.0
C      1  0.4602520000000  0.4794300000000  0.4704530000000 1.0
C      1  0.5371810000000  0.5187890000000  0.5565790000000 1.0
C      1  0.4794430000000  0.5005870000000  0.4752220000000 1.0
C      1  0.5147280000000  0.6051000000000  0.4470430000000 1.0
C      1  0.3708240000000  0.4526020000000  0.5204270000000 1.0
C      1  0.4069610000000  0.3899560000000  0.5220730000000 1.0
C      1  0.6110450000000  0.5380530000000  0.4354050000000 1.0
C      1  0.4760110000000  0.4541040000000  0.6002310000000 1.0
C      1  0.5458440000000  0.5688960000000  0.4372710000000 1.0
C      1  0.4789950000000  0.5988010000000  0.4864940000000 1.0
C      1  0.4583440000000  0.5504600000000  0.5038640000000 1.0
C      1  0.3765550000000  0.4450060000000  0.4954050000000 1.0
C      1  0.5048970000000  0.6080960000000  0.4942340000000 1.0
C      1  0.5375210000000  0.4772320000000  0.5788770000000 1.0
END
