TITL C-612602-9376-1017 1490.01500043066 125000 -860.621797299498 0 0 142 (C1) n - 1
REM
REM in /home/nfs/bkarasulu/CARBON/AIRSS/Generating-Clusters/TERSOFF/Only-C1/FIRE-HFTN
REM
REM
REM
REM
REM
REM ./C.cell (11c1c37f851c82e70ff6c80c92926a4b)
REM AIRSS Version 0.9.1 bugfix July 2018 build 013d7b7c2542+ Fri, 06 Jul 2018 19:26:36 +0100
REM compiler GCC version 9.2.1 20190827 (Red Hat 9.2.1-1)
REM options -cpp -mtune=generic -march=x86-64 -g -O0 -fpre-include=/usr/include/finclude/math-vector-fortran.h
REM seed -759128672 1550865382 372390060 -1888235898 1902865406 1840305280 562578912 875378605 816329446 -1931182564 123720551 1271498599 -1841177342 698949717 -1255955895 1588530318 -1020273804 1653507243 -733946828 1516262596 26989351 -1775115295 1144094263 2041609956 -1559504084 732725183 445028737 -1928609276 1695633700 -1371969261 -1262434684 -1642847184 -320669795
REM
CELL 1.54180   50.00000   50.00000   50.00000   90.00000   90.00000   90.00000
LATT -1
SFAC C  
C      1  0.6017620000000  0.4783550000000  0.5256650000000 1.0
C      1  0.5570450000000  0.5484710000000  0.5628980000000 1.0
C      1  0.5402660000000  0.5189500000000  0.5249430000000 1.0
C      1  0.5491850000000  0.4958170000000  0.5845090000000 1.0
C      1  0.4202580000000  0.5369640000000  0.5077970000000 1.0
C      1  0.3547110000000  0.4461630000000  0.5747620000000 1.0
C      1  0.6006130000000  0.5444610000000  0.5307640000000 1.0
C      1  0.6198640000000  0.5138120000000  0.4578750000000 1.0
C      1  0.4358160000000  0.5400440000000  0.5859340000000 1.0
C      1  0.5156530000000  0.4594780000000  0.4409140000000 1.0
C      1  0.5007020000000  0.5990840000000  0.5218950000000 1.0
C      1  0.5290130000000  0.5405600000000  0.5664990000000 1.0
C      1  0.3674080000000  0.4746050000000  0.4844010000000 1.0
C      1  0.5054520000000  0.4768590000000  0.6009140000000 1.0
C      1  0.4682120000000  0.5761810000000  0.4470130000000 1.0
C      1  0.5220120000000  0.4466790000000  0.4857460000000 1.0
C      1  0.4227550000000  0.5092440000000  0.5146750000000 1.0
C      1  0.5717660000000  0.4880930000000  0.4195510000000 1.0
C      1  0.6005730000000  0.5538200000000  0.4799960000000 1.0
C      1  0.5306600000000  0.5659430000000  0.4697280000000 1.0
C      1  0.4594160000000  0.4495950000000  0.5820680000000 1.0
C      1  0.4770660000000  0.4522380000000  0.4083480000000 1.0
C      1  0.6290060000000  0.4738590000000  0.4818950000000 1.0
C      1  0.5707530000000  0.5773760000000  0.5126150000000 1.0
C      1  0.5081350000000  0.4904280000000  0.3863390000000 1.0
C      1  0.4915300000000  0.5132870000000  0.3908370000000 1.0
C      1  0.5162760000000  0.5696760000000  0.4450860000000 1.0
C      1  0.5455740000000  0.5219170000000  0.3621590000000 1.0
C      1  0.4643560000000  0.4772510000000  0.5804330000000 1.0
C      1  0.5928960000000  0.5601490000000  0.5071900000000 1.0
C      1  0.4287950000000  0.5632120000000  0.5180100000000 1.0
C      1  0.4843900000000  0.4702220000000  0.5166610000000 1.0
C      1  0.5300400000000  0.4291180000000  0.4083570000000 1.0
C      1  0.5638940000000  0.4429400000000  0.4608730000000 1.0
C      1  0.5430540000000  0.5817350000000  0.5145820000000 1.0
C      1  0.4635760000000  0.4380790000000  0.4668820000000 1.0
C      1  0.4502590000000  0.4898120000000  0.3945490000000 1.0
C      1  0.4752910000000  0.5104840000000  0.4962980000000 1.0
C      1  0.4161490000000  0.5824020000000  0.5003740000000 1.0
C      1  0.3653840000000  0.5266680000000  0.5234460000000 1.0
C      1  0.3934290000000  0.4817320000000  0.5771190000000 1.0
C      1  0.4853550000000  0.5425040000000  0.5297610000000 1.0
C      1  0.4313510000000  0.5112290000000  0.5872340000000 1.0
C      1  0.3061800000000  0.3944550000000  0.5910410000000 1.0
C      1  0.5941860000000  0.5427350000000  0.4295560000000 1.0
C      1  0.5282550000000  0.5116580000000  0.4343240000000 1.0
C      1  0.3732260000000  0.5377250000000  0.5469050000000 1.0
C      1  0.4774030000000  0.4323500000000  0.5712540000000 1.0
C      1  0.5011380000000  0.4437410000000  0.5600930000000 1.0
C      1  0.4818550000000  0.4866790000000  0.5599510000000 1.0
C      1  0.3394950000000  0.4392070000000  0.5098170000000 1.0
C      1  0.4676480000000  0.5093570000000  0.4062930000000 1.0
C      1  0.4919870000000  0.6124830000000  0.4701850000000 1.0
C      1  0.5836760000000  0.4724580000000  0.5072550000000 1.0
C      1  0.4760140000000  0.5343020000000  0.4810990000000 1.0
C      1  0.6104000000000  0.4659890000000  0.5797190000000 1.0
C      1  0.5821960000000  0.5469660000000  0.5528450000000 1.0
C      1  0.5035520000000  0.5066740000000  0.5995990000000 1.0
C      1  0.5674900000000  0.4199610000000  0.4782240000000 1.0
C      1  0.4687340000000  0.5087070000000  0.4355370000000 1.0
C      1  0.4196830000000  0.5543620000000  0.5675190000000 1.0
C      1  0.5302100000000  0.4945810000000  0.5354340000000 1.0
C      1  0.3920810000000  0.5480610000000  0.5632570000000 1.0
C      1  0.3852190000000  0.4952990000000  0.4895130000000 1.0
C      1  0.6199720000000  0.4882540000000  0.5678640000000 1.0
C      1  0.4316160000000  0.4758350000000  0.4781570000000 1.0
C      1  0.4822320000000  0.4189570000000  0.4616490000000 1.0
C      1  0.6141090000000  0.4976350000000  0.5421050000000 1.0
C      1  0.3737010000000  0.4641400000000  0.5791840000000 1.0
C      1  0.5055960000000  0.6037310000000  0.4935710000000 1.0
C      1  0.5446690000000  0.4670870000000  0.5762460000000 1.0
C      1  0.4322990000000  0.5668010000000  0.5454870000000 1.0
C      1  0.5201230000000  0.4136150000000  0.4289970000000 1.0
C      1  0.5093280000000  0.4932560000000  0.5541770000000 1.0
C      1  0.5432800000000  0.4222830000000  0.5210580000000 1.0
C      1  0.5864220000000  0.5305990000000  0.4062120000000 1.0
C      1  0.5090980000000  0.6175720000000  0.4475710000000 1.0
C      1  0.5009650000000  0.5363940000000  0.3777210000000 1.0
C      1  0.5083760000000  0.4081280000000  0.4554680000000 1.0
C      1  0.5896910000000  0.4492240000000  0.5764930000000 1.0
C      1  0.3968180000000  0.5700210000000  0.4849150000000 1.0
C      1  0.5363860000000  0.4513810000000  0.3933420000000 1.0
C      1  0.6116740000000  0.4554600000000  0.4716120000000 1.0
C      1  0.4998550000000  0.4493890000000  0.5307180000000 1.0
C      1  0.6146850000000  0.4944330000000  0.4377090000000 1.0
C      1  0.4630350000000  0.5432610000000  0.5966660000000 1.0
C      1  0.5474700000000  0.4937030000000  0.4312010000000 1.0
C      1  0.4539380000000  0.4652490000000  0.4641640000000 1.0
C      1  0.6054710000000  0.5387460000000  0.4558570000000 1.0
C      1  0.5195650000000  0.5794960000000  0.5338320000000 1.0
C      1  0.5634230000000  0.4470920000000  0.5663040000000 1.0
C      1  0.5547820000000  0.4999130000000  0.3776620000000 1.0
C      1  0.3342380000000  0.4302400000000  0.5342340000000 1.0
C      1  0.3767160000000  0.5218970000000  0.4976320000000 1.0
C      1  0.5470110000000  0.4085150000000  0.4948520000000 1.0
C      1  0.4897120000000  0.5576750000000  0.4427840000000 1.0
C      1  0.3959110000000  0.5419550000000  0.4907570000000 1.0
C      1  0.4145500000000  0.4978580000000  0.5686870000000 1.0
C      1  0.4805510000000  0.5545610000000  0.5020940000000 1.0
C      1  0.5349280000000  0.4509090000000  0.4603710000000 1.0
C      1  0.5243000000000  0.5384570000000  0.3641380000000 1.0
C      1  0.3209340000000  0.4113460000000  0.5769350000000 1.0
C      1  0.5887200000000  0.4567960000000  0.4541770000000 1.0
C      1  0.5377450000000  0.5415960000000  0.4817900000000 1.0
C      1  0.4707260000000  0.4891690000000  0.5346180000000 1.0
C      1  0.5161700000000  0.4951530000000  0.4770140000000 1.0
C      1  0.5661250000000  0.5202080000000  0.5110580000000 1.0
C      1  0.3513020000000  0.4548980000000  0.4919480000000 1.0
C      1  0.4848230000000  0.5293670000000  0.4523430000000 1.0
C      1  0.5101790000000  0.5132290000000  0.4552800000000 1.0
C      1  0.5193080000000  0.5959990000000  0.4340730000000 1.0
C      1  0.4682550000000  0.5987700000000  0.4622460000000 1.0
C      1  0.5726580000000  0.5029240000000  0.5970330000000 1.0
C      1  0.2916740000000  0.3778240000000  0.6049200000000 1.0
C      1  0.4891890000000  0.4639120000000  0.4313860000000 1.0
C      1  0.4136780000000  0.4912610000000  0.4937060000000 1.0
C      1  0.5266980000000  0.5167850000000  0.5847780000000 1.0
C      1  0.4569370000000  0.4634000000000  0.3938360000000 1.0
C      1  0.5092560000000  0.5539970000000  0.5462950000000 1.0
C      1  0.6189330000000  0.5223270000000  0.5285520000000 1.0
C      1  0.6306840000000  0.5024970000000  0.4816620000000 1.0
C      1  0.5342920000000  0.4789770000000  0.3840280000000 1.0
C      1  0.5391110000000  0.4714690000000  0.5213210000000 1.0
C      1  0.5249030000000  0.4455830000000  0.5157590000000 1.0
C      1  0.3364960000000  0.4291030000000  0.5620950000000 1.0
C      1  0.4769400000000  0.5180120000000  0.6019830000000 1.0
C      1  0.5572550000000  0.4767940000000  0.5003750000000 1.0
C      1  0.6339090000000  0.5183890000000  0.5047020000000 1.0
C      1  0.5571730000000  0.4273160000000  0.5458730000000 1.0
C      1  0.5172850000000  0.4588820000000  0.5805570000000 1.0
C      1  0.4206160000000  0.5005530000000  0.5413080000000 1.0
C      1  0.4725890000000  0.5159150000000  0.5249850000000 1.0
C      1  0.4699890000000  0.4808640000000  0.4458410000000 1.0
C      1  0.5247400000000  0.3993350000000  0.4781290000000 1.0
C      1  0.5297660000000  0.5874910000000  0.4888690000000 1.0
C      1  0.5752500000000  0.5055010000000  0.3973670000000 1.0
C      1  0.5924100000000  0.4770950000000  0.4343630000000 1.0
C      1  0.5454660000000  0.4940280000000  0.4810240000000 1.0
C      1  0.4932240000000  0.4876210000000  0.4932630000000 1.0
C      1  0.5577350000000  0.5203780000000  0.4821330000000 1.0
C      1  0.5247250000000  0.5359600000000  0.5074660000000 1.0
C      1  0.4553070000000  0.4983060000000  0.5964040000000 1.0
END
