TITL C-612600-6631-1134 1.72189786515558 125000 -723.76804323156 0 0 118 (C1) n - 1
REM
REM in /home/nfs/bkarasulu/CARBON/AIRSS/Generating-Clusters/TERSOFF/Only-C1/FIRE-HFTN
REM
REM
REM
REM
REM
REM ./C.cell (11c1c37f851c82e70ff6c80c92926a4b)
REM AIRSS Version 0.9.1 bugfix July 2018 build 013d7b7c2542+ Fri, 06 Jul 2018 19:26:36 +0100
REM compiler GCC version 9.2.1 20190827 (Red Hat 9.2.1-1)
REM options -cpp -mtune=generic -march=x86-64 -g -O0 -fpre-include=/usr/include/finclude/math-vector-fortran.h
REM seed -1731298885 -593908425 -1772908336 290658362 -940219186 220127874 -1415838021 144495801 2067949319 -517794649 -500684618 -1931738419 -975162188 -598338655 580224568 963372476 -80475849 -504348142 619928928 -1190509818 351567485 -854090906 -831279515 -1283483559 1930882064 -997435544 -1211702332 -2087970551 1998685174 -1720288988 80466323 976622951 -136696164
REM
CELL 1.54180   50.00000   50.00000   50.00000   90.00000   90.00000   90.00000
LATT -1
SFAC C  
C      1  0.4688500000000  0.5738580000000  0.4317050000000 1.0
C      1  0.4430480000000  0.3993260000000  0.5452340000000 1.0
C      1  0.5735190000000  0.5540170000000  0.4638690000000 1.0
C      1  0.4403390000000  0.5012850000000  0.5491610000000 1.0
C      1  0.5097390000000  0.6177990000000  0.4753290000000 1.0
C      1  0.4903970000000  0.5404500000000  0.5758040000000 1.0
C      1  0.4639740000000  0.5494230000000  0.5097810000000 1.0
C      1  0.5348250000000  0.6046430000000  0.4747150000000 1.0
C      1  0.5052010000000  0.4362270000000  0.5531830000000 1.0
C      1  0.4541240000000  0.4466100000000  0.5931750000000 1.0
C      1  0.5468470000000  0.4995180000000  0.5333350000000 1.0
C      1  0.5226110000000  0.5140500000000  0.4953690000000 1.0
C      1  0.5169710000000  0.5325660000000  0.5858580000000 1.0
C      1  0.5296510000000  0.4359420000000  0.5685420000000 1.0
C      1  0.4621470000000  0.5378310000000  0.5774030000000 1.0
C      1  0.5191850000000  0.4991270000000  0.4006740000000 1.0
C      1  0.5861630000000  0.5553680000000  0.4876790000000 1.0
C      1  0.4682190000000  0.5907470000000  0.4828120000000 1.0
C      1  0.4690580000000  0.4517040000000  0.4280300000000 1.0
C      1  0.5260180000000  0.4791250000000  0.5928180000000 1.0
C      1  0.5690360000000  0.5068680000000  0.4130870000000 1.0
C      1  0.4548330000000  0.6048730000000  0.5757720000000 1.0
C      1  0.5743900000000  0.4793020000000  0.4735740000000 1.0
C      1  0.4503420000000  0.4727380000000  0.4175010000000 1.0
C      1  0.5706140000000  0.5792020000000  0.5270980000000 1.0
C      1  0.5892280000000  0.5041150000000  0.4310960000000 1.0
C      1  0.5877030000000  0.4873740000000  0.5539160000000 1.0
C      1  0.4984630000000  0.4286820000000  0.5260640000000 1.0
C      1  0.4657950000000  0.4979130000000  0.4088640000000 1.0
C      1  0.5825770000000  0.5562350000000  0.5158720000000 1.0
C      1  0.4879760000000  0.4569460000000  0.5630990000000 1.0
C      1  0.4238880000000  0.4720180000000  0.4269460000000 1.0
C      1  0.5414340000000  0.4222420000000  0.4427920000000 1.0
C      1  0.5439930000000  0.4935250000000  0.4141040000000 1.0
C      1  0.4173860000000  0.4350820000000  0.5272920000000 1.0
C      1  0.5503600000000  0.6106390000000  0.4977560000000 1.0
C      1  0.5922870000000  0.4920660000000  0.4551910000000 1.0
C      1  0.5241080000000  0.5050510000000  0.5800410000000 1.0
C      1  0.4414560000000  0.4259540000000  0.4600170000000 1.0
C      1  0.5463980000000  0.5559610000000  0.4556410000000 1.0
C      1  0.4594770000000  0.5771630000000  0.5073710000000 1.0
C      1  0.5221320000000  0.5664790000000  0.5514920000000 1.0
C      1  0.5303000000000  0.5317070000000  0.4525540000000 1.0
C      1  0.4577690000000  0.5803510000000  0.4578550000000 1.0
C      1  0.4627060000000  0.4683530000000  0.5109210000000 1.0
C      1  0.4466240000000  0.5586030000000  0.5628800000000 1.0
C      1  0.4695440000000  0.5907730000000  0.5317070000000 1.0
C      1  0.5185550000000  0.4166570000000  0.4598830000000 1.0
C      1  0.4079830000000  0.4624060000000  0.4482270000000 1.0
C      1  0.4252170000000  0.5473220000000  0.5472540000000 1.0
C      1  0.5197060000000  0.5407180000000  0.5025450000000 1.0
C      1  0.4569820000000  0.4822550000000  0.5359510000000 1.0
C      1  0.5192750000000  0.5142600000000  0.3778220000000 1.0
C      1  0.5694440000000  0.5093540000000  0.5181300000000 1.0
C      1  0.4822190000000  0.5414190000000  0.5279050000000 1.0
C      1  0.4306610000000  0.5376950000000  0.4584150000000 1.0
C      1  0.5015960000000  0.5316200000000  0.4496700000000 1.0
C      1  0.4387040000000  0.4100180000000  0.4838010000000 1.0
C      1  0.5486020000000  0.5962930000000  0.5222520000000 1.0
C      1  0.4779520000000  0.4920530000000  0.4685440000000 1.0
C      1  0.3812390000000  0.4677210000000  0.4493960000000 1.0
C      1  0.4944730000000  0.4890040000000  0.4108240000000 1.0
C      1  0.5300880000000  0.4140760000000  0.4885190000000 1.0
C      1  0.4584680000000  0.5250200000000  0.4175150000000 1.0
C      1  0.4085490000000  0.5243210000000  0.4685710000000 1.0
C      1  0.4893330000000  0.4151080000000  0.4604260000000 1.0
C      1  0.5646820000000  0.4159350000000  0.4588290000000 1.0
C      1  0.4589000000000  0.3969390000000  0.4973110000000 1.0
C      1  0.4334250000000  0.5656390000000  0.4615350000000 1.0
C      1  0.5645080000000  0.5394810000000  0.5734990000000 1.0
C      1  0.5443110000000  0.4730980000000  0.4339500000000 1.0
C      1  0.5018980000000  0.4685880000000  0.6053810000000 1.0
C      1  0.5322260000000  0.5766150000000  0.4696690000000 1.0
C      1  0.4156670000000  0.4337090000000  0.4996860000000 1.0
C      1  0.4804240000000  0.4567260000000  0.5905370000000 1.0
C      1  0.4667640000000  0.4293630000000  0.4469800000000 1.0
C      1  0.5428630000000  0.4456360000000  0.4276230000000 1.0
C      1  0.5451080000000  0.4812850000000  0.4637240000000 1.0
C      1  0.4527540000000  0.5250830000000  0.4461900000000 1.0
C      1  0.4973800000000  0.4744420000000  0.4572780000000 1.0
C      1  0.4570510000000  0.5850610000000  0.5569350000000 1.0
C      1  0.5081770000000  0.4945280000000  0.5096620000000 1.0
C      1  0.5824700000000  0.5232580000000  0.5580420000000 1.0
C      1  0.4846580000000  0.4029160000000  0.4875350000000 1.0
C      1  0.5355260000000  0.4557970000000  0.5177000000000 1.0
C      1  0.4825920000000  0.4804980000000  0.5488430000000 1.0
C      1  0.5067380000000  0.4098430000000  0.5058130000000 1.0
C      1  0.5496970000000  0.4703910000000  0.5362560000000 1.0
C      1  0.4304760000000  0.4242430000000  0.5503530000000 1.0
C      1  0.5252080000000  0.5046690000000  0.5511180000000 1.0
C      1  0.5225900000000  0.5901320000000  0.5340060000000 1.0
C      1  0.4932500000000  0.4673640000000  0.4304840000000 1.0
C      1  0.5171990000000  0.5639670000000  0.4900640000000 1.0
C      1  0.5877680000000  0.4857950000000  0.5216700000000 1.0
C      1  0.5020630000000  0.4969670000000  0.5373710000000 1.0
C      1  0.5649210000000  0.4687750000000  0.5614140000000 1.0
C      1  0.4975110000000  0.5508880000000  0.5495000000000 1.0
C      1  0.5828210000000  0.4669990000000  0.4989410000000 1.0
C      1  0.4362180000000  0.4369070000000  0.5751380000000 1.0
C      1  0.4870450000000  0.4517740000000  0.5111460000000 1.0
C      1  0.4230700000000  0.5213670000000  0.5386320000000 1.0
C      1  0.4775210000000  0.5183980000000  0.4586340000000 1.0
C      1  0.5760790000000  0.4389670000000  0.5003610000000 1.0
C      1  0.4204540000000  0.4455870000000  0.4667310000000 1.0
C      1  0.5368590000000  0.5101260000000  0.4704710000000 1.0
C      1  0.3875350000000  0.5170200000000  0.4821580000000 1.0
C      1  0.5818130000000  0.5320140000000  0.5300340000000 1.0
C      1  0.5377300000000  0.5508870000000  0.5729970000000 1.0
C      1  0.4964770000000  0.6006700000000  0.5224170000000 1.0
C      1  0.5195560000000  0.4674480000000  0.4731530000000 1.0
C      1  0.5593340000000  0.4198300000000  0.4872950000000 1.0
C      1  0.4510590000000  0.5114520000000  0.5744630000000 1.0
C      1  0.4903920000000  0.6073290000000  0.4929300000000 1.0
C      1  0.4590650000000  0.4822720000000  0.4868060000000 1.0
C      1  0.4664010000000  0.5529950000000  0.4133460000000 1.0
C      1  0.5440170000000  0.4592380000000  0.5795990000000 1.0
C      1  0.5128860000000  0.4658930000000  0.5016470000000 1.0
C      1  0.4541160000000  0.3880420000000  0.5235100000000 1.0
END
