TITL C-612606-7351-486 -289.766844914862 125000 -833.941331929593 0 0 139 (C1) n - 1
REM
REM in /home/nfs/bkarasulu/CARBON/AIRSS/Generating-Clusters/TERSOFF/Only-C1/FIRE-HFTN
REM
REM
REM
REM
REM
REM ./C.cell (11c1c37f851c82e70ff6c80c92926a4b)
REM AIRSS Version 0.9.1 bugfix July 2018 build 013d7b7c2542+ Fri, 06 Jul 2018 19:26:36 +0100
REM compiler GCC version 9.2.1 20190827 (Red Hat 9.2.1-1)
REM options -cpp -mtune=generic -march=x86-64 -g -O0 -fpre-include=/usr/include/finclude/math-vector-fortran.h
REM seed 438252264 -1003106119 1529372835 -895130098 -1539674044 -37558202 -446470804 -264880043 420279260 -1236116733 -443025634 1917162285 1230346197 -900908752 883428469 -1967932934 277422503 14794119 -1165772188 -458222610 7105582 877824260 1854534567 390795547 -1845030337 -789375989 -566939224 -162369931 599053784 2012632016 -238444421 1314263981 -236565376
REM
CELL 1.54180   50.00000   50.00000   50.00000   90.00000   90.00000   90.00000
LATT -1
SFAC C  
C      1  0.5636420000000  0.5376080000000  0.3945710000000 1.0
C      1  0.6269650000000  0.4591260000000  0.5251670000000 1.0
C      1  0.5003770000000  0.4528560000000  0.5869060000000 1.0
C      1  0.4941170000000  0.4516380000000  0.4991040000000 1.0
C      1  0.4071670000000  0.4874600000000  0.5784240000000 1.0
C      1  0.5421450000000  0.4046360000000  0.5031040000000 1.0
C      1  0.5078210000000  0.4958440000000  0.4509910000000 1.0
C      1  0.4480280000000  0.4949290000000  0.4280590000000 1.0
C      1  0.5478340000000  0.5334120000000  0.5840360000000 1.0
C      1  0.4651260000000  0.4415700000000  0.5368890000000 1.0
C      1  0.3910350000000  0.4983680000000  0.4818920000000 1.0
C      1  0.4646250000000  0.4711270000000  0.5338150000000 1.0
C      1  0.5061570000000  0.4451370000000  0.4123110000000 1.0
C      1  0.4158150000000  0.4411330000000  0.5869030000000 1.0
C      1  0.5265040000000  0.3950050000000  0.4597300000000 1.0
C      1  0.4580140000000  0.5234190000000  0.4874190000000 1.0
C      1  0.4440150000000  0.4143240000000  0.4722520000000 1.0
C      1  0.3896440000000  0.5409900000000  0.5025310000000 1.0
C      1  0.5138200000000  0.5748960000000  0.5144880000000 1.0
C      1  0.4342550000000  0.3983360000000  0.5239640000000 1.0
C      1  0.4719260000000  0.4198880000000  0.5537200000000 1.0
C      1  0.4069230000000  0.5610950000000  0.4614820000000 1.0
C      1  0.4962320000000  0.5081660000000  0.5418950000000 1.0
C      1  0.4530800000000  0.4700730000000  0.5988790000000 1.0
C      1  0.4965000000000  0.4996340000000  0.5133640000000 1.0
C      1  0.4474450000000  0.5580970000000  0.5557960000000 1.0
C      1  0.4230550000000  0.4095030000000  0.5484240000000 1.0
C      1  0.5378600000000  0.4416130000000  0.6176710000000 1.0
C      1  0.4789900000000  0.3947890000000  0.5423610000000 1.0
C      1  0.5412670000000  0.5248850000000  0.3838770000000 1.0
C      1  0.4974410000000  0.4701840000000  0.4542850000000 1.0
C      1  0.4489510000000  0.5438990000000  0.4463460000000 1.0
C      1  0.5029550000000  0.4904410000000  0.3915960000000 1.0
C      1  0.4902950000000  0.4693080000000  0.4074070000000 1.0
C      1  0.4020170000000  0.4947880000000  0.4573340000000 1.0
C      1  0.4717690000000  0.4471890000000  0.5936860000000 1.0
C      1  0.4308740000000  0.4212070000000  0.5739990000000 1.0
C      1  0.5673150000000  0.6043820000000  0.5114790000000 1.0
C      1  0.5461970000000  0.4077330000000  0.4755570000000 1.0
C      1  0.4620010000000  0.5192150000000  0.4342060000000 1.0
C      1  0.5434260000000  0.5254660000000  0.4637550000000 1.0
C      1  0.6085060000000  0.5170350000000  0.4555880000000 1.0
C      1  0.5609570000000  0.6261040000000  0.4960680000000 1.0
C      1  0.4677950000000  0.5704290000000  0.4908170000000 1.0
C      1  0.6730180000000  0.4338490000000  0.5268450000000 1.0
C      1  0.4833040000000  0.4853260000000  0.5537930000000 1.0
C      1  0.5009280000000  0.4643650000000  0.5609030000000 1.0
C      1  0.4570250000000  0.3820210000000  0.5300190000000 1.0
C      1  0.5847440000000  0.5613650000000  0.4920990000000 1.0
C      1  0.5095400000000  0.4374370000000  0.5180660000000 1.0
C      1  0.4209870000000  0.4933480000000  0.4379720000000 1.0
C      1  0.4822440000000  0.5112550000000  0.6028160000000 1.0
C      1  0.4190980000000  0.5798960000000  0.5044460000000 1.0
C      1  0.4866440000000  0.5030500000000  0.3724790000000 1.0
C      1  0.4295060000000  0.5645790000000  0.4448410000000 1.0
C      1  0.3912210000000  0.4969900000000  0.5584840000000 1.0
C      1  0.5802090000000  0.4431370000000  0.4842770000000 1.0
C      1  0.4817650000000  0.4754980000000  0.5092180000000 1.0
C      1  0.5809430000000  0.4596870000000  0.5079980000000 1.0
C      1  0.5323630000000  0.5482080000000  0.4794390000000 1.0
C      1  0.4073690000000  0.6030640000000  0.5132030000000 1.0
C      1  0.4168120000000  0.4659320000000  0.5261510000000 1.0
C      1  0.4560500000000  0.6275350000000  0.4748070000000 1.0
C      1  0.4905610000000  0.5178990000000  0.4434740000000 1.0
C      1  0.5231810000000  0.5020300000000  0.5059810000000 1.0
C      1  0.5528500000000  0.5856660000000  0.4369410000000 1.0
C      1  0.5767030000000  0.5024900000000  0.4905020000000 1.0
C      1  0.5442540000000  0.4599390000000  0.5421200000000 1.0
C      1  0.4916800000000  0.5854370000000  0.4976880000000 1.0
C      1  0.5370290000000  0.5660260000000  0.5009560000000 1.0
C      1  0.4416840000000  0.4743430000000  0.4808880000000 1.0
C      1  0.4686540000000  0.6278470000000  0.4986480000000 1.0
C      1  0.3869700000000  0.5131700000000  0.5060870000000 1.0
C      1  0.4470150000000  0.4993470000000  0.4861790000000 1.0
C      1  0.5547810000000  0.4668680000000  0.5157030000000 1.0
C      1  0.5776690000000  0.6075680000000  0.5366350000000 1.0
C      1  0.5484340000000  0.5380750000000  0.4382730000000 1.0
C      1  0.5484460000000  0.4565940000000  0.5711960000000 1.0
C      1  0.4669850000000  0.5475810000000  0.4719510000000 1.0
C      1  0.5370960000000  0.4844210000000  0.4897790000000 1.0
C      1  0.5512540000000  0.4866770000000  0.4082030000000 1.0
C      1  0.4463820000000  0.5745990000000  0.5103060000000 1.0
C      1  0.4464350000000  0.6137290000000  0.4538940000000 1.0
C      1  0.4380780000000  0.5914260000000  0.4414780000000 1.0
C      1  0.4362290000000  0.5092890000000  0.5426780000000 1.0
C      1  0.4625030000000  0.4934680000000  0.6127560000000 1.0
C      1  0.6501730000000  0.4463820000000  0.5260520000000 1.0
C      1  0.5401280000000  0.5183190000000  0.5224180000000 1.0
C      1  0.5337650000000  0.4985640000000  0.4639950000000 1.0
C      1  0.4919160000000  0.4207040000000  0.4144320000000 1.0
C      1  0.3842490000000  0.5037290000000  0.5330340000000 1.0
C      1  0.4378070000000  0.4826930000000  0.5339950000000 1.0
C      1  0.5731080000000  0.5302690000000  0.4231710000000 1.0
C      1  0.4597460000000  0.4243740000000  0.5791090000000 1.0
C      1  0.5221570000000  0.5214570000000  0.5449400000000 1.0
C      1  0.5681720000000  0.5175220000000  0.5761920000000 1.0
C      1  0.4517340000000  0.4987670000000  0.6375020000000 1.0
C      1  0.6024340000000  0.4727430000000  0.5234310000000 1.0
C      1  0.4037110000000  0.5612460000000  0.4894840000000 1.0
C      1  0.5519250000000  0.4412130000000  0.4417350000000 1.0
C      1  0.4629770000000  0.4706410000000  0.4208750000000 1.0
C      1  0.5167180000000  0.4530550000000  0.5403690000000 1.0
C      1  0.5347790000000  0.5639400000000  0.4371640000000 1.0
C      1  0.4824100000000  0.6087060000000  0.5138810000000 1.0
C      1  0.5973160000000  0.5001610000000  0.4733190000000 1.0
C      1  0.5886820000000  0.5400190000000  0.5111220000000 1.0
C      1  0.4557930000000  0.5777360000000  0.5378500000000 1.0
C      1  0.5614960000000  0.4303170000000  0.4662390000000 1.0
C      1  0.5853090000000  0.5029590000000  0.5612670000000 1.0
C      1  0.5050340000000  0.3919360000000  0.5328220000000 1.0
C      1  0.4530500000000  0.4465720000000  0.4339450000000 1.0
C      1  0.5325260000000  0.4447730000000  0.4232860000000 1.0
C      1  0.6006910000000  0.4988420000000  0.5374840000000 1.0
C      1  0.4400540000000  0.5325250000000  0.5549810000000 1.0
C      1  0.4704810000000  0.5154020000000  0.3561930000000 1.0
C      1  0.6084670000000  0.5241370000000  0.5248600000000 1.0
C      1  0.4930240000000  0.5431910000000  0.4577670000000 1.0
C      1  0.4340030000000  0.4079460000000  0.4967860000000 1.0
C      1  0.5291580000000  0.4499410000000  0.5930690000000 1.0
C      1  0.4248560000000  0.4680590000000  0.5899260000000 1.0
C      1  0.5773860000000  0.5843970000000  0.4487070000000 1.0
C      1  0.3974340000000  0.4504180000000  0.5180780000000 1.0
C      1  0.5305170000000  0.4994770000000  0.3932110000000 1.0
C      1  0.5006550000000  0.3940030000000  0.4525170000000 1.0
C      1  0.5720040000000  0.4995610000000  0.4204410000000 1.0
C      1  0.5194980000000  0.4108180000000  0.5180870000000 1.0
C      1  0.5214370000000  0.5445250000000  0.5839690000000 1.0
C      1  0.5146880000000  0.5658730000000  0.5660490000000 1.0
C      1  0.5893170000000  0.5620400000000  0.4623540000000 1.0
C      1  0.4795030000000  0.5942580000000  0.5397910000000 1.0
C      1  0.4959540000000  0.4501270000000  0.4716400000000 1.0
C      1  0.5006980000000  0.5298210000000  0.5968220000000 1.0
C      1  0.5661250000000  0.5211130000000  0.5101670000000 1.0
C      1  0.5946710000000  0.5390290000000  0.4441970000000 1.0
C      1  0.5152250000000  0.5601070000000  0.4583180000000 1.0
C      1  0.4579620000000  0.4220660000000  0.4483600000000 1.0
C      1  0.5051950000000  0.5786430000000  0.5427080000000 1.0
C      1  0.4814580000000  0.4086110000000  0.4380900000000 1.0
C      1  0.5628970000000  0.5783100000000  0.5014780000000 1.0
END
