TITL C-612604-1799-1220 0.136631249129568 125000 -603.882878275288 0 0 98 (C1) n - 1
REM
REM in /home/nfs/bkarasulu/CARBON/AIRSS/Generating-Clusters/TERSOFF/Only-C1/FIRE-HFTN
REM
REM
REM
REM
REM
REM ./C.cell (11c1c37f851c82e70ff6c80c92926a4b)
REM AIRSS Version 0.9.1 bugfix July 2018 build 013d7b7c2542+ Fri, 06 Jul 2018 19:26:36 +0100
REM compiler GCC version 9.2.1 20190827 (Red Hat 9.2.1-1)
REM options -cpp -mtune=generic -march=x86-64 -g -O0 -fpre-include=/usr/include/finclude/math-vector-fortran.h
REM seed -1135033637 1199275506 -1961809545 1372496402 1056868639 2042704093 -1950170363 -361920283 859212798 -1313759392 -1788723233 -1811081253 -1511049263 -1109740285 -1140991838 981617630 1533632803 1496490719 -1924238862 -1170171109 -1168152978 1534715088 1518037142 1941980252 1830392145 1709817467 1107865529 1271363236 -203707284 -1490934831 2011919434 991755541 1480503393
REM
CELL 1.54180   50.00000   50.00000   50.00000   90.00000   90.00000   90.00000
LATT -1
SFAC C  
C      1  0.4824770000000  0.4198650000000  0.5262450000000 1.0
C      1  0.4459690000000  0.4423640000000  0.5493980000000 1.0
C      1  0.5200740000000  0.5394080000000  0.5444220000000 1.0
C      1  0.5591680000000  0.4804010000000  0.4732940000000 1.0
C      1  0.5795400000000  0.4403770000000  0.4916920000000 1.0
C      1  0.5292370000000  0.6272830000000  0.5340980000000 1.0
C      1  0.4784240000000  0.4832700000000  0.5769710000000 1.0
C      1  0.5653220000000  0.4151590000000  0.4944910000000 1.0
C      1  0.4937730000000  0.5276210000000  0.5455890000000 1.0
C      1  0.4920850000000  0.4482560000000  0.4155260000000 1.0
C      1  0.5334280000000  0.6019310000000  0.5248010000000 1.0
C      1  0.4353240000000  0.4244990000000  0.5079520000000 1.0
C      1  0.4307480000000  0.5398530000000  0.5401160000000 1.0
C      1  0.4722780000000  0.4594140000000  0.4773350000000 1.0
C      1  0.4720610000000  0.4065860000000  0.4761330000000 1.0
C      1  0.4753330000000  0.5925670000000  0.5087470000000 1.0
C      1  0.5766530000000  0.4596530000000  0.4377420000000 1.0
C      1  0.5163000000000  0.4466890000000  0.5618210000000 1.0
C      1  0.4226200000000  0.4724360000000  0.4987910000000 1.0
C      1  0.4464930000000  0.5245050000000  0.4648850000000 1.0
C      1  0.4294660000000  0.4460630000000  0.4899330000000 1.0
C      1  0.4740100000000  0.5420840000000  0.5600600000000 1.0
C      1  0.4715340000000  0.4363140000000  0.4315420000000 1.0
C      1  0.5126760000000  0.4267580000000  0.4863600000000 1.0
C      1  0.4916710000000  0.5816410000000  0.5801100000000 1.0
C      1  0.4313450000000  0.5005870000000  0.4575740000000 1.0
C      1  0.5255390000000  0.4512260000000  0.4944690000000 1.0
C      1  0.5053710000000  0.5426790000000  0.4874790000000 1.0
C      1  0.4832160000000  0.5024600000000  0.5310590000000 1.0
C      1  0.5780670000000  0.4587780000000  0.4676750000000 1.0
C      1  0.4619980000000  0.5815190000000  0.5394250000000 1.0
C      1  0.4825160000000  0.4163310000000  0.4505740000000 1.0
C      1  0.4397990000000  0.5656890000000  0.5277390000000 1.0
C      1  0.4139480000000  0.4940280000000  0.4813310000000 1.0
C      1  0.5312900000000  0.5396610000000  0.4987570000000 1.0
C      1  0.5115190000000  0.4183890000000  0.4577830000000 1.0
C      1  0.5434590000000  0.5378670000000  0.4369780000000 1.0
C      1  0.5322590000000  0.4095390000000  0.4425480000000 1.0
C      1  0.4977860000000  0.5884900000000  0.4921700000000 1.0
C      1  0.4045770000000  0.5155770000000  0.4989170000000 1.0
C      1  0.4916240000000  0.4766910000000  0.4678640000000 1.0
C      1  0.4485770000000  0.5276300000000  0.5633370000000 1.0
C      1  0.5459600000000  0.5819600000000  0.5411010000000 1.0
C      1  0.4889050000000  0.4148880000000  0.4987220000000 1.0
C      1  0.5364930000000  0.5283900000000  0.5241090000000 1.0
C      1  0.4492340000000  0.4689600000000  0.5418080000000 1.0
C      1  0.4113430000000  0.5264740000000  0.5232140000000 1.0
C      1  0.5698330000000  0.4466050000000  0.5444200000000 1.0
C      1  0.4538370000000  0.4234650000000  0.5301550000000 1.0
C      1  0.5014840000000  0.4885060000000  0.5121130000000 1.0
C      1  0.5184510000000  0.5331650000000  0.4249370000000 1.0
C      1  0.5505310000000  0.5523750000000  0.4821140000000 1.0
C      1  0.5491840000000  0.5041930000000  0.5310600000000 1.0
C      1  0.4999520000000  0.4630160000000  0.5825370000000 1.0
C      1  0.5069490000000  0.4241160000000  0.5433070000000 1.0
C      1  0.5596990000000  0.4741720000000  0.4202810000000 1.0
C      1  0.4884270000000  0.5215890000000  0.4842780000000 1.0
C      1  0.5295790000000  0.4085850000000  0.5327720000000 1.0
C      1  0.4900970000000  0.5663390000000  0.4037490000000 1.0
C      1  0.5137150000000  0.4682310000000  0.4531580000000 1.0
C      1  0.4567960000000  0.5057590000000  0.5135270000000 1.0
C      1  0.4476250000000  0.4487040000000  0.4689000000000 1.0
C      1  0.5141620000000  0.5073520000000  0.4125960000000 1.0
C      1  0.5136150000000  0.4634830000000  0.4255510000000 1.0
C      1  0.5440200000000  0.4568640000000  0.5536030000000 1.0
C      1  0.5737770000000  0.5802070000000  0.5423890000000 1.0
C      1  0.4963890000000  0.5524440000000  0.4267580000000 1.0
C      1  0.5118630000000  0.4535270000000  0.6346230000000 1.0
C      1  0.4984110000000  0.4965460000000  0.4857350000000 1.0
C      1  0.4486360000000  0.4537740000000  0.4406310000000 1.0
C      1  0.5397600000000  0.4780340000000  0.5347720000000 1.0
C      1  0.4397400000000  0.5705840000000  0.4736720000000 1.0
C      1  0.5464370000000  0.5806870000000  0.4829740000000 1.0
C      1  0.4957810000000  0.5659780000000  0.4745400000000 1.0
C      1  0.5060300000000  0.4581250000000  0.6096450000000 1.0
C      1  0.4432380000000  0.5746920000000  0.5006980000000 1.0
C      1  0.5643780000000  0.5076530000000  0.4688110000000 1.0
C      1  0.4860680000000  0.5017950000000  0.4081890000000 1.0
C      1  0.4614870000000  0.4952890000000  0.4172530000000 1.0
C      1  0.5345900000000  0.4663800000000  0.4718600000000 1.0
C      1  0.5828890000000  0.4487360000000  0.5199480000000 1.0
C      1  0.4738300000000  0.4805920000000  0.5491720000000 1.0
C      1  0.5486480000000  0.4051220000000  0.5137030000000 1.0
C      1  0.4609250000000  0.5203400000000  0.4894120000000 1.0
C      1  0.5208510000000  0.4693100000000  0.5160080000000 1.0
C      1  0.4739540000000  0.5703290000000  0.5617040000000 1.0
C      1  0.5177450000000  0.5748160000000  0.5792900000000 1.0
C      1  0.4577090000000  0.5047900000000  0.5825640000000 1.0
C      1  0.5296870000000  0.5639230000000  0.5561770000000 1.0
C      1  0.5999890000000  0.5765430000000  0.5412890000000 1.0
C      1  0.5257740000000  0.5942610000000  0.4984490000000 1.0
C      1  0.4527400000000  0.5517260000000  0.4564800000000 1.0
C      1  0.5576490000000  0.5343060000000  0.4610960000000 1.0
C      1  0.6257060000000  0.5725590000000  0.5397470000000 1.0
C      1  0.4809670000000  0.5587960000000  0.4505490000000 1.0
C      1  0.4438230000000  0.4828680000000  0.4361820000000 1.0
C      1  0.4390580000000  0.4829780000000  0.5195420000000 1.0
C      1  0.5320250000000  0.4829630000000  0.4143930000000 1.0
END
