TITL C-612602-9376-158 0.000283702515654061 125000 -125.356821709727 0 0 22 (C1) n - 1
REM
REM in /home/nfs/bkarasulu/CARBON/AIRSS/Generating-Clusters/TERSOFF/Only-C1/FIRE-HFTN
REM
REM
REM
REM
REM
REM ./C.cell (11c1c37f851c82e70ff6c80c92926a4b)
REM AIRSS Version 0.9.1 bugfix July 2018 build 013d7b7c2542+ Fri, 06 Jul 2018 19:26:36 +0100
REM compiler GCC version 9.2.1 20190827 (Red Hat 9.2.1-1)
REM options -cpp -mtune=generic -march=x86-64 -g -O0 -fpre-include=/usr/include/finclude/math-vector-fortran.h
REM seed 1079581418 -2045146881 -1048037902 1742397822 -185556633 1735659320 -1202002203 -501861542 456257809 -2015031093 -764116362 192250389 675792227 -1895200900 -1106712156 -469663135 -709234447 -1085935968 1043237540 1468569153 -1489339353 1698081429 2117071975 1092785140 1894463375 168868670 497484352 -593464635 -700503812 1517778739 -642485500 1274415846 1276471181
REM
CELL 1.54180   50.00000   50.00000   50.00000   90.00000   90.00000   90.00000
LATT -1
SFAC C  
C      1  0.5485070000000  0.4880030000000  0.5854790000000 1.0
C      1  0.5400810000000  0.5136200000000  0.5450600000000 1.0
C      1  0.5359910000000  0.4907690000000  0.5607130000000 1.0
C      1  0.5322190000000  0.5426520000000  0.5020180000000 1.0
C      1  0.4801320000000  0.5091580000000  0.4423880000000 1.0
C      1  0.4598220000000  0.4871280000000  0.4816040000000 1.0
C      1  0.5015290000000  0.4537280000000  0.4844620000000 1.0
C      1  0.5026370000000  0.4597750000000  0.5331690000000 1.0
C      1  0.4849510000000  0.5475030000000  0.4128400000000 1.0
C      1  0.5384760000000  0.5308570000000  0.5249540000000 1.0
C      1  0.5190420000000  0.4707750000000  0.5509050000000 1.0
C      1  0.5602090000000  0.4854270000000  0.6086230000000 1.0
C      1  0.4793340000000  0.5598170000000  0.3905680000000 1.0
C      1  0.4633980000000  0.4734530000000  0.5062850000000 1.0
C      1  0.4909580000000  0.5343350000000  0.4366560000000 1.0
C      1  0.5080220000000  0.5458490000000  0.4556460000000 1.0
C      1  0.4886980000000  0.4599400000000  0.5090670000000 1.0
C      1  0.4438700000000  0.4729390000000  0.5260500000000 1.0
C      1  0.4968060000000  0.4666070000000  0.4610110000000 1.0
C      1  0.5218700000000  0.5480400000000  0.4781800000000 1.0
C      1  0.4774040000000  0.4872900000000  0.4592730000000 1.0
C      1  0.4260420000000  0.4723340000000  0.5450490000000 1.0
END
