TITL C-612607-4507-1148 -3771.00663392233 125000 -919.866270256869 0 0 149 (C1) n - 1
REM
REM in /home/nfs/bkarasulu/CARBON/AIRSS/Generating-Clusters/TERSOFF/Only-C1/FIRE-HFTN
REM
REM
REM
REM
REM
REM ./C.cell (11c1c37f851c82e70ff6c80c92926a4b)
REM AIRSS Version 0.9.1 bugfix July 2018 build 013d7b7c2542+ Fri, 06 Jul 2018 19:26:36 +0100
REM compiler GCC version 9.2.1 20190827 (Red Hat 9.2.1-1)
REM options -cpp -mtune=generic -march=x86-64 -g -O0 -fpre-include=/usr/include/finclude/math-vector-fortran.h
REM seed -537093820 686814236 1063748257 -1717057923 -75427679 -983034903 1183145423 -111035373 892092875 1409138969 -1676695093 1253798849 755697086 527897844 -1704091666 -1067074643 -1287824095 -1477221266 -1207951420 528744734 -1750980372 1054323478 -226327438 -963564445 -840896710 -260991187 -533897143 1572151080 2083202340 506806028 309212960 1255861712 649783208
REM
CELL 1.54180   50.00000   50.00000   50.00000   90.00000   90.00000   90.00000
LATT -1
SFAC C  
C      1  0.4043840000000  0.4328580000000  0.4852940000000 1.0
C      1  0.5153950000000  0.5956830000000  0.4991470000000 1.0
C      1  0.5095320000000  0.5701830000000  0.4874460000000 1.0
C      1  0.4848840000000  0.4077410000000  0.5885500000000 1.0
C      1  0.4843760000000  0.5188380000000  0.4529200000000 1.0
C      1  0.4207380000000  0.5209920000000  0.5430870000000 1.0
C      1  0.5228430000000  0.5743860000000  0.4202740000000 1.0
C      1  0.5754960000000  0.4858200000000  0.5784560000000 1.0
C      1  0.5629300000000  0.4695100000000  0.3842780000000 1.0
C      1  0.4768360000000  0.4066220000000  0.5613060000000 1.0
C      1  0.5620590000000  0.5644880000000  0.4605650000000 1.0
C      1  0.4270610000000  0.4508310000000  0.4216450000000 1.0
C      1  0.5009650000000  0.4632100000000  0.5456410000000 1.0
C      1  0.4299930000000  0.5450930000000  0.4761450000000 1.0
C      1  0.5222270000000  0.4922120000000  0.4005600000000 1.0
C      1  0.5979430000000  0.4845470000000  0.4300890000000 1.0
C      1  0.5879430000000  0.5569180000000  0.5130130000000 1.0
C      1  0.5300260000000  0.5513640000000  0.4907400000000 1.0
C      1  0.5990590000000  0.4382730000000  0.4938410000000 1.0
C      1  0.5102680000000  0.4218830000000  0.4131680000000 1.0
C      1  0.4901210000000  0.5043270000000  0.3647440000000 1.0
C      1  0.5101450000000  0.5151160000000  0.4419270000000 1.0
C      1  0.4235110000000  0.4772360000000  0.5240010000000 1.0
C      1  0.4389480000000  0.4352800000000  0.5504740000000 1.0
C      1  0.4937950000000  0.4675780000000  0.4663760000000 1.0
C      1  0.4610820000000  0.5154760000000  0.4351270000000 1.0
C      1  0.5509260000000  0.4362760000000  0.4444420000000 1.0
C      1  0.4491650000000  0.4083370000000  0.5527440000000 1.0
C      1  0.5332450000000  0.5671070000000  0.6443380000000 1.0
C      1  0.5633690000000  0.4102240000000  0.4879000000000 1.0
C      1  0.4571940000000  0.5544190000000  0.5184650000000 1.0
C      1  0.5118300000000  0.4908500000000  0.4269700000000 1.0
C      1  0.5022740000000  0.5598470000000  0.5578910000000 1.0
C      1  0.4012040000000  0.5743920000000  0.5334080000000 1.0
C      1  0.4767070000000  0.4573410000000  0.4215530000000 1.0
C      1  0.4841810000000  0.4975190000000  0.6057530000000 1.0
C      1  0.4226980000000  0.5670360000000  0.5509160000000 1.0
C      1  0.5778260000000  0.6219390000000  0.5146700000000 1.0
C      1  0.5064750000000  0.5148410000000  0.6023280000000 1.0
C      1  0.4183630000000  0.3653230000000  0.5409650000000 1.0
C      1  0.5827430000000  0.4831560000000  0.5044500000000 1.0
C      1  0.5839840000000  0.5236740000000  0.5465720000000 1.0
C      1  0.4744700000000  0.4685680000000  0.5547950000000 1.0
C      1  0.4508490000000  0.5770220000000  0.5005550000000 1.0
C      1  0.5901880000000  0.5006630000000  0.5615030000000 1.0
C      1  0.5454580000000  0.5897000000000  0.4618160000000 1.0
C      1  0.5461360000000  0.5374740000000  0.4001890000000 1.0
C      1  0.5477050000000  0.4822200000000  0.4669620000000 1.0
C      1  0.5377860000000  0.4632120000000  0.4872520000000 1.0
C      1  0.5946150000000  0.5091670000000  0.4988700000000 1.0
C      1  0.5917810000000  0.5295030000000  0.5194770000000 1.0
C      1  0.5006280000000  0.4278060000000  0.4905580000000 1.0
C      1  0.5331220000000  0.4243960000000  0.4267580000000 1.0
C      1  0.5455440000000  0.5392310000000  0.4686830000000 1.0
C      1  0.4849770000000  0.6032420000000  0.5711390000000 1.0
C      1  0.4497690000000  0.4889390000000  0.5200970000000 1.0
C      1  0.5166280000000  0.4862340000000  0.5389440000000 1.0
C      1  0.3723490000000  0.3054470000000  0.5175010000000 1.0
C      1  0.5473640000000  0.5286410000000  0.5789530000000 1.0
C      1  0.4990690000000  0.5428400000000  0.6098240000000 1.0
C      1  0.4760760000000  0.4173470000000  0.4933310000000 1.0
C      1  0.4435530000000  0.5714940000000  0.4726340000000 1.0
C      1  0.5935440000000  0.4412020000000  0.4651240000000 1.0
C      1  0.4041150000000  0.4979560000000  0.4731050000000 1.0
C      1  0.4251120000000  0.4479450000000  0.5277250000000 1.0
C      1  0.4504310000000  0.4677160000000  0.4220330000000 1.0
C      1  0.3980280000000  0.4429100000000  0.4613780000000 1.0
C      1  0.5631090000000  0.5995230000000  0.5090750000000 1.0
C      1  0.5032520000000  0.5102980000000  0.5412150000000 1.0
C      1  0.5882860000000  0.4640020000000  0.4468590000000 1.0
C      1  0.5139010000000  0.4379560000000  0.5438690000000 1.0
C      1  0.4814710000000  0.5425560000000  0.5607580000000 1.0
C      1  0.5942420000000  0.5281490000000  0.4493310000000 1.0
C      1  0.4407810000000  0.5221210000000  0.5923520000000 1.0
C      1  0.6341460000000  0.5114650000000  0.4712720000000 1.0
C      1  0.5423700000000  0.6005540000000  0.4892010000000 1.0
C      1  0.5764930000000  0.4257780000000  0.5092500000000 1.0
C      1  0.5163340000000  0.5553480000000  0.6283770000000 1.0
C      1  0.6068940000000  0.5160720000000  0.4731550000000 1.0
C      1  0.4754360000000  0.5592830000000  0.6011190000000 1.0
C      1  0.4577280000000  0.5028440000000  0.6041750000000 1.0
C      1  0.4894650000000  0.5603900000000  0.4707190000000 1.0
C      1  0.4584420000000  0.5383140000000  0.4184120000000 1.0
C      1  0.4313560000000  0.5678730000000  0.5779940000000 1.0
C      1  0.5489190000000  0.3875090000000  0.4917010000000 1.0
C      1  0.4810600000000  0.5861780000000  0.5918020000000 1.0
C      1  0.5004160000000  0.5618270000000  0.4056930000000 1.0
C      1  0.5870360000000  0.5556610000000  0.4506870000000 1.0
C      1  0.4733170000000  0.5761820000000  0.4522160000000 1.0
C      1  0.5693420000000  0.4225640000000  0.4622990000000 1.0
C      1  0.5498900000000  0.5093140000000  0.4781570000000 1.0
C      1  0.5478520000000  0.4806210000000  0.5845780000000 1.0
C      1  0.5399580000000  0.5518550000000  0.4237610000000 1.0
C      1  0.3957580000000  0.5622630000000  0.5094160000000 1.0
C      1  0.4219070000000  0.4302170000000  0.4039780000000 1.0
C      1  0.5643420000000  0.5145040000000  0.4058120000000 1.0
C      1  0.4547960000000  0.4526040000000  0.5661190000000 1.0
C      1  0.5089590000000  0.5111140000000  0.3831210000000 1.0
C      1  0.4935100000000  0.5995710000000  0.4479690000000 1.0
C      1  0.5632660000000  0.5401680000000  0.5583660000000 1.0
C      1  0.4057900000000  0.5418220000000  0.4921750000000 1.0
C      1  0.5587380000000  0.4647690000000  0.4469350000000 1.0
C      1  0.4547620000000  0.4966310000000  0.4932090000000 1.0
C      1  0.4097710000000  0.4599740000000  0.4426740000000 1.0
C      1  0.4177480000000  0.4870300000000  0.4507400000000 1.0
C      1  0.4496670000000  0.4194950000000  0.4966450000000 1.0
C      1  0.5306120000000  0.5343570000000  0.4438980000000 1.0
C      1  0.5183410000000  0.5374820000000  0.3880330000000 1.0
C      1  0.4481530000000  0.5502470000000  0.5940340000000 1.0
C      1  0.5258570000000  0.4375320000000  0.5972050000000 1.0
C      1  0.5406530000000  0.4889300000000  0.5248150000000 1.0
C      1  0.5049960000000  0.4209530000000  0.6008380000000 1.0
C      1  0.5436140000000  0.5110410000000  0.5070260000000 1.0
C      1  0.4753370000000  0.5607610000000  0.4203980000000 1.0
C      1  0.4959630000000  0.4702640000000  0.4380900000000 1.0
C      1  0.3875120000000  0.3251730000000  0.5252880000000 1.0
C      1  0.4803080000000  0.5386800000000  0.5092720000000 1.0
C      1  0.5507380000000  0.4902840000000  0.3970210000000 1.0
C      1  0.5120380000000  0.4520610000000  0.4821530000000 1.0
C      1  0.5865510000000  0.5111030000000  0.4265180000000 1.0
C      1  0.5020790000000  0.6072570000000  0.5210410000000 1.0
C      1  0.4253620000000  0.4320400000000  0.5037560000000 1.0
C      1  0.4978470000000  0.4148270000000  0.5439280000000 1.0
C      1  0.4029440000000  0.3452230000000  0.5331900000000 1.0
C      1  0.4491220000000  0.5231410000000  0.4808730000000 1.0
C      1  0.4229490000000  0.5148770000000  0.5710940000000 1.0
C      1  0.5535040000000  0.5642380000000  0.5457300000000 1.0
C      1  0.4781900000000  0.5152140000000  0.5538450000000 1.0
C      1  0.5266210000000  0.5697570000000  0.5522320000000 1.0
C      1  0.5562730000000  0.4673950000000  0.5117440000000 1.0
C      1  0.5287490000000  0.5340330000000  0.5117640000000 1.0
C      1  0.4336410000000  0.3857800000000  0.5480050000000 1.0
C      1  0.4360250000000  0.5453300000000  0.5360220000000 1.0
C      1  0.4176620000000  0.4104340000000  0.3875550000000 1.0
C      1  0.5409390000000  0.4528710000000  0.5784790000000 1.0
C      1  0.5038060000000  0.5295260000000  0.5213080000000 1.0
C      1  0.4778060000000  0.5340330000000  0.4785780000000 1.0
C      1  0.4917780000000  0.6098890000000  0.5458410000000 1.0
C      1  0.4715740000000  0.4788200000000  0.4792380000000 1.0
C      1  0.4865020000000  0.4339230000000  0.4095160000000 1.0
C      1  0.4009890000000  0.5134240000000  0.4970690000000 1.0
C      1  0.5683070000000  0.5749750000000  0.5232090000000 1.0
C      1  0.5325070000000  0.5063470000000  0.5900510000000 1.0
C      1  0.5605160000000  0.4420840000000  0.5276890000000 1.0
C      1  0.4433000000000  0.4930700000000  0.4358720000000 1.0
C      1  0.4079580000000  0.5024350000000  0.5235410000000 1.0
C      1  0.4636380000000  0.4928400000000  0.5445310000000 1.0
C      1  0.5423260000000  0.4406560000000  0.5507440000000 1.0
C      1  0.5218650000000  0.5926730000000  0.4423910000000 1.0
END
