TITL C-612602-9376-283 264842.713047288 125000 -991.521605405685 0 0 161 (C1) n - 1
REM
REM in /home/nfs/bkarasulu/CARBON/AIRSS/Generating-Clusters/TERSOFF/Only-C1/FIRE-HFTN
REM
REM
REM
REM
REM
REM ./C.cell (11c1c37f851c82e70ff6c80c92926a4b)
REM AIRSS Version 0.9.1 bugfix July 2018 build 013d7b7c2542+ Fri, 06 Jul 2018 19:26:36 +0100
REM compiler GCC version 9.2.1 20190827 (Red Hat 9.2.1-1)
REM options -cpp -mtune=generic -march=x86-64 -g -O0 -fpre-include=/usr/include/finclude/math-vector-fortran.h
REM seed 337685735 -536180492 1834008391 164082724 1732266714 -509518474 2020529515 -755640551 727562721 167142788 1293089922 -1941528230 267458794 -221681602 727116137 175332287 -1826711584 -1590953744 -1444235854 1302212153 -978243089 1015374489 1358633529 -1143492233 -933408016 436487104 512562992 1050916210 -885173712 -1111106372 1900619469 -1266902324 -1716001790
REM
CELL 1.54180   50.00000   50.00000   50.00000   90.00000   90.00000   90.00000
LATT -1
SFAC C  
C      1  0.3961370000000  0.5375550000000  0.4730560000000 1.0
C      1  0.5964770000000  0.5778300000000  0.5707150000000 1.0
C      1  0.5296510000000  0.4241620000000  0.5796650000000 1.0
C      1  0.5998780000000  0.5656990000000  0.5232830000000 1.0
C      1  0.4613800000000  0.4595250000000  0.5398970000000 1.0
C      1  0.4200040000000  0.4286260000000  0.3997620000000 1.0
C      1  0.6073890000000  0.4079840000000  0.5807290000000 1.0
C      1  0.5253300000000  0.5271040000000  0.4890410000000 1.0
C      1  0.3995980000000  0.4716820000000  0.5414780000000 1.0
C      1  0.4794040000000  0.4570550000000  0.4425340000000 1.0
C      1  0.4907740000000  0.4468580000000  0.3763280000000 1.0
C      1  0.4983880000000  0.5639240000000  0.4969940000000 1.0
C      1  0.5088100000000  0.5447940000000  0.4425240000000 1.0
C      1  0.4013800000000  0.4637410000000  0.4512170000000 1.0
C      1  0.6358560000000  0.5358200000000  0.4415200000000 1.0
C      1  0.4459900000000  0.5372410000000  0.5232250000000 1.0
C      1  0.3777770000000  0.4871680000000  0.4959170000000 1.0
C      1  0.5117480000000  0.6038280000000  0.4534860000000 1.0
C      1  0.4415660000000  0.4898660000000  0.4342640000000 1.0
C      1  0.5397530000000  0.4586310000000  0.5034530000000 1.0
C      1  0.4311860000000  0.5122980000000  0.4208590000000 1.0
C      1  0.4899100000000  0.4863330000000  0.6125960000000 1.0
C      1  0.5421340000000  0.5483290000000  0.4818450000000 1.0
C      1  0.5898690000000  0.4489240000000  0.4937000000000 1.0
C      1  0.4315270000000  0.5695670000000  0.4950990000000 1.0
C      1  0.5048040000000  0.5178680000000  0.5290250000000 1.0
C      1  0.4996640000000  0.6051800000000  0.4274720000000 1.0
C      1  0.5641410000000  0.3910870000000  0.5997290000000 1.0
C      1  0.5980300000000  0.4416550000000  0.5410960000000 1.0
C      1  0.4725800000000  0.5149060000000  0.4884920000000 1.0
C      1  0.4356710000000  0.3909320000000  0.4892360000000 1.0
C      1  0.5251680000000  0.4975280000000  0.5276630000000 1.0
C      1  0.5259250000000  0.4832620000000  0.5027350000000 1.0
C      1  0.4907850000000  0.5128800000000  0.6173490000000 1.0
C      1  0.5316050000000  0.4733780000000  0.5685620000000 1.0
C      1  0.4802590000000  0.3958500000000  0.5233010000000 1.0
C      1  0.6282410000000  0.4779780000000  0.4969490000000 1.0
C      1  0.4425710000000  0.3936100000000  0.4607810000000 1.0
C      1  0.5030230000000  0.4729450000000  0.5675650000000 1.0
C      1  0.4229030000000  0.4320600000000  0.5184970000000 1.0
C      1  0.4251740000000  0.4782500000000  0.4546160000000 1.0
C      1  0.5477300000000  0.4816860000000  0.4451950000000 1.0
C      1  0.4216930000000  0.5070780000000  0.5819020000000 1.0
C      1  0.5219650000000  0.5794980000000  0.6040550000000 1.0
C      1  0.5899680000000  0.5615950000000  0.5497980000000 1.0
C      1  0.6018080000000  0.5496710000000  0.4748210000000 1.0
C      1  0.5873540000000  0.4669790000000  0.5465760000000 1.0
C      1  0.4915640000000  0.6237800000000  0.3828880000000 1.0
C      1  0.4021650000000  0.4523090000000  0.5207050000000 1.0
C      1  0.5266420000000  0.5567720000000  0.5484950000000 1.0
C      1  0.4765940000000  0.5802400000000  0.4841330000000 1.0
C      1  0.5434490000000  0.4887190000000  0.5480070000000 1.0
C      1  0.3871150000000  0.5089840000000  0.5124690000000 1.0
C      1  0.5038110000000  0.5361060000000  0.5059380000000 1.0
C      1  0.5638590000000  0.4598650000000  0.4889450000000 1.0
C      1  0.6027770000000  0.5192100000000  0.5168720000000 1.0
C      1  0.5833660000000  0.5151080000000  0.5381300000000 1.0
C      1  0.5410070000000  0.4025350000000  0.5930050000000 1.0
C      1  0.4757700000000  0.5804210000000  0.3926780000000 1.0
C      1  0.3928680000000  0.4463530000000  0.4719960000000 1.0
C      1  0.5260700000000  0.4983610000000  0.4516410000000 1.0
C      1  0.5736400000000  0.5379320000000  0.5527430000000 1.0
C      1  0.4463280000000  0.4336590000000  0.3916520000000 1.0
C      1  0.5626270000000  0.4809500000000  0.4702240000000 1.0
C      1  0.5072690000000  0.4228870000000  0.5621920000000 1.0
C      1  0.6225190000000  0.5000980000000  0.5110550000000 1.0
C      1  0.4898790000000  0.5027490000000  0.4212490000000 1.0
C      1  0.4787500000000  0.6010140000000  0.3750970000000 1.0
C      1  0.6028260000000  0.5030750000000  0.4571430000000 1.0
C      1  0.6142560000000  0.5294710000000  0.4570730000000 1.0
C      1  0.4854530000000  0.5149190000000  0.5487050000000 1.0
C      1  0.4725850000000  0.6251880000000  0.5187000000000 1.0
C      1  0.3870820000000  0.4598110000000  0.4965880000000 1.0
C      1  0.4688440000000  0.4023780000000  0.4555460000000 1.0
C      1  0.5310340000000  0.5585100000000  0.4563000000000 1.0
C      1  0.5383260000000  0.4116270000000  0.5086560000000 1.0
C      1  0.5237260000000  0.5008470000000  0.4802630000000 1.0
C      1  0.6094230000000  0.4262340000000  0.5614660000000 1.0
C      1  0.4527350000000  0.5143900000000  0.5080570000000 1.0
C      1  0.4327760000000  0.4958100000000  0.5018460000000 1.0
C      1  0.4838680000000  0.5605160000000  0.4391980000000 1.0
C      1  0.5095970000000  0.4388370000000  0.5371790000000 1.0
C      1  0.4511020000000  0.4670570000000  0.5663360000000 1.0
C      1  0.4185600000000  0.4125230000000  0.4980360000000 1.0
C      1  0.4373840000000  0.5782080000000  0.5697910000000 1.0
C      1  0.4540450000000  0.6047980000000  0.5262590000000 1.0
C      1  0.4913170000000  0.4614670000000  0.5420580000000 1.0
C      1  0.4954060000000  0.5647950000000  0.5474410000000 1.0
C      1  0.5903660000000  0.3935960000000  0.5953830000000 1.0
C      1  0.5955730000000  0.4309210000000  0.5147820000000 1.0
C      1  0.4860010000000  0.5386240000000  0.6059760000000 1.0
C      1  0.5870790000000  0.4556460000000  0.4372380000000 1.0
C      1  0.4893400000000  0.5864130000000  0.5645530000000 1.0
C      1  0.5014240000000  0.6258390000000  0.4082010000000 1.0
C      1  0.4199670000000  0.5349080000000  0.4299240000000 1.0
C      1  0.5788230000000  0.5033320000000  0.4729200000000 1.0
C      1  0.4456680000000  0.4946890000000  0.5725200000000 1.0
C      1  0.4644710000000  0.5660190000000  0.4601750000000 1.0
C      1  0.5866840000000  0.5721700000000  0.4640400000000 1.0
C      1  0.4410180000000  0.5975710000000  0.5508770000000 1.0
C      1  0.3988700000000  0.5327910000000  0.5012580000000 1.0
C      1  0.4832590000000  0.6081700000000  0.5777760000000 1.0
C      1  0.4824940000000  0.4355590000000  0.4231580000000 1.0
C      1  0.5366320000000  0.6026880000000  0.5372910000000 1.0
C      1  0.4982730000000  0.3892850000000  0.5033760000000 1.0
C      1  0.4654980000000  0.4131430000000  0.5418190000000 1.0
C      1  0.5781510000000  0.4289840000000  0.4454110000000 1.0
C      1  0.4653850000000  0.5384870000000  0.5859170000000 1.0
C      1  0.4568220000000  0.5811320000000  0.5079980000000 1.0
C      1  0.5656520000000  0.5885320000000  0.4568660000000 1.0
C      1  0.5042980000000  0.5599040000000  0.6094600000000 1.0
C      1  0.4780760000000  0.4208040000000  0.4754830000000 1.0
C      1  0.5441880000000  0.5682720000000  0.5037940000000 1.0
C      1  0.4403060000000  0.5529010000000  0.5827900000000 1.0
C      1  0.5450380000000  0.5742740000000  0.5327440000000 1.0
C      1  0.4159560000000  0.5470740000000  0.4547930000000 1.0
C      1  0.4919020000000  0.6070140000000  0.4761780000000 1.0
C      1  0.5648680000000  0.4704520000000  0.4258290000000 1.0
C      1  0.5108160000000  0.5164980000000  0.4352580000000 1.0
C      1  0.4713850000000  0.4865000000000  0.4385370000000 1.0
C      1  0.4208280000000  0.5483070000000  0.5121850000000 1.0
C      1  0.5366100000000  0.5870480000000  0.4536430000000 1.0
C      1  0.4855200000000  0.5809150000000  0.4192500000000 1.0
C      1  0.5135910000000  0.4001000000000  0.4400410000000 1.0
C      1  0.4489050000000  0.4346210000000  0.5307290000000 1.0
C      1  0.4762660000000  0.4479540000000  0.4698300000000 1.0
C      1  0.5376300000000  0.6099370000000  0.5645970000000 1.0
C      1  0.5459250000000  0.5394600000000  0.5611200000000 1.0
C      1  0.5338270000000  0.5983220000000  0.5887730000000 1.0
C      1  0.5188810000000  0.6081060000000  0.5143350000000 1.0
C      1  0.4780690000000  0.4226110000000  0.5681120000000 1.0
C      1  0.5302350000000  0.4367430000000  0.5180940000000 1.0
C      1  0.3795890000000  0.4541510000000  0.3752440000000 1.0
C      1  0.5716820000000  0.4900650000000  0.5443800000000 1.0
C      1  0.6119260000000  0.4620440000000  0.4801800000000 1.0
C      1  0.4871980000000  0.4087440000000  0.4340460000000 1.0
C      1  0.5420930000000  0.4499470000000  0.5805790000000 1.0
C      1  0.4576560000000  0.4609900000000  0.4851720000000 1.0
C      1  0.4194220000000  0.4084560000000  0.4503390000000 1.0
C      1  0.4753760000000  0.5021520000000  0.4653710000000 1.0
C      1  0.4055840000000  0.4210740000000  0.4727800000000 1.0
C      1  0.4677820000000  0.4481730000000  0.5833050000000 1.0
C      1  0.6026870000000  0.5451770000000  0.5037350000000 1.0
C      1  0.4887520000000  0.4669970000000  0.5922240000000 1.0
C      1  0.5582840000000  0.4126550000000  0.4549120000000 1.0
C      1  0.3933410000000  0.4981510000000  0.5382040000000 1.0
C      1  0.4669230000000  0.5580760000000  0.5284550000000 1.0
C      1  0.5230840000000  0.3970370000000  0.4895770000000 1.0
C      1  0.4363680000000  0.5627500000000  0.4668860000000 1.0
C      1  0.3985730000000  0.4397030000000  0.3857460000000 1.0
C      1  0.4734450000000  0.4386560000000  0.3965190000000 1.0
C      1  0.5199160000000  0.5828390000000  0.4985580000000 1.0
C      1  0.5322550000000  0.4013500000000  0.4616350000000 1.0
C      1  0.5992480000000  0.4042800000000  0.5098150000000 1.0
C      1  0.5081060000000  0.4565270000000  0.3594370000000 1.0
C      1  0.4156530000000  0.4142840000000  0.4234430000000 1.0
C      1  0.4664220000000  0.5148110000000  0.5688920000000 1.0
C      1  0.4185950000000  0.5341620000000  0.5851680000000 1.0
C      1  0.4357690000000  0.4774570000000  0.4812160000000 1.0
C      1  0.6063640000000  0.4727810000000  0.4532790000000 1.0
C      1  0.4959440000000  0.6212620000000  0.5025030000000 1.0
END
