TITL C-612600-6631-451 6388.03262852181 125000 -930.091029124505 0 0 155 (C1) n - 1
REM
REM in /home/nfs/bkarasulu/CARBON/AIRSS/Generating-Clusters/TERSOFF/Only-C1/FIRE-HFTN
REM
REM
REM
REM
REM
REM ./C.cell (11c1c37f851c82e70ff6c80c92926a4b)
REM AIRSS Version 0.9.1 bugfix July 2018 build 013d7b7c2542+ Fri, 06 Jul 2018 19:26:36 +0100
REM compiler GCC version 9.2.1 20190827 (Red Hat 9.2.1-1)
REM options -cpp -mtune=generic -march=x86-64 -g -O0 -fpre-include=/usr/include/finclude/math-vector-fortran.h
REM seed -970608858 1998652564 -2019690219 -485141822 -1751614562 -1054342455 651779843 1818848993 289493382 -463717249 1144250969 276314323 592850397 -167947832 1544460530 1738068075 1333076611 21767430 -1946174894 -1685597094 -602632533 -634943848 810146314 2139819654 1406656153 -443605849 -1564536725 -492002476 1395302493 -1252032167 639792797 133516196 267457203
REM
CELL 1.54180   50.00000   50.00000   50.00000   90.00000   90.00000   90.00000
LATT -1
SFAC C  
C      1  0.5610720000000  0.4336010000000  0.4286030000000 1.0
C      1  0.5173450000000  0.4881060000000  0.4533900000000 1.0
C      1  0.5371380000000  0.6300130000000  0.4757390000000 1.0
C      1  0.4376900000000  0.5245330000000  0.5707540000000 1.0
C      1  0.4632430000000  0.3974300000000  0.5265060000000 1.0
C      1  0.4800380000000  0.5002960000000  0.6138610000000 1.0
C      1  0.4108310000000  0.4814420000000  0.5896230000000 1.0
C      1  0.4057580000000  0.4893220000000  0.5380540000000 1.0
C      1  0.4931630000000  0.5227130000000  0.4266360000000 1.0
C      1  0.4965200000000  0.5644470000000  0.5383020000000 1.0
C      1  0.5447420000000  0.5137950000000  0.3946400000000 1.0
C      1  0.4322790000000  0.4394100000000  0.5397900000000 1.0
C      1  0.4231980000000  0.5462770000000  0.5596150000000 1.0
C      1  0.4023230000000  0.4601940000000  0.4282720000000 1.0
C      1  0.5969550000000  0.5233890000000  0.5743020000000 1.0
C      1  0.5430290000000  0.5831930000000  0.5441660000000 1.0
C      1  0.5669040000000  0.5325110000000  0.5065690000000 1.0
C      1  0.5254370000000  0.4275720000000  0.5864180000000 1.0
C      1  0.4161290000000  0.5504100000000  0.4488990000000 1.0
C      1  0.5041240000000  0.4769380000000  0.5489020000000 1.0
C      1  0.5617250000000  0.5890430000000  0.5218550000000 1.0
C      1  0.4894340000000  0.4510440000000  0.4554950000000 1.0
C      1  0.5404700000000  0.5363890000000  0.5476770000000 1.0
C      1  0.3588560000000  0.5488830000000  0.5124290000000 1.0
C      1  0.4571950000000  0.4534430000000  0.5341740000000 1.0
C      1  0.6070030000000  0.4570120000000  0.5169850000000 1.0
C      1  0.4160570000000  0.5324140000000  0.4256700000000 1.0
C      1  0.5473530000000  0.4649850000000  0.5007720000000 1.0
C      1  0.4470540000000  0.6134390000000  0.4701180000000 1.0
C      1  0.4000850000000  0.5426590000000  0.5443800000000 1.0
C      1  0.4958680000000  0.5002420000000  0.5357750000000 1.0
C      1  0.4314290000000  0.5718850000000  0.5651780000000 1.0
C      1  0.5618180000000  0.5601640000000  0.3987770000000 1.0
C      1  0.5879530000000  0.4543700000000  0.5391320000000 1.0
C      1  0.4316140000000  0.4888480000000  0.4935000000000 1.0
C      1  0.5865030000000  0.5559350000000  0.5434300000000 1.0
C      1  0.4757570000000  0.5698430000000  0.4588540000000 1.0
C      1  0.5364990000000  0.3964340000000  0.5369150000000 1.0
C      1  0.5609550000000  0.4824170000000  0.4811120000000 1.0
C      1  0.5392480000000  0.5112560000000  0.5618820000000 1.0
C      1  0.5694230000000  0.4798320000000  0.4379470000000 1.0
C      1  0.3964580000000  0.5119740000000  0.4224800000000 1.0
C      1  0.5516850000000  0.5888810000000  0.5718430000000 1.0
C      1  0.5563860000000  0.5887550000000  0.4931410000000 1.0
C      1  0.5023620000000  0.4021370000000  0.4673950000000 1.0
C      1  0.5719140000000  0.5714700000000  0.5835810000000 1.0
C      1  0.4644210000000  0.4040780000000  0.5542610000000 1.0
C      1  0.4924400000000  0.6098550000000  0.5555040000000 1.0
C      1  0.5058590000000  0.5950870000000  0.4884060000000 1.0
C      1  0.5427570000000  0.4849750000000  0.5210400000000 1.0
C      1  0.5206460000000  0.4335610000000  0.6126960000000 1.0
C      1  0.4779440000000  0.5178980000000  0.5470290000000 1.0
C      1  0.5896280000000  0.5129030000000  0.5035110000000 1.0
C      1  0.4794390000000  0.4155300000000  0.4807560000000 1.0
C      1  0.4997990000000  0.5730160000000  0.4721750000000 1.0
C      1  0.5497930000000  0.5374920000000  0.4091490000000 1.0
C      1  0.4837600000000  0.6009510000000  0.5064910000000 1.0
C      1  0.4179690000000  0.4398180000000  0.4360940000000 1.0
C      1  0.5400900000000  0.4850470000000  0.4341400000000 1.0
C      1  0.4581400000000  0.4792300000000  0.4005630000000 1.0
C      1  0.5139070000000  0.3856120000000  0.5269300000000 1.0
C      1  0.5091300000000  0.4251320000000  0.4219950000000 1.0
C      1  0.5891890000000  0.5512570000000  0.5716230000000 1.0
C      1  0.4425030000000  0.5256160000000  0.4144190000000 1.0
C      1  0.4447710000000  0.5024700000000  0.3983360000000 1.0
C      1  0.4397470000000  0.4379350000000  0.4957810000000 1.0
C      1  0.5307840000000  0.5056230000000  0.5036660000000 1.0
C      1  0.5370760000000  0.4277760000000  0.4177930000000 1.0
C      1  0.5251660000000  0.4479660000000  0.4965600000000 1.0
C      1  0.5330200000000  0.6047350000000  0.4857440000000 1.0
C      1  0.4154750000000  0.5790110000000  0.4472620000000 1.0
C      1  0.4615150000000  0.5465350000000  0.4536930000000 1.0
C      1  0.5979510000000  0.5025450000000  0.5537660000000 1.0
C      1  0.5978580000000  0.5262650000000  0.4477280000000 1.0
C      1  0.4925210000000  0.4488660000000  0.4267020000000 1.0
C      1  0.5788530000000  0.5437080000000  0.4616060000000 1.0
C      1  0.4069560000000  0.4309340000000  0.5385310000000 1.0
C      1  0.4517870000000  0.5010610000000  0.6106080000000 1.0
C      1  0.4545680000000  0.5052730000000  0.5566240000000 1.0
C      1  0.4374190000000  0.4784390000000  0.5998840000000 1.0
C      1  0.5875540000000  0.4431360000000  0.4709450000000 1.0
C      1  0.5750810000000  0.4281850000000  0.5360820000000 1.0
C      1  0.5897300000000  0.5011510000000  0.4381100000000 1.0
C      1  0.5161890000000  0.5501070000000  0.4709070000000 1.0
C      1  0.3935610000000  0.4851430000000  0.4233290000000 1.0
C      1  0.5650960000000  0.5399690000000  0.5333100000000 1.0
C      1  0.5012180000000  0.4030050000000  0.4384470000000 1.0
C      1  0.5921910000000  0.6298470000000  0.3771220000000 1.0
C      1  0.4864820000000  0.4711480000000  0.4054460000000 1.0
C      1  0.5551670000000  0.5270840000000  0.4585230000000 1.0
C      1  0.4564770000000  0.4751830000000  0.5558030000000 1.0
C      1  0.5878670000000  0.5806330000000  0.5300190000000 1.0
C      1  0.5132390000000  0.5367020000000  0.4440110000000 1.0
C      1  0.4416060000000  0.5247460000000  0.5989740000000 1.0
C      1  0.5756530000000  0.4519220000000  0.4449920000000 1.0
C      1  0.5545810000000  0.4142500000000  0.5501680000000 1.0
C      1  0.5826760000000  0.6066130000000  0.3841430000000 1.0
C      1  0.3750910000000  0.4515720000000  0.5066940000000 1.0
C      1  0.5728020000000  0.5702990000000  0.4747480000000 1.0
C      1  0.4533770000000  0.4631470000000  0.5823560000000 1.0
C      1  0.5286070000000  0.3972950000000  0.4766750000000 1.0
C      1  0.4288710000000  0.6018020000000  0.4533470000000 1.0
C      1  0.5090240000000  0.4495820000000  0.5452860000000 1.0
C      1  0.3842760000000  0.4338910000000  0.5246390000000 1.0
C      1  0.5767140000000  0.4192360000000  0.4839170000000 1.0
C      1  0.5545310000000  0.4041500000000  0.4750930000000 1.0
C      1  0.3787770000000  0.5450860000000  0.5288050000000 1.0
C      1  0.5137030000000  0.4456140000000  0.4707490000000 1.0
C      1  0.4449630000000  0.4125040000000  0.5082940000000 1.0
C      1  0.5299590000000  0.4944420000000  0.4087530000000 1.0
C      1  0.4334900000000  0.5091430000000  0.4729390000000 1.0
C      1  0.6005120000000  0.4627980000000  0.4896540000000 1.0
C      1  0.4367050000000  0.4239820000000  0.4470140000000 1.0
C      1  0.4489270000000  0.4653660000000  0.4866940000000 1.0
C      1  0.4805970000000  0.4372680000000  0.5104080000000 1.0
C      1  0.5879530000000  0.4885380000000  0.4878670000000 1.0
C      1  0.5793760000000  0.4798050000000  0.5520070000000 1.0
C      1  0.3698900000000  0.4913000000000  0.4791590000000 1.0
C      1  0.4878510000000  0.3844310000000  0.5194370000000 1.0
C      1  0.5711500000000  0.4134640000000  0.5957110000000 1.0
C      1  0.4592670000000  0.5432420000000  0.5136060000000 1.0
C      1  0.5461830000000  0.5069620000000  0.4783100000000 1.0
C      1  0.5011870000000  0.4981060000000  0.4112520000000 1.0
C      1  0.5726640000000  0.5831220000000  0.3912450000000 1.0
C      1  0.4774500000000  0.5433550000000  0.5348050000000 1.0
C      1  0.5370430000000  0.5470400000000  0.4922930000000 1.0
C      1  0.4403670000000  0.5542510000000  0.4963600000000 1.0
C      1  0.4363320000000  0.4955360000000  0.4488720000000 1.0
C      1  0.6061220000000  0.5108750000000  0.5272690000000 1.0
C      1  0.5045610000000  0.5037610000000  0.6032680000000 1.0
C      1  0.4973420000000  0.4598740000000  0.3788990000000 1.0
C      1  0.5824410000000  0.4158180000000  0.5114030000000 1.0
C      1  0.5403740000000  0.5349980000000  0.4357180000000 1.0
C      1  0.4564140000000  0.4150950000000  0.4630950000000 1.0
C      1  0.4785920000000  0.4212160000000  0.5716680000000 1.0
C      1  0.4737980000000  0.4708980000000  0.4695300000000 1.0
C      1  0.3839670000000  0.4766130000000  0.4973030000000 1.0
C      1  0.5069480000000  0.4420760000000  0.5179880000000 1.0
C      1  0.4362440000000  0.5398460000000  0.4700080000000 1.0
C      1  0.4565870000000  0.6026040000000  0.4949750000000 1.0
C      1  0.5094400000000  0.6147300000000  0.5758200000000 1.0
C      1  0.4884350000000  0.5922510000000  0.5337450000000 1.0
C      1  0.5337280000000  0.6066270000000  0.5845870000000 1.0
C      1  0.5051240000000  0.4311520000000  0.5668270000000 1.0
C      1  0.5246550000000  0.5079860000000  0.5859060000000 1.0
C      1  0.4661950000000  0.5322370000000  0.4295100000000 1.0
C      1  0.5522210000000  0.4891260000000  0.5474500000000 1.0
C      1  0.4927510000000  0.4929530000000  0.4665840000000 1.0
C      1  0.4377650000000  0.5818420000000  0.5016480000000 1.0
C      1  0.5244130000000  0.5602090000000  0.5439520000000 1.0
C      1  0.4015350000000  0.4853430000000  0.5644100000000 1.0
C      1  0.5043370000000  0.5084900000000  0.5104580000000 1.0
C      1  0.4079620000000  0.4864380000000  0.5098820000000 1.0
C      1  0.5509560000000  0.4184230000000  0.5779730000000 1.0
C      1  0.4631860000000  0.4378210000000  0.5881920000000 1.0
END
