TITL C-612601-4209-28 11.085510383861 125000 -317.070181628098 0 0 54 (C1) n - 1
REM
REM in /home/nfs/bkarasulu/CARBON/AIRSS/Generating-Clusters/TERSOFF/Only-C1/FIRE-HFTN
REM
REM
REM
REM
REM
REM ./C.cell (11c1c37f851c82e70ff6c80c92926a4b)
REM AIRSS Version 0.9.1 bugfix July 2018 build 013d7b7c2542+ Fri, 06 Jul 2018 19:26:36 +0100
REM compiler GCC version 9.2.1 20190827 (Red Hat 9.2.1-1)
REM options -cpp -mtune=generic -march=x86-64 -g -O0 -fpre-include=/usr/include/finclude/math-vector-fortran.h
REM seed 370489745 -1841140960 -1394067750 -2034760384 -1543211859 -426588455 -604415473 -1180359569 1511491398 1238732535 -1828447818 -1077099286 -1365045620 -423860660 -604167974 -1225255375 -1362374213 1448001147 -2021557046 -602894528 -1034411559 1864679057 -312320293 -567980091 1160984301 1629824273 -313468590 731351303 1844039364 236753249 -96336853 -32867707 96600204
REM
CELL 1.54180   50.00000   50.00000   50.00000   90.00000   90.00000   90.00000
LATT -1
SFAC C  
C      1  0.4948630000000  0.4835810000000  0.4797150000000 1.0
C      1  0.4614240000000  0.5911920000000  0.3348760000000 1.0
C      1  0.4692320000000  0.3852860000000  0.3714770000000 1.0
C      1  0.5457080000000  0.5171020000000  0.4857530000000 1.0
C      1  0.4330980000000  0.4455780000000  0.5850390000000 1.0
C      1  0.4308990000000  0.5159640000000  0.6045900000000 1.0
C      1  0.5963530000000  0.4449230000000  0.5088440000000 1.0
C      1  0.4957430000000  0.5732260000000  0.4811750000000 1.0
C      1  0.5094170000000  0.5424220000000  0.5554810000000 1.0
C      1  0.5004930000000  0.4736640000000  0.5515960000000 1.0
C      1  0.4815520000000  0.3977070000000  0.3908050000000 1.0
C      1  0.4241430000000  0.4653510000000  0.6027220000000 1.0
C      1  0.4455490000000  0.4538960000000  0.5613750000000 1.0
C      1  0.4297390000000  0.4185160000000  0.5907840000000 1.0
C      1  0.4359860000000  0.4722450000000  0.5182670000000 1.0
C      1  0.4742980000000  0.4663830000000  0.4742790000000 1.0
C      1  0.4679930000000  0.5843270000000  0.3591530000000 1.0
C      1  0.4771810000000  0.4847330000000  0.5406190000000 1.0
C      1  0.5041960000000  0.5291650000000  0.4651880000000 1.0
C      1  0.5270410000000  0.4726760000000  0.5532110000000 1.0
C      1  0.5424410000000  0.5633270000000  0.5004630000000 1.0
C      1  0.6010610000000  0.5301440000000  0.5303940000000 1.0
C      1  0.5798480000000  0.5358570000000  0.5155880000000 1.0
C      1  0.4457510000000  0.5326270000000  0.5901660000000 1.0
C      1  0.4897450000000  0.5115600000000  0.4830580000000 1.0
C      1  0.4622680000000  0.5467890000000  0.5036830000000 1.0
C      1  0.5563190000000  0.5387430000000  0.5009540000000 1.0
C      1  0.4751990000000  0.5216140000000  0.5058430000000 1.0
C      1  0.4746720000000  0.5773480000000  0.3838370000000 1.0
C      1  0.5581240000000  0.4756690000000  0.5130270000000 1.0
C      1  0.5208380000000  0.5774700000000  0.4932570000000 1.0
C      1  0.4266180000000  0.3931920000000  0.5960930000000 1.0
C      1  0.4880960000000  0.5633480000000  0.4331430000000 1.0
C      1  0.5186230000000  0.4358540000000  0.4498740000000 1.0
C      1  0.5499620000000  0.4753710000000  0.5397980000000 1.0
C      1  0.4639930000000  0.5375670000000  0.5715300000000 1.0
C      1  0.4813510000000  0.5703690000000  0.4085130000000 1.0
C      1  0.5420980000000  0.4904330000000  0.4945130000000 1.0
C      1  0.4785420000000  0.5119780000000  0.5324890000000 1.0
C      1  0.4839620000000  0.5312440000000  0.5530070000000 1.0
C      1  0.5560270000000  0.4407800000000  0.4812670000000 1.0
C      1  0.4722470000000  0.5708890000000  0.4966310000000 1.0
C      1  0.4940780000000  0.4103370000000  0.4104570000000 1.0
C      1  0.5065610000000  0.4229830000000  0.4301150000000 1.0
C      1  0.4528670000000  0.4700780000000  0.5397060000000 1.0
C      1  0.5218550000000  0.4744990000000  0.4810720000000 1.0
C      1  0.5325720000000  0.5518980000000  0.5627810000000 1.0
C      1  0.5319460000000  0.5235630000000  0.4615250000000 1.0
C      1  0.5442210000000  0.5238670000000  0.4371900000000 1.0
C      1  0.5715050000000  0.4531880000000  0.5014850000000 1.0
C      1  0.6214160000000  0.5232370000000  0.5451430000000 1.0
C      1  0.4231030000000  0.4910270000000  0.6095390000000 1.0
C      1  0.4957430000000  0.5555160000000  0.4586380000000 1.0
C      1  0.5314420000000  0.4496950000000  0.4702720000000 1.0
END
