TITL C-612601-4209-359 8631.13909622267 125000 -770.491734362724 0 0 125 (C1) n - 1
REM
REM in /home/nfs/bkarasulu/CARBON/AIRSS/Generating-Clusters/TERSOFF/Only-C1/FIRE-HFTN
REM
REM
REM
REM
REM
REM ./C.cell (11c1c37f851c82e70ff6c80c92926a4b)
REM AIRSS Version 0.9.1 bugfix July 2018 build 013d7b7c2542+ Fri, 06 Jul 2018 19:26:36 +0100
REM compiler GCC version 9.2.1 20190827 (Red Hat 9.2.1-1)
REM options -cpp -mtune=generic -march=x86-64 -g -O0 -fpre-include=/usr/include/finclude/math-vector-fortran.h
REM seed 1863779765 -123291744 1921912629 2091004456 530235207 -527880279 1424365189 -1647481082 -91505009 227350814 1366772282 -279031371 -1388162278 -496068538 -2025452239 -375165857 -162088853 274552757 -1103614364 1453488476 1068655320 1828550008 -1559643341 1023296473 1475867206 1106539596 -171255044 1726243591 -1500852867 820128464 1120449615 -1369581034 687659297
REM
CELL 1.54180   50.00000   50.00000   50.00000   90.00000   90.00000   90.00000
LATT -1
SFAC C  
C      1  0.4461910000000  0.5430100000000  0.5208340000000 1.0
C      1  0.5294430000000  0.4456100000000  0.4892630000000 1.0
C      1  0.5765620000000  0.4469970000000  0.4745800000000 1.0
C      1  0.5339370000000  0.5266200000000  0.5595470000000 1.0
C      1  0.5377500000000  0.4661670000000  0.3911270000000 1.0
C      1  0.5683960000000  0.5591710000000  0.5471070000000 1.0
C      1  0.4330750000000  0.4351840000000  0.4421150000000 1.0
C      1  0.4535030000000  0.5034610000000  0.4417830000000 1.0
C      1  0.5139870000000  0.5899430000000  0.5719250000000 1.0
C      1  0.5809710000000  0.5141880000000  0.5021420000000 1.0
C      1  0.4517590000000  0.5342560000000  0.4446770000000 1.0
C      1  0.5070570000000  0.4197910000000  0.5572720000000 1.0
C      1  0.5479750000000  0.5149220000000  0.3978490000000 1.0
C      1  0.4535030000000  0.6136200000000  0.4752070000000 1.0
C      1  0.4874310000000  0.4989370000000  0.3986310000000 1.0
C      1  0.4895700000000  0.5390930000000  0.4689430000000 1.0
C      1  0.4899480000000  0.4844050000000  0.4686820000000 1.0
C      1  0.4112100000000  0.5126750000000  0.4297400000000 1.0
C      1  0.4909140000000  0.4522630000000  0.4248250000000 1.0
C      1  0.5082370000000  0.3983930000000  0.5130240000000 1.0
C      1  0.5851180000000  0.5296640000000  0.4768300000000 1.0
C      1  0.5744480000000  0.5761990000000  0.5274860000000 1.0
C      1  0.4656130000000  0.5856600000000  0.5141260000000 1.0
C      1  0.5168220000000  0.5363530000000  0.4616440000000 1.0
C      1  0.5087380000000  0.4321780000000  0.5844460000000 1.0
C      1  0.5233360000000  0.5245140000000  0.4117830000000 1.0
C      1  0.4642480000000  0.4050710000000  0.4795200000000 1.0
C      1  0.4961680000000  0.5124360000000  0.5070160000000 1.0
C      1  0.5691920000000  0.4500250000000  0.4472660000000 1.0
C      1  0.3427100000000  0.4914920000000  0.5437110000000 1.0
C      1  0.5116950000000  0.5376290000000  0.5090440000000 1.0
C      1  0.4679610000000  0.5209660000000  0.6079780000000 1.0
C      1  0.3936820000000  0.4511310000000  0.5216840000000 1.0
C      1  0.4269570000000  0.4609960000000  0.4338900000000 1.0
C      1  0.5985150000000  0.4652010000000  0.4805290000000 1.0
C      1  0.4816230000000  0.4067800000000  0.5029790000000 1.0
C      1  0.5633570000000  0.5887560000000  0.5067600000000 1.0
C      1  0.5796640000000  0.4804890000000  0.4098900000000 1.0
C      1  0.4704400000000  0.5956080000000  0.4869540000000 1.0
C      1  0.5137490000000  0.5295570000000  0.6097170000000 1.0
C      1  0.5355350000000  0.5745330000000  0.5770830000000 1.0
C      1  0.4883470000000  0.5399930000000  0.6015850000000 1.0
C      1  0.5230420000000  0.4410540000000  0.4604790000000 1.0
C      1  0.5533090000000  0.5055840000000  0.5547120000000 1.0
C      1  0.3928560000000  0.4928120000000  0.4975210000000 1.0
C      1  0.4961190000000  0.4433510000000  0.4518330000000 1.0
C      1  0.5854730000000  0.4710540000000  0.4355020000000 1.0
C      1  0.4687340000000  0.4778050000000  0.5248840000000 1.0
C      1  0.5574140000000  0.4407840000000  0.4944300000000 1.0
C      1  0.5235630000000  0.4092470000000  0.5360960000000 1.0
C      1  0.6014540000000  0.5115680000000  0.4605770000000 1.0
C      1  0.5908720000000  0.4509010000000  0.5259990000000 1.0
C      1  0.5439610000000  0.5850140000000  0.4871310000000 1.0
C      1  0.4416600000000  0.5707540000000  0.5180500000000 1.0
C      1  0.4940060000000  0.5861370000000  0.4732270000000 1.0
C      1  0.4646250000000  0.4957640000000  0.5988680000000 1.0
C      1  0.4818150000000  0.4275870000000  0.5950110000000 1.0
C      1  0.5234200000000  0.4539160000000  0.5946840000000 1.0
C      1  0.4961910000000  0.4877540000000  0.3742450000000 1.0
C      1  0.4759500000000  0.4799510000000  0.5532210000000 1.0
C      1  0.4541320000000  0.4499020000000  0.4787970000000 1.0
C      1  0.5750890000000  0.5007170000000  0.5712590000000 1.0
C      1  0.5033670000000  0.4887220000000  0.5516910000000 1.0
C      1  0.4301820000000  0.5239410000000  0.5614020000000 1.0
C      1  0.5088430000000  0.4948710000000  0.4866890000000 1.0
C      1  0.4641140000000  0.4214300000000  0.5746660000000 1.0
C      1  0.4779230000000  0.4201480000000  0.5495940000000 1.0
C      1  0.4322540000000  0.4602190000000  0.4933100000000 1.0
C      1  0.5601640000000  0.5377050000000  0.4368260000000 1.0
C      1  0.3697670000000  0.4893580000000  0.5413780000000 1.0
C      1  0.5460810000000  0.5525180000000  0.5630220000000 1.0
C      1  0.4478900000000  0.4248330000000  0.4650500000000 1.0
C      1  0.5371250000000  0.4464620000000  0.4116520000000 1.0
C      1  0.4841630000000  0.5537910000000  0.5758520000000 1.0
C      1  0.5289690000000  0.5775180000000  0.4419900000000 1.0
C      1  0.6025940000000  0.4707300000000  0.5083560000000 1.0
C      1  0.5508030000000  0.4174190000000  0.5349180000000 1.0
C      1  0.4798370000000  0.5489090000000  0.4277950000000 1.0
C      1  0.5227820000000  0.4756310000000  0.5332470000000 1.0
C      1  0.4835210000000  0.4538040000000  0.5158810000000 1.0
C      1  0.5080270000000  0.5653150000000  0.5149340000000 1.0
C      1  0.5127580000000  0.4571900000000  0.5122770000000 1.0
C      1  0.4182750000000  0.4843080000000  0.4881050000000 1.0
C      1  0.6006840000000  0.4834180000000  0.4571960000000 1.0
C      1  0.5247400000000  0.5047650000000  0.6108480000000 1.0
C      1  0.4527050000000  0.5325920000000  0.5468140000000 1.0
C      1  0.5171920000000  0.4707530000000  0.3723800000000 1.0
C      1  0.6025210000000  0.4988640000000  0.5135640000000 1.0
C      1  0.5685040000000  0.5315230000000  0.4105080000000 1.0
C      1  0.5475180000000  0.4900570000000  0.5315860000000 1.0
C      1  0.4169450000000  0.5820920000000  0.5194140000000 1.0
C      1  0.5695670000000  0.5498160000000  0.4608860000000 1.0
C      1  0.4787670000000  0.4928680000000  0.4441190000000 1.0
C      1  0.4287830000000  0.4897340000000  0.4340220000000 1.0
C      1  0.4952100000000  0.5258220000000  0.4077960000000 1.0
C      1  0.5161000000000  0.5822500000000  0.4926570000000 1.0
C      1  0.5561340000000  0.5002440000000  0.5064710000000 1.0
C      1  0.5560030000000  0.4876000000000  0.3958120000000 1.0
C      1  0.4614150000000  0.5362740000000  0.4734160000000 1.0
C      1  0.5059950000000  0.5172230000000  0.5560180000000 1.0
C      1  0.4534550000000  0.5257080000000  0.4994650000000 1.0
C      1  0.4879010000000  0.5777950000000  0.5315100000000 1.0
C      1  0.5269800000000  0.4785450000000  0.6050010000000 1.0
C      1  0.4692030000000  0.5033360000000  0.5104950000000 1.0
C      1  0.4801940000000  0.5323510000000  0.5569640000000 1.0
C      1  0.3822690000000  0.4770320000000  0.5191500000000 1.0
C      1  0.5315560000000  0.5320760000000  0.4381690000000 1.0
C      1  0.5513250000000  0.5738890000000  0.4619600000000 1.0
C      1  0.3875580000000  0.4991030000000  0.5607640000000 1.0
C      1  0.4148150000000  0.5008360000000  0.5660170000000 1.0
C      1  0.5305530000000  0.5329980000000  0.4863860000000 1.0
C      1  0.4585830000000  0.4807570000000  0.5756340000000 1.0
C      1  0.4177480000000  0.4437630000000  0.5115500000000 1.0
C      1  0.5361070000000  0.5045420000000  0.4877020000000 1.0
C      1  0.5956750000000  0.4956500000000  0.5864090000000 1.0
C      1  0.5674030000000  0.4351770000000  0.5205270000000 1.0
C      1  0.4307210000000  0.4780640000000  0.5712280000000 1.0
C      1  0.4864370000000  0.4800030000000  0.4201930000000 1.0
C      1  0.5429970000000  0.4432980000000  0.4393520000000 1.0
C      1  0.4799730000000  0.4578080000000  0.4711700000000 1.0
C      1  0.4743900000000  0.4274640000000  0.5224200000000 1.0
C      1  0.4234770000000  0.5373800000000  0.4353320000000 1.0
C      1  0.4910520000000  0.5777050000000  0.5609190000000 1.0
C      1  0.4987830000000  0.5742460000000  0.4448710000000 1.0
C      1  0.3796030000000  0.5141610000000  0.4869510000000 1.0
END
