TITL C-612600-6631-219 6.25588794351932e-05 125000 -701.35507275756 0 0 112 (C1) n - 1
REM
REM in /home/nfs/bkarasulu/CARBON/AIRSS/Generating-Clusters/TERSOFF/Only-C1/FIRE-HFTN
REM
REM
REM
REM
REM
REM ./C.cell (11c1c37f851c82e70ff6c80c92926a4b)
REM AIRSS Version 0.9.1 bugfix July 2018 build 013d7b7c2542+ Fri, 06 Jul 2018 19:26:36 +0100
REM compiler GCC version 9.2.1 20190827 (Red Hat 9.2.1-1)
REM options -cpp -mtune=generic -march=x86-64 -g -O0 -fpre-include=/usr/include/finclude/math-vector-fortran.h
REM seed 1420430907 2119199880 279115406 757048014 -75291618 -633942838 1577925064 2078780373 -196479316 32571590 943381110 -1892024315 339529003 669710876 -145534117 -210918499 -632006701 -813009162 1728499956 757961253 -1859288495 56960770 -565242940 -1376334715 -262984154 -1717171103 1582608185 -371462852 1977785470 942707859 1538000078 -1210783637 242707797
REM
CELL 1.54180   50.00000   50.00000   50.00000   90.00000   90.00000   90.00000
LATT -1
SFAC C  
C      1  0.4968250000000  0.4737760000000  0.5412140000000 1.0
C      1  0.5525550000000  0.4800680000000  0.4345550000000 1.0
C      1  0.5558210000000  0.4039490000000  0.4668450000000 1.0
C      1  0.5281560000000  0.4932700000000  0.4306730000000 1.0
C      1  0.4690570000000  0.5345210000000  0.5313810000000 1.0
C      1  0.5610840000000  0.4851360000000  0.5112120000000 1.0
C      1  0.4718030000000  0.5913800000000  0.5214420000000 1.0
C      1  0.5106880000000  0.5224690000000  0.5990500000000 1.0
C      1  0.5759270000000  0.5022090000000  0.4929420000000 1.0
C      1  0.4875930000000  0.5340350000000  0.5528010000000 1.0
C      1  0.4864730000000  0.4502890000000  0.5803700000000 1.0
C      1  0.4260970000000  0.5736970000000  0.5206250000000 1.0
C      1  0.5300480000000  0.5028740000000  0.5626030000000 1.0
C      1  0.5016600000000  0.5088030000000  0.3902020000000 1.0
C      1  0.4391170000000  0.4623710000000  0.4440500000000 1.0
C      1  0.4755540000000  0.5416950000000  0.5775970000000 1.0
C      1  0.5712360000000  0.4233490000000  0.4801200000000 1.0
C      1  0.4974390000000  0.6039000000000  0.4640850000000 1.0
C      1  0.5706880000000  0.4849510000000  0.5388730000000 1.0
C      1  0.4181940000000  0.4541730000000  0.5082830000000 1.0
C      1  0.5656510000000  0.4205220000000  0.5328100000000 1.0
C      1  0.6117840000000  0.5356960000000  0.4920160000000 1.0
C      1  0.5363450000000  0.4712290000000  0.5078100000000 1.0
C      1  0.4335180000000  0.5172330000000  0.5611480000000 1.0
C      1  0.4422850000000  0.5654020000000  0.4333980000000 1.0
C      1  0.5066170000000  0.5205720000000  0.4997150000000 1.0
C      1  0.5111890000000  0.4967110000000  0.5841850000000 1.0
C      1  0.5517410000000  0.4839770000000  0.5601120000000 1.0
C      1  0.5693370000000  0.5395430000000  0.5416840000000 1.0
C      1  0.5118010000000  0.4872580000000  0.4077520000000 1.0
C      1  0.4971900000000  0.5905270000000  0.5337370000000 1.0
C      1  0.4174130000000  0.4538760000000  0.4599240000000 1.0
C      1  0.6144890000000  0.4961600000000  0.5217760000000 1.0
C      1  0.3929410000000  0.4196420000000  0.4845080000000 1.0
C      1  0.4668660000000  0.4291830000000  0.4664400000000 1.0
C      1  0.4876120000000  0.4713100000000  0.4142540000000 1.0
C      1  0.4624190000000  0.4373570000000  0.5684220000000 1.0
C      1  0.4851980000000  0.5490660000000  0.4377990000000 1.0
C      1  0.6035060000000  0.5094870000000  0.4994000000000 1.0
C      1  0.4941500000000  0.4759190000000  0.5706600000000 1.0
C      1  0.4378190000000  0.4413520000000  0.5257730000000 1.0
C      1  0.4429280000000  0.4885160000000  0.4324220000000 1.0
C      1  0.5641230000000  0.5200930000000  0.4745020000000 1.0
C      1  0.5918510000000  0.5538890000000  0.5459740000000 1.0
C      1  0.4828620000000  0.4457550000000  0.4244070000000 1.0
C      1  0.5218100000000  0.6114210000000  0.4716500000000 1.0
C      1  0.4655290000000  0.4903670000000  0.4153460000000 1.0
C      1  0.3994600000000  0.5293180000000  0.5176690000000 1.0
C      1  0.4246930000000  0.4940330000000  0.5704960000000 1.0
C      1  0.4203250000000  0.5466570000000  0.5258420000000 1.0
C      1  0.4471520000000  0.5865300000000  0.5368450000000 1.0
C      1  0.5172430000000  0.5097770000000  0.4519040000000 1.0
C      1  0.5138730000000  0.5214630000000  0.5465790000000 1.0
C      1  0.5751530000000  0.4220950000000  0.5078570000000 1.0
C      1  0.4401910000000  0.4939360000000  0.4970220000000 1.0
C      1  0.4296740000000  0.5132580000000  0.4381890000000 1.0
C      1  0.5040190000000  0.5307920000000  0.3716790000000 1.0
C      1  0.5373620000000  0.3993450000000  0.4482070000000 1.0
C      1  0.5343870000000  0.4336030000000  0.5701270000000 1.0
C      1  0.5246510000000  0.5277770000000  0.5210070000000 1.0
C      1  0.5006440000000  0.4244300000000  0.4214610000000 1.0
C      1  0.4804320000000  0.4755050000000  0.5176500000000 1.0
C      1  0.4911510000000  0.4590310000000  0.4959370000000 1.0
C      1  0.5431720000000  0.6053250000000  0.4863480000000 1.0
C      1  0.4841920000000  0.5327100000000  0.6016160000000 1.0
C      1  0.4468530000000  0.5733250000000  0.4053380000000 1.0
C      1  0.5412220000000  0.5723850000000  0.5227760000000 1.0
C      1  0.5748650000000  0.5675350000000  0.4877500000000 1.0
C      1  0.4089490000000  0.4417300000000  0.4841570000000 1.0
C      1  0.4622000000000  0.5889020000000  0.4933010000000 1.0
C      1  0.4760260000000  0.5138660000000  0.4038570000000 1.0
C      1  0.4671430000000  0.5682630000000  0.4492420000000 1.0
C      1  0.4615110000000  0.4439750000000  0.4432270000000 1.0
C      1  0.5987700000000  0.4861590000000  0.5414530000000 1.0
C      1  0.4786150000000  0.5215410000000  0.5079630000000 1.0
C      1  0.5219460000000  0.5799210000000  0.5432310000000 1.0
C      1  0.4754600000000  0.5399570000000  0.4128550000000 1.0
C      1  0.4414740000000  0.5333330000000  0.5396050000000 1.0
C      1  0.4657350000000  0.4966400000000  0.5065320000000 1.0
C      1  0.4687770000000  0.5596690000000  0.3924700000000 1.0
C      1  0.5262580000000  0.5461080000000  0.5882070000000 1.0
C      1  0.5132030000000  0.5010100000000  0.4786400000000 1.0
C      1  0.5231970000000  0.3995760000000  0.5353030000000 1.0
C      1  0.5776590000000  0.4460820000000  0.4649310000000 1.0
C      1  0.4873140000000  0.5531560000000  0.3712790000000 1.0
C      1  0.5225300000000  0.4643230000000  0.5319410000000 1.0
C      1  0.5077780000000  0.5358440000000  0.4469970000000 1.0
C      1  0.4936440000000  0.4050900000000  0.5776650000000 1.0
C      1  0.4752140000000  0.5874560000000  0.4684050000000 1.0
C      1  0.4749720000000  0.4358350000000  0.4922090000000 1.0
C      1  0.5647170000000  0.5468600000000  0.4709460000000 1.0
C      1  0.4340660000000  0.5818430000000  0.4941930000000 1.0
C      1  0.5699690000000  0.4643920000000  0.4471670000000 1.0
C      1  0.4985870000000  0.3958050000000  0.5253050000000 1.0
C      1  0.4249870000000  0.4678260000000  0.5661620000000 1.0
C      1  0.4706220000000  0.4102310000000  0.5607290000000 1.0
C      1  0.4603940000000  0.4258230000000  0.5151250000000 1.0
C      1  0.4402700000000  0.4479780000000  0.5539830000000 1.0
C      1  0.6006870000000  0.5611060000000  0.4993580000000 1.0
C      1  0.5187810000000  0.4074710000000  0.4309910000000 1.0
C      1  0.5482420000000  0.4584330000000  0.5729630000000 1.0
C      1  0.5549060000000  0.5843430000000  0.5005530000000 1.0
C      1  0.6049760000000  0.5676410000000  0.5266310000000 1.0
C      1  0.4736060000000  0.4068500000000  0.5324220000000 1.0
C      1  0.4283860000000  0.5404500000000  0.4380130000000 1.0
C      1  0.5421010000000  0.4165160000000  0.5477980000000 1.0
C      1  0.3972930000000  0.5024970000000  0.5137060000000 1.0
C      1  0.5084090000000  0.4297740000000  0.5822160000000 1.0
C      1  0.5157900000000  0.4736750000000  0.4876200000000 1.0
C      1  0.5255380000000  0.5669480000000  0.5696720000000 1.0
C      1  0.5470460000000  0.5444460000000  0.5249560000000 1.0
C      1  0.4165470000000  0.4828510000000  0.5071750000000 1.0
END
