TITL C-612607-4507-708 100.762320172274 125000 -699.481384478865 0 0 116 (C1) n - 1
REM
REM in /home/nfs/bkarasulu/CARBON/AIRSS/Generating-Clusters/TERSOFF/Only-C1/FIRE-HFTN
REM
REM
REM
REM
REM
REM ./C.cell (11c1c37f851c82e70ff6c80c92926a4b)
REM AIRSS Version 0.9.1 bugfix July 2018 build 013d7b7c2542+ Fri, 06 Jul 2018 19:26:36 +0100
REM compiler GCC version 9.2.1 20190827 (Red Hat 9.2.1-1)
REM options -cpp -mtune=generic -march=x86-64 -g -O0 -fpre-include=/usr/include/finclude/math-vector-fortran.h
REM seed -1150462762 -1892970913 1166458033 -1477914486 -1563474669 676913079 404102904 -1642848915 1112194790 1667736367 -2057849981 -1943569636 1248596255 1132323898 -857204624 386560478 1588251186 -973026555 1808452594 -574656520 -1898357373 1328596992 -441423482 2079033472 1524286050 -578839439 1985070467 -1273838393 -1479648530 -1914966016 186520597 -404916873 1404238082
REM
CELL 1.54180   50.00000   50.00000   50.00000   90.00000   90.00000   90.00000
LATT -1
SFAC C  
C      1  0.4863700000000  0.4230700000000  0.4486080000000 1.0
C      1  0.4290900000000  0.5882540000000  0.4472590000000 1.0
C      1  0.5237360000000  0.4620290000000  0.5311580000000 1.0
C      1  0.5214920000000  0.4878700000000  0.4142800000000 1.0
C      1  0.4980410000000  0.5855430000000  0.5564060000000 1.0
C      1  0.4294830000000  0.4274490000000  0.4231300000000 1.0
C      1  0.5459310000000  0.4265110000000  0.4255220000000 1.0
C      1  0.5612490000000  0.4858700000000  0.5805940000000 1.0
C      1  0.5376860000000  0.5331390000000  0.5679980000000 1.0
C      1  0.5776130000000  0.5109550000000  0.5826920000000 1.0
C      1  0.5646280000000  0.5257940000000  0.5614480000000 1.0
C      1  0.5075270000000  0.4524330000000  0.5959840000000 1.0
C      1  0.4496180000000  0.4212070000000  0.4066060000000 1.0
C      1  0.5257610000000  0.4212400000000  0.4087120000000 1.0
C      1  0.4480160000000  0.5143330000000  0.5880780000000 1.0
C      1  0.4794620000000  0.5822310000000  0.4823730000000 1.0
C      1  0.5206210000000  0.4730780000000  0.6067660000000 1.0
C      1  0.4709550000000  0.5924970000000  0.5463320000000 1.0
C      1  0.5656730000000  0.4067560000000  0.5415990000000 1.0
C      1  0.4619500000000  0.6029780000000  0.4983460000000 1.0
C      1  0.4981090000000  0.5380000000000  0.5921200000000 1.0
C      1  0.5723390000000  0.4558110000000  0.5311930000000 1.0
C      1  0.4297090000000  0.5055010000000  0.5676250000000 1.0
C      1  0.5042330000000  0.4664380000000  0.5496830000000 1.0
C      1  0.4537620000000  0.5701650000000  0.5403410000000 1.0
C      1  0.5451560000000  0.5834710000000  0.5299170000000 1.0
C      1  0.4097450000000  0.4458080000000  0.4646910000000 1.0
C      1  0.4649470000000  0.5557050000000  0.5186430000000 1.0
C      1  0.4719240000000  0.5256310000000  0.5951420000000 1.0
C      1  0.6214310000000  0.4495400000000  0.4840310000000 1.0
C      1  0.5666500000000  0.4786610000000  0.5502280000000 1.0
C      1  0.4884960000000  0.5642330000000  0.5049650000000 1.0
C      1  0.4510330000000  0.5355730000000  0.5047720000000 1.0
C      1  0.5204570000000  0.5955020000000  0.5391020000000 1.0
C      1  0.5135950000000  0.6167340000000  0.4927970000000 1.0
C      1  0.6415690000000  0.4606220000000  0.4699120000000 1.0
C      1  0.4980900000000  0.4044890000000  0.4637260000000 1.0
C      1  0.4027770000000  0.4792510000000  0.5322550000000 1.0
C      1  0.4647370000000  0.5610780000000  0.4649810000000 1.0
C      1  0.5151710000000  0.6165880000000  0.5199380000000 1.0
C      1  0.4652200000000  0.6108250000000  0.5245700000000 1.0
C      1  0.5065440000000  0.5151300000000  0.4678070000000 1.0
C      1  0.4962710000000  0.4923760000000  0.4277830000000 1.0
C      1  0.4553140000000  0.4851430000000  0.4574770000000 1.0
C      1  0.4957000000000  0.5140950000000  0.5505790000000 1.0
C      1  0.4857990000000  0.4445070000000  0.5036350000000 1.0
C      1  0.5478070000000  0.5141200000000  0.5170110000000 1.0
C      1  0.4118660000000  0.4580560000000  0.5136340000000 1.0
C      1  0.4168660000000  0.4801730000000  0.5586120000000 1.0
C      1  0.4582020000000  0.4183270000000  0.5563970000000 1.0
C      1  0.5539180000000  0.4737880000000  0.4915850000000 1.0
C      1  0.5646600000000  0.5066840000000  0.5384980000000 1.0
C      1  0.4812550000000  0.4478980000000  0.4406090000000 1.0
C      1  0.4491250000000  0.5120100000000  0.5207990000000 1.0
C      1  0.5640840000000  0.4360370000000  0.4427390000000 1.0
C      1  0.4859800000000  0.5130520000000  0.4854980000000 1.0
C      1  0.4491320000000  0.5700550000000  0.4428270000000 1.0
C      1  0.5534740000000  0.5317200000000  0.4653780000000 1.0
C      1  0.4731710000000  0.4930870000000  0.5146380000000 1.0
C      1  0.5528160000000  0.5594170000000  0.4298490000000 1.0
C      1  0.5739960000000  0.3837200000000  0.5504940000000 1.0
C      1  0.4992670000000  0.4465020000000  0.5699160000000 1.0
C      1  0.5086440000000  0.4267340000000  0.5058920000000 1.0
C      1  0.4621370000000  0.4759340000000  0.5604120000000 1.0
C      1  0.4993160000000  0.5181190000000  0.4402390000000 1.0
C      1  0.5241970000000  0.5215460000000  0.5914250000000 1.0
C      1  0.4072880000000  0.4326480000000  0.4398360000000 1.0
C      1  0.4138460000000  0.5405420000000  0.5394020000000 1.0
C      1  0.5630750000000  0.5754540000000  0.4800540000000 1.0
C      1  0.4535690000000  0.5604500000000  0.4175860000000 1.0
C      1  0.6168930000000  0.4832650000000  0.4348340000000 1.0
C      1  0.4381980000000  0.4612930000000  0.5612350000000 1.0
C      1  0.4197240000000  0.4341880000000  0.5276910000000 1.0
C      1  0.4483490000000  0.4690570000000  0.4806580000000 1.0
C      1  0.5301380000000  0.4361950000000  0.5217350000000 1.0
C      1  0.5564450000000  0.4310540000000  0.5320590000000 1.0
C      1  0.5430940000000  0.4985310000000  0.4945430000000 1.0
C      1  0.5763430000000  0.4607050000000  0.5023030000000 1.0
C      1  0.5600660000000  0.5579170000000  0.4578610000000 1.0
C      1  0.5179620000000  0.5309000000000  0.5474420000000 1.0
C      1  0.4215280000000  0.5195160000000  0.4470130000000 1.0
C      1  0.4366880000000  0.4351890000000  0.5502080000000 1.0
C      1  0.5340470000000  0.5135970000000  0.4733020000000 1.0
C      1  0.4763580000000  0.4754900000000  0.4397390000000 1.0
C      1  0.4745230000000  0.4178360000000  0.3972070000000 1.0
C      1  0.5327290000000  0.5791330000000  0.4222530000000 1.0
C      1  0.4688680000000  0.4671070000000  0.5003890000000 1.0
C      1  0.5092140000000  0.4051900000000  0.4881110000000 1.0
C      1  0.3974200000000  0.5234070000000  0.4379130000000 1.0
C      1  0.6393070000000  0.4761780000000  0.4479690000000 1.0
C      1  0.4841490000000  0.4874730000000  0.5438320000000 1.0
C      1  0.5354400000000  0.4938420000000  0.5950580000000 1.0
C      1  0.5588420000000  0.5803240000000  0.5064670000000 1.0
C      1  0.5403150000000  0.5329640000000  0.4197180000000 1.0
C      1  0.5979750000000  0.5170540000000  0.5992690000000 1.0
C      1  0.3869920000000  0.5021340000000  0.5257010000000 1.0
C      1  0.4458720000000  0.5123810000000  0.4586560000000 1.0
C      1  0.4218900000000  0.4593610000000  0.4862550000000 1.0
C      1  0.5825180000000  0.4543570000000  0.4538870000000 1.0
C      1  0.3823960000000  0.4246210000000  0.4315740000000 1.0
C      1  0.5108950000000  0.5383980000000  0.4242000000000 1.0
C      1  0.3898530000000  0.5290940000000  0.5295070000000 1.0
C      1  0.4612130000000  0.5313960000000  0.4769140000000 1.0
C      1  0.5894400000000  0.4771380000000  0.4372070000000 1.0
C      1  0.4329180000000  0.5192780000000  0.5431410000000 1.0
C      1  0.5279840000000  0.5339960000000  0.5217290000000 1.0
C      1  0.5698130000000  0.4922360000000  0.4237320000000 1.0
C      1  0.5080800000000  0.5667510000000  0.4203170000000 1.0
C      1  0.4260150000000  0.5655220000000  0.5445920000000 1.0
C      1  0.5134180000000  0.5518300000000  0.5060750000000 1.0
C      1  0.5013460000000  0.4180620000000  0.3980930000000 1.0
C      1  0.5935360000000  0.4521020000000  0.4811850000000 1.0
C      1  0.4991770000000  0.5649630000000  0.5779800000000 1.0
C      1  0.4832430000000  0.4240850000000  0.5642700000000 1.0
C      1  0.5019410000000  0.6002140000000  0.4743710000000 1.0
C      1  0.5454660000000  0.5044910000000  0.4166670000000 1.0
END
