TITL C-612601-4209-1179 1.89696578466958 125000 -666.72440215979 0 0 110 (C1) n - 1
REM
REM in /home/nfs/bkarasulu/CARBON/AIRSS/Generating-Clusters/TERSOFF/Only-C1/FIRE-HFTN
REM
REM
REM
REM
REM
REM ./C.cell (11c1c37f851c82e70ff6c80c92926a4b)
REM AIRSS Version 0.9.1 bugfix July 2018 build 013d7b7c2542+ Fri, 06 Jul 2018 19:26:36 +0100
REM compiler GCC version 9.2.1 20190827 (Red Hat 9.2.1-1)
REM options -cpp -mtune=generic -march=x86-64 -g -O0 -fpre-include=/usr/include/finclude/math-vector-fortran.h
REM seed -1526615392 268376288 1769708936 712287643 165004013 -1137115530 271165533 -1713878931 1276855494 1231083573 71903142 -608409555 638179271 718962589 1577038235 812640305 1008677452 -1637321795 -1888672705 -526356157 685863441 180480102 -1560243573 -1742738187 -1907698587 -252498586 -1324025573 1733209133 1557599756 45139336 69958862 562471548 379405913
REM
CELL 1.54180   50.00000   50.00000   50.00000   90.00000   90.00000   90.00000
LATT -1
SFAC C  
C      1  0.4766180000000  0.5606730000000  0.4889830000000 1.0
C      1  0.5633260000000  0.5011950000000  0.4347960000000 1.0
C      1  0.5355580000000  0.4575450000000  0.5122140000000 1.0
C      1  0.4312460000000  0.4739960000000  0.4800280000000 1.0
C      1  0.5405980000000  0.4733110000000  0.5359480000000 1.0
C      1  0.5464490000000  0.5674200000000  0.5142980000000 1.0
C      1  0.5926550000000  0.4848810000000  0.4804320000000 1.0
C      1  0.5986330000000  0.5642940000000  0.5182550000000 1.0
C      1  0.5906890000000  0.5123680000000  0.4745640000000 1.0
C      1  0.4201950000000  0.5064220000000  0.5764940000000 1.0
C      1  0.5227880000000  0.5250890000000  0.4744910000000 1.0
C      1  0.4478420000000  0.6132250000000  0.4860580000000 1.0
C      1  0.3681050000000  0.5575250000000  0.5671470000000 1.0
C      1  0.4072850000000  0.5477700000000  0.4665790000000 1.0
C      1  0.4163890000000  0.4805070000000  0.5654090000000 1.0
C      1  0.6963280000000  0.5651460000000  0.5107700000000 1.0
C      1  0.5122600000000  0.3023890000000  0.4475300000000 1.0
C      1  0.3961060000000  0.4484950000000  0.5027860000000 1.0
C      1  0.5672130000000  0.4789580000000  0.5429580000000 1.0
C      1  0.5175550000000  0.5536480000000  0.4028080000000 1.0
C      1  0.5565320000000  0.4484630000000  0.4303490000000 1.0
C      1  0.5005080000000  0.4438630000000  0.5777050000000 1.0
C      1  0.4707510000000  0.5233290000000  0.4200440000000 1.0
C      1  0.4541920000000  0.4673140000000  0.4959870000000 1.0
C      1  0.4209060000000  0.5549700000000  0.5195690000000 1.0
C      1  0.5477950000000  0.5352690000000  0.4657650000000 1.0
C      1  0.3791220000000  0.5050420000000  0.4578910000000 1.0
C      1  0.6160780000000  0.3999010000000  0.5636250000000 1.0
C      1  0.3877550000000  0.5302930000000  0.4562010000000 1.0
C      1  0.4390700000000  0.5001110000000  0.3910080000000 1.0
C      1  0.5617030000000  0.4158330000000  0.5169490000000 1.0
C      1  0.5685900000000  0.5182340000000  0.4574800000000 1.0
C      1  0.5682380000000  0.5764710000000  0.4488820000000 1.0
C      1  0.5012860000000  0.4894980000000  0.4993200000000 1.0
C      1  0.6176450000000  0.5504250000000  0.5031150000000 1.0
C      1  0.4332330000000  0.5270900000000  0.5613330000000 1.0
C      1  0.4670400000000  0.5662300000000  0.5154560000000 1.0
C      1  0.5130440000000  0.4791940000000  0.6039500000000 1.0
C      1  0.4699990000000  0.6058130000000  0.4725250000000 1.0
C      1  0.5768700000000  0.4661090000000  0.4671100000000 1.0
C      1  0.3912480000000  0.5510290000000  0.5570790000000 1.0
C      1  0.5467470000000  0.4021500000000  0.4486710000000 1.0
C      1  0.5392290000000  0.5761700000000  0.4880950000000 1.0
C      1  0.4092490000000  0.5482070000000  0.4948560000000 1.0
C      1  0.6123310000000  0.4690270000000  0.5669310000000 1.0
C      1  0.4992780000000  0.4858080000000  0.4334430000000 1.0
C      1  0.4344940000000  0.5010330000000  0.4394200000000 1.0
C      1  0.4597100000000  0.5121880000000  0.4822230000000 1.0
C      1  0.5078250000000  0.5102810000000  0.5469640000000 1.0
C      1  0.3851190000000  0.4809350000000  0.4677350000000 1.0
C      1  0.5961620000000  0.3921890000000  0.5476980000000 1.0
C      1  0.3921890000000  0.4743000000000  0.5517610000000 1.0
C      1  0.4120020000000  0.5115990000000  0.6021570000000 1.0
C      1  0.5080680000000  0.4526500000000  0.4703730000000 1.0
C      1  0.4652150000000  0.4993440000000  0.5300370000000 1.0
C      1  0.4790850000000  0.5133740000000  0.5499210000000 1.0
C      1  0.4951320000000  0.4375190000000  0.6044190000000 1.0
C      1  0.5203370000000  0.5257140000000  0.5257700000000 1.0
C      1  0.5642960000000  0.4416390000000  0.4756310000000 1.0
C      1  0.5730230000000  0.5699240000000  0.5225280000000 1.0
C      1  0.5276320000000  0.5529490000000  0.5298730000000 1.0
C      1  0.6081410000000  0.5311530000000  0.4851800000000 1.0
C      1  0.4475830000000  0.5077620000000  0.4156830000000 1.0
C      1  0.4760160000000  0.5350570000000  0.4761500000000 1.0
C      1  0.4042560000000  0.4664230000000  0.4824030000000 1.0
C      1  0.5027570000000  0.4590320000000  0.6203970000000 1.0
C      1  0.4261220000000  0.5601430000000  0.4492140000000 1.0
C      1  0.4710640000000  0.5441340000000  0.5871310000000 1.0
C      1  0.5122000000000  0.4707880000000  0.5757760000000 1.0
C      1  0.6448850000000  0.5555660000000  0.5057810000000 1.0
C      1  0.4617790000000  0.5293970000000  0.5660320000000 1.0
C      1  0.3913730000000  0.4216370000000  0.4970210000000 1.0
C      1  0.4158820000000  0.5439330000000  0.5454230000000 1.0
C      1  0.5510580000000  0.5140880000000  0.4129060000000 1.0
C      1  0.4350840000000  0.6007800000000  0.5063640000000 1.0
C      1  0.5763290000000  0.3989910000000  0.5313390000000 1.0
C      1  0.5381470000000  0.3771050000000  0.4481530000000 1.0
C      1  0.4390400000000  0.4985820000000  0.4667640000000 1.0
C      1  0.4919860000000  0.5127410000000  0.4358920000000 1.0
C      1  0.5525540000000  0.5631550000000  0.4667460000000 1.0
C      1  0.5104830000000  0.5684390000000  0.5464790000000 1.0
C      1  0.4403050000000  0.5752630000000  0.5173120000000 1.0
C      1  0.4691000000000  0.5518490000000  0.4185200000000 1.0
C      1  0.5541470000000  0.4381130000000  0.5019220000000 1.0
C      1  0.6708150000000  0.5603960000000  0.5082960000000 1.0
C      1  0.3681600000000  0.4833790000000  0.5612220000000 1.0
C      1  0.5671080000000  0.4735100000000  0.4399480000000 1.0
C      1  0.3870900000000  0.3961600000000  0.4911480000000 1.0
C      1  0.5189970000000  0.5800350000000  0.5696080000000 1.0
C      1  0.5364040000000  0.5345210000000  0.4034250000000 1.0
C      1  0.4714670000000  0.4916780000000  0.5025030000000 1.0
C      1  0.5294730000000  0.3520670000000  0.4479400000000 1.0
C      1  0.3828910000000  0.3711010000000  0.4853130000000 1.0
C      1  0.5152450000000  0.5888860000000  0.4815680000000 1.0
C      1  0.5138630000000  0.4645530000000  0.4951490000000 1.0
C      1  0.3930900000000  0.4584380000000  0.5287340000000 1.0
C      1  0.4928980000000  0.5631630000000  0.4083470000000 1.0
C      1  0.5207950000000  0.3270220000000  0.4477330000000 1.0
C      1  0.6265520000000  0.4479320000000  0.5747980000000 1.0
C      1  0.4467610000000  0.5629970000000  0.4320240000000 1.0
C      1  0.4355250000000  0.4612150000000  0.5689420000000 1.0
C      1  0.6281390000000  0.4213220000000  0.5739780000000 1.0
C      1  0.5201810000000  0.4848260000000  0.5529530000000 1.0
C      1  0.4986370000000  0.5275010000000  0.4595330000000 1.0
C      1  0.5909760000000  0.4791470000000  0.5547610000000 1.0
C      1  0.5549970000000  0.4283740000000  0.4512480000000 1.0
C      1  0.4879810000000  0.5845030000000  0.4771210000000 1.0
C      1  0.5026960000000  0.4625390000000  0.4460530000000 1.0
C      1  0.4845270000000  0.5709660000000  0.5365920000000 1.0
C      1  0.5178730000000  0.5132990000000  0.5000750000000 1.0
END
