TITL C-612604-1799-289 2.95667175818731 125000 -1060.75413557431 0 0 172 (C1) n - 1
REM
REM in /home/nfs/bkarasulu/CARBON/AIRSS/Generating-Clusters/TERSOFF/Only-C1/FIRE-HFTN
REM
REM
REM
REM
REM
REM ./C.cell (11c1c37f851c82e70ff6c80c92926a4b)
REM AIRSS Version 0.9.1 bugfix July 2018 build 013d7b7c2542+ Fri, 06 Jul 2018 19:26:36 +0100
REM compiler GCC version 9.2.1 20190827 (Red Hat 9.2.1-1)
REM options -cpp -mtune=generic -march=x86-64 -g -O0 -fpre-include=/usr/include/finclude/math-vector-fortran.h
REM seed 825287242 1707091322 1679480947 -1535993483 1102301518 -1107324766 105153026 -1003719516 -1083475989 -1835963662 846821446 -667115969 514676536 -1024457625 211233971 -72660505 65165227 1537752199 44543183 -1223560012 1613766324 -1584153937 382792734 1935971864 -1383956074 -295400143 370213071 1743987746 -2099483053 1788516725 1292015798 -220389342 -462338813
REM
CELL 1.54180   50.00000   50.00000   50.00000   90.00000   90.00000   90.00000
LATT -1
SFAC C  
C      1  0.5507640000000  0.5493320000000  0.4659920000000 1.0
C      1  0.5496610000000  0.4166090000000  0.4302050000000 1.0
C      1  0.4228310000000  0.4518790000000  0.5779070000000 1.0
C      1  0.4135050000000  0.4945660000000  0.5580040000000 1.0
C      1  0.5433780000000  0.4814250000000  0.5518980000000 1.0
C      1  0.4758820000000  0.4096930000000  0.4392980000000 1.0
C      1  0.4351880000000  0.5577730000000  0.5882270000000 1.0
C      1  0.4180220000000  0.4602930000000  0.4618350000000 1.0
C      1  0.5605290000000  0.5990040000000  0.4687960000000 1.0
C      1  0.4912220000000  0.4532610000000  0.4296560000000 1.0
C      1  0.5979510000000  0.4392870000000  0.5261020000000 1.0
C      1  0.3795880000000  0.4528180000000  0.5113600000000 1.0
C      1  0.4737970000000  0.4744120000000  0.4368970000000 1.0
C      1  0.5618580000000  0.5250410000000  0.4584090000000 1.0
C      1  0.3734860000000  0.4930910000000  0.4791950000000 1.0
C      1  0.4745950000000  0.4438420000000  0.5929680000000 1.0
C      1  0.5165060000000  0.5734060000000  0.4071690000000 1.0
C      1  0.4932190000000  0.5623380000000  0.3941490000000 1.0
C      1  0.4884220000000  0.6297430000000  0.5360740000000 1.0
C      1  0.5573250000000  0.3986430000000  0.5638120000000 1.0
C      1  0.4770860000000  0.6153790000000  0.5564230000000 1.0
C      1  0.4645560000000  0.3801320000000  0.5867110000000 1.0
C      1  0.4326420000000  0.5341530000000  0.6018900000000 1.0
C      1  0.4293570000000  0.4008120000000  0.5205460000000 1.0
C      1  0.5859210000000  0.5797460000000  0.4702510000000 1.0
C      1  0.5784330000000  0.5281930000000  0.4120040000000 1.0
C      1  0.5511080000000  0.5340270000000  0.4028670000000 1.0
C      1  0.6204550000000  0.4537950000000  0.5274250000000 1.0
C      1  0.5696840000000  0.4416490000000  0.4868210000000 1.0
C      1  0.5626430000000  0.4922220000000  0.5349140000000 1.0
C      1  0.4313650000000  0.4804080000000  0.4769410000000 1.0
C      1  0.4949350000000  0.4893920000000  0.4913660000000 1.0
C      1  0.5206730000000  0.4970000000000  0.3755630000000 1.0
C      1  0.5162920000000  0.5534050000000  0.5401330000000 1.0
C      1  0.4101010000000  0.4345620000000  0.4641780000000 1.0
C      1  0.4992880000000  0.5055120000000  0.5361240000000 1.0
C      1  0.5344460000000  0.5521560000000  0.5806450000000 1.0
C      1  0.4510080000000  0.5218520000000  0.5373630000000 1.0
C      1  0.5882180000000  0.4605980000000  0.4721730000000 1.0
C      1  0.5412170000000  0.5926570000000  0.4462230000000 1.0
C      1  0.4495460000000  0.3477240000000  0.4887600000000 1.0
C      1  0.6116430000000  0.5300330000000  0.5306060000000 1.0
C      1  0.4206660000000  0.5611360000000  0.5217240000000 1.0
C      1  0.4776300000000  0.5279440000000  0.5829320000000 1.0
C      1  0.4509680000000  0.6014080000000  0.5027290000000 1.0
C      1  0.4139070000000  0.5427840000000  0.4440950000000 1.0
C      1  0.4918230000000  0.5819510000000  0.5896660000000 1.0
C      1  0.4430630000000  0.5695650000000  0.5393390000000 1.0
C      1  0.4923510000000  0.6063110000000  0.4691740000000 1.0
C      1  0.4573600000000  0.4970720000000  0.4408780000000 1.0
C      1  0.4181920000000  0.5198890000000  0.4273710000000 1.0
C      1  0.4380040000000  0.4715540000000  0.5023630000000 1.0
C      1  0.5001980000000  0.5835020000000  0.4849890000000 1.0
C      1  0.5785360000000  0.4161580000000  0.4275780000000 1.0
C      1  0.5362310000000  0.5168610000000  0.3854250000000 1.0
C      1  0.4670890000000  0.5513790000000  0.4002500000000 1.0
C      1  0.5450390000000  0.5641120000000  0.4429820000000 1.0
C      1  0.4786890000000  0.4246440000000  0.5712740000000 1.0
C      1  0.5285420000000  0.5234200000000  0.5732910000000 1.0
C      1  0.4441870000000  0.4817590000000  0.6096740000000 1.0
C      1  0.5467800000000  0.5509660000000  0.4948190000000 1.0
C      1  0.5716320000000  0.4809610000000  0.3984040000000 1.0
C      1  0.4912540000000  0.5966680000000  0.4422700000000 1.0
C      1  0.6275860000000  0.4797410000000  0.5287740000000 1.0
C      1  0.4480100000000  0.5560960000000  0.4803960000000 1.0
C      1  0.5884700000000  0.5671260000000  0.5529380000000 1.0
C      1  0.5657970000000  0.5654840000000  0.5107770000000 1.0
C      1  0.3930570000000  0.4585910000000  0.5356070000000 1.0
C      1  0.5408780000000  0.4415900000000  0.4167690000000 1.0
C      1  0.5907680000000  0.5630850000000  0.4954470000000 1.0
C      1  0.4620720000000  0.4814360000000  0.5549820000000 1.0
C      1  0.4976060000000  0.5570440000000  0.4776120000000 1.0
C      1  0.4368520000000  0.5083000000000  0.6099630000000 1.0
C      1  0.3717650000000  0.4691270000000  0.4912350000000 1.0
C      1  0.4658430000000  0.5331020000000  0.5593590000000 1.0
C      1  0.4619850000000  0.5205400000000  0.5106840000000 1.0
C      1  0.4704430000000  0.5692990000000  0.5290300000000 1.0
C      1  0.4077170000000  0.4108760000000  0.4768040000000 1.0
C      1  0.5110310000000  0.5880310000000  0.5100510000000 1.0
C      1  0.4100570000000  0.4780410000000  0.5808870000000 1.0
C      1  0.5865990000000  0.4876050000000  0.4831030000000 1.0
C      1  0.5480780000000  0.4347460000000  0.5333420000000 1.0
C      1  0.4704700000000  0.5927270000000  0.5735580000000 1.0
C      1  0.4634540000000  0.3926190000000  0.4889210000000 1.0
C      1  0.5062450000000  0.4744010000000  0.3717620000000 1.0
C      1  0.5186880000000  0.4580740000000  0.4239090000000 1.0
C      1  0.3831970000000  0.5174550000000  0.4736790000000 1.0
C      1  0.4901770000000  0.4824230000000  0.5497030000000 1.0
C      1  0.4769140000000  0.5710710000000  0.4395950000000 1.0
C      1  0.4827010000000  0.4308760000000  0.3907480000000 1.0
C      1  0.4015040000000  0.5395660000000  0.4717300000000 1.0
C      1  0.5413740000000  0.4127690000000  0.4566330000000 1.0
C      1  0.6041720000000  0.5439120000000  0.5554100000000 1.0
C      1  0.5992440000000  0.5269680000000  0.5787360000000 1.0
C      1  0.4077790000000  0.5521850000000  0.4984330000000 1.0
C      1  0.5039380000000  0.4652230000000  0.4856450000000 1.0
C      1  0.4811320000000  0.4288320000000  0.4192670000000 1.0
C      1  0.5229240000000  0.5033910000000  0.4468640000000 1.0
C      1  0.4871110000000  0.5115790000000  0.6017780000000 1.0
C      1  0.5488810000000  0.6123340000000  0.4920880000000 1.0
C      1  0.4176210000000  0.4160370000000  0.5408970000000 1.0
C      1  0.5426370000000  0.4076730000000  0.5423040000000 1.0
C      1  0.5242900000000  0.4850650000000  0.4263490000000 1.0
C      1  0.4869160000000  0.4366710000000  0.5468610000000 1.0
C      1  0.5872660000000  0.4943840000000  0.5489280000000 1.0
C      1  0.5400790000000  0.5634090000000  0.5536390000000 1.0
C      1  0.5444820000000  0.4322630000000  0.4765810000000 1.0
C      1  0.4472690000000  0.4558020000000  0.5952820000000 1.0
C      1  0.5146280000000  0.5678350000000  0.5942840000000 1.0
C      1  0.4107020000000  0.4409720000000  0.5524500000000 1.0
C      1  0.5233930000000  0.3898220000000  0.5314110000000 1.0
C      1  0.4582920000000  0.5244070000000  0.3991160000000 1.0
C      1  0.5457640000000  0.5026700000000  0.4634170000000 1.0
C      1  0.6113560000000  0.5015370000000  0.5354530000000 1.0
C      1  0.4397420000000  0.4981310000000  0.5485520000000 1.0
C      1  0.5971900000000  0.4612520000000  0.4444860000000 1.0
C      1  0.6023750000000  0.4877320000000  0.4332950000000 1.0
C      1  0.4463250000000  0.5030830000000  0.4671340000000 1.0
C      1  0.5658120000000  0.4552110000000  0.4082300000000 1.0
C      1  0.5638890000000  0.5688990000000  0.5391660000000 1.0
C      1  0.4933460000000  0.3514110000000  0.5153510000000 1.0
C      1  0.5518600000000  0.5029090000000  0.5112170000000 1.0
C      1  0.4875400000000  0.5080480000000  0.5104460000000 1.0
C      1  0.4917350000000  0.6306200000000  0.4846710000000 1.0
C      1  0.5380480000000  0.5555850000000  0.4161480000000 1.0
C      1  0.5864150000000  0.5005690000000  0.4130990000000 1.0
C      1  0.4587710000000  0.3976030000000  0.5182210000000 1.0
C      1  0.4749880000000  0.4029700000000  0.4654430000000 1.0
C      1  0.4992610000000  0.3750280000000  0.5300820000000 1.0
C      1  0.4510840000000  0.5270750000000  0.4847510000000 1.0
C      1  0.5261640000000  0.6124590000000  0.5099310000000 1.0
C      1  0.5037030000000  0.6318490000000  0.5115770000000 1.0
C      1  0.5167290000000  0.5957350000000  0.4283050000000 1.0
C      1  0.4978740000000  0.4593400000000  0.6044120000000 1.0
C      1  0.4931600000000  0.4509300000000  0.3753600000000 1.0
C      1  0.5264740000000  0.4546030000000  0.6068400000000 1.0
C      1  0.4700690000000  0.4374340000000  0.5249220000000 1.0
C      1  0.5043900000000  0.4578840000000  0.5479070000000 1.0
C      1  0.4726370000000  0.3970580000000  0.5669310000000 1.0
C      1  0.5387070000000  0.5274050000000  0.5079770000000 1.0
C      1  0.4187200000000  0.3914440000000  0.4942930000000 1.0
C      1  0.4461720000000  0.5758300000000  0.5683330000000 1.0
C      1  0.3720340000000  0.5040660000000  0.5349980000000 1.0
C      1  0.4909070000000  0.5482700000000  0.4519380000000 1.0
C      1  0.5127040000000  0.5264780000000  0.5486930000000 1.0
C      1  0.4547280000000  0.5652090000000  0.4226570000000 1.0
C      1  0.5954580000000  0.5677420000000  0.4454320000000 1.0
C      1  0.4920270000000  0.4867130000000  0.6100090000000 1.0
C      1  0.4513540000000  0.4514290000000  0.5127710000000 1.0
C      1  0.5403610000000  0.4981360000000  0.5752670000000 1.0
C      1  0.6018750000000  0.5121640000000  0.4865720000000 1.0
C      1  0.4175370000000  0.5906550000000  0.4405660000000 1.0
C      1  0.4727840000000  0.3407400000000  0.5012140000000 1.0
C      1  0.5211620000000  0.4453010000000  0.4845040000000 1.0
C      1  0.4987540000000  0.5713010000000  0.5287750000000 1.0
C      1  0.4405600000000  0.3742080000000  0.4840810000000 1.0
C      1  0.5624940000000  0.4901510000000  0.5925170000000 1.0
C      1  0.4440390000000  0.5104800000000  0.4195290000000 1.0
C      1  0.5716830000000  0.4383380000000  0.5158200000000 1.0
C      1  0.4274620000000  0.5658080000000  0.4322130000000 1.0
C      1  0.5322130000000  0.4567020000000  0.5447260000000 1.0
C      1  0.4756880000000  0.3885680000000  0.5393770000000 1.0
C      1  0.5876710000000  0.4430890000000  0.4246300000000 1.0
C      1  0.5034130000000  0.5240110000000  0.4450050000000 1.0
C      1  0.5928120000000  0.5490830000000  0.4257570000000 1.0
C      1  0.5859430000000  0.5011470000000  0.5779250000000 1.0
C      1  0.4234330000000  0.5976620000000  0.4657250000000 1.0
C      1  0.5582260000000  0.4916190000000  0.4865250000000 1.0
C      1  0.4414640000000  0.5846570000000  0.4832520000000 1.0
C      1  0.5510770000000  0.4674070000000  0.6067120000000 1.0
C      1  0.3924710000000  0.4870680000000  0.5409440000000 1.0
C      1  0.6047840000000  0.5369820000000  0.5024920000000 1.0
END
