TITL C-612605-9286-436 0.0922751353094753 125000 -1163.47090436348 0 0 191 (C1) n - 1
REM
REM in /home/nfs/bkarasulu/CARBON/AIRSS/Generating-Clusters/TERSOFF/Only-C1/FIRE-HFTN
REM
REM
REM
REM
REM
REM ./C.cell (11c1c37f851c82e70ff6c80c92926a4b)
REM AIRSS Version 0.9.1 bugfix July 2018 build 013d7b7c2542+ Fri, 06 Jul 2018 19:26:36 +0100
REM compiler GCC version 9.2.1 20190827 (Red Hat 9.2.1-1)
REM options -cpp -mtune=generic -march=x86-64 -g -O0 -fpre-include=/usr/include/finclude/math-vector-fortran.h
REM seed 1696522888 1092758024 -1970494008 494004084 1361019085 2051550407 1596850321 1002627153 -2128584164 461948129 -324265700 -1879311152 484456980 -566289454 -1693507713 -1635304146 -1269420571 -377011451 468350192 2020557329 -902719950 -896475377 -1333206778 1321464606 150334077 -1723844690 -1248142873 887338953 697972357 -846332375 694460253 952349114 652309178
REM
CELL 1.54180   50.00000   50.00000   50.00000   90.00000   90.00000   90.00000
LATT -1
SFAC C  
C      1  0.4040340000000  0.5778340000000  0.4860990000000 1.0
C      1  0.5757890000000  0.4611190000000  0.5852440000000 1.0
C      1  0.5423620000000  0.6086370000000  0.5157960000000 1.0
C      1  0.4469360000000  0.6052220000000  0.5189760000000 1.0
C      1  0.5250370000000  0.5262500000000  0.4741110000000 1.0
C      1  0.5428300000000  0.4429730000000  0.5514080000000 1.0
C      1  0.4003870000000  0.5240100000000  0.4395920000000 1.0
C      1  0.4974410000000  0.4766480000000  0.5336660000000 1.0
C      1  0.4926750000000  0.4162160000000  0.5860850000000 1.0
C      1  0.4908610000000  0.3936300000000  0.4536390000000 1.0
C      1  0.5790850000000  0.5157220000000  0.3895820000000 1.0
C      1  0.5936600000000  0.5088410000000  0.5155030000000 1.0
C      1  0.5677430000000  0.4405600000000  0.4788150000000 1.0
C      1  0.4444570000000  0.3862220000000  0.4416150000000 1.0
C      1  0.4792700000000  0.5513450000000  0.4792110000000 1.0
C      1  0.5625900000000  0.5884900000000  0.5122000000000 1.0
C      1  0.5517430000000  0.4628040000000  0.3786670000000 1.0
C      1  0.4707310000000  0.4686140000000  0.4092960000000 1.0
C      1  0.4842700000000  0.5968530000000  0.5531240000000 1.0
C      1  0.4504490000000  0.4378200000000  0.5724640000000 1.0
C      1  0.5498930000000  0.4384130000000  0.3903200000000 1.0
C      1  0.4407230000000  0.6077210000000  0.4911900000000 1.0
C      1  0.5158940000000  0.6312910000000  0.4789450000000 1.0
C      1  0.6010770000000  0.4604870000000  0.5713230000000 1.0
C      1  0.5251440000000  0.4805460000000  0.5956940000000 1.0
C      1  0.5216070000000  0.4258250000000  0.5389900000000 1.0
C      1  0.5085210000000  0.5044820000000  0.4629840000000 1.0
C      1  0.5516020000000  0.5131300000000  0.3840400000000 1.0
C      1  0.4187840000000  0.4065880000000  0.5109630000000 1.0
C      1  0.4953800000000  0.5113650000000  0.3837820000000 1.0
C      1  0.4602680000000  0.5119730000000  0.6133330000000 1.0
C      1  0.5546740000000  0.4647540000000  0.5368190000000 1.0
C      1  0.4559790000000  0.3773020000000  0.4863710000000 1.0
C      1  0.4354640000000  0.5820220000000  0.5310520000000 1.0
C      1  0.5711020000000  0.5766420000000  0.4254450000000 1.0
C      1  0.5238050000000  0.5739940000000  0.4805380000000 1.0
C      1  0.4521140000000  0.5053340000000  0.4349770000000 1.0
C      1  0.6230510000000  0.5345390000000  0.4477650000000 1.0
C      1  0.4858530000000  0.4215460000000  0.4480000000000 1.0
C      1  0.4211350000000  0.4104240000000  0.5392730000000 1.0
C      1  0.5643860000000  0.4134080000000  0.4852020000000 1.0
C      1  0.5408890000000  0.6262000000000  0.4927190000000 1.0
C      1  0.4523890000000  0.5344880000000  0.5279100000000 1.0
C      1  0.3945830000000  0.4745200000000  0.4324180000000 1.0
C      1  0.4000720000000  0.4219320000000  0.4938780000000 1.0
C      1  0.4470330000000  0.5060420000000  0.5266480000000 1.0
C      1  0.4654000000000  0.4853510000000  0.4825620000000 1.0
C      1  0.5792500000000  0.5559220000000  0.4426590000000 1.0
C      1  0.4574550000000  0.4593150000000  0.5204920000000 1.0
C      1  0.5537560000000  0.5969400000000  0.4265830000000 1.0
C      1  0.5612020000000  0.4111550000000  0.6154180000000 1.0
C      1  0.4534490000000  0.5714850000000  0.5840240000000 1.0
C      1  0.3886920000000  0.5147500000000  0.5546670000000 1.0
C      1  0.4755150000000  0.5357050000000  0.6219610000000 1.0
C      1  0.5522840000000  0.4948280000000  0.4528680000000 1.0
C      1  0.5257380000000  0.4832610000000  0.4549920000000 1.0
C      1  0.4763260000000  0.4253040000000  0.5647560000000 1.0
C      1  0.4936180000000  0.4471880000000  0.4638220000000 1.0
C      1  0.4552390000000  0.5614000000000  0.5367810000000 1.0
C      1  0.4987760000000  0.4484910000000  0.4944820000000 1.0
C      1  0.4988780000000  0.4670400000000  0.4030820000000 1.0
C      1  0.4585590000000  0.5942140000000  0.4082010000000 1.0
C      1  0.5385470000000  0.4877930000000  0.3802080000000 1.0
C      1  0.4657470000000  0.4628540000000  0.4621860000000 1.0
C      1  0.4682880000000  0.5743180000000  0.5593130000000 1.0
C      1  0.4899550000000  0.4812810000000  0.6307130000000 1.0
C      1  0.5667830000000  0.5366140000000  0.5930460000000 1.0
C      1  0.4112800000000  0.5018350000000  0.3947220000000 1.0
C      1  0.4581200000000  0.4234940000000  0.4924050000000 1.0
C      1  0.5708490000000  0.5424200000000  0.4925330000000 1.0
C      1  0.4845930000000  0.5284580000000  0.4954080000000 1.0
C      1  0.4804920000000  0.5260440000000  0.4030260000000 1.0
C      1  0.5364690000000  0.5701220000000  0.5635360000000 1.0
C      1  0.4143250000000  0.5326760000000  0.4984580000000 1.0
C      1  0.4231080000000  0.5227830000000  0.5853410000000 1.0
C      1  0.5707350000000  0.4919400000000  0.4755300000000 1.0
C      1  0.5482900000000  0.4905670000000  0.5470150000000 1.0
C      1  0.5351230000000  0.5341840000000  0.3947710000000 1.0
C      1  0.4257770000000  0.4073600000000  0.4377280000000 1.0
C      1  0.5831980000000  0.5254820000000  0.5361900000000 1.0
C      1  0.4358770000000  0.5275030000000  0.4804760000000 1.0
C      1  0.4870230000000  0.4823200000000  0.5586390000000 1.0
C      1  0.5728160000000  0.4658950000000  0.4896990000000 1.0
C      1  0.6169020000000  0.5576370000000  0.5415870000000 1.0
C      1  0.4742250000000  0.4239540000000  0.4220190000000 1.0
C      1  0.5545340000000  0.4417120000000  0.5783410000000 1.0
C      1  0.5591980000000  0.5149920000000  0.5466930000000 1.0
C      1  0.3806000000000  0.5390380000000  0.5457390000000 1.0
C      1  0.4013460000000  0.4379570000000  0.4690280000000 1.0
C      1  0.5463940000000  0.5176500000000  0.4359290000000 1.0
C      1  0.4439570000000  0.3997940000000  0.4986870000000 1.0
C      1  0.4806950000000  0.5757300000000  0.4927120000000 1.0
C      1  0.4615570000000  0.4776820000000  0.4357770000000 1.0
C      1  0.4658760000000  0.4829960000000  0.6148890000000 1.0
C      1  0.5292750000000  0.4039580000000  0.4224070000000 1.0
C      1  0.4020080000000  0.5575800000000  0.5055150000000 1.0
C      1  0.4255900000000  0.4295950000000  0.4558100000000 1.0
C      1  0.5179720000000  0.5972600000000  0.5229550000000 1.0
C      1  0.4538830000000  0.4846710000000  0.5083770000000 1.0
C      1  0.5057410000000  0.4849410000000  0.5790940000000 1.0
C      1  0.4079170000000  0.4062720000000  0.4170060000000 1.0
C      1  0.4545670000000  0.5158220000000  0.4077470000000 1.0
C      1  0.3947460000000  0.5605330000000  0.5338850000000 1.0
C      1  0.5583220000000  0.5594570000000  0.5161320000000 1.0
C      1  0.5803360000000  0.5974820000000  0.4902320000000 1.0
C      1  0.5128480000000  0.5924470000000  0.5509630000000 1.0
C      1  0.5863340000000  0.3550210000000  0.4339780000000 1.0
C      1  0.5422780000000  0.6091940000000  0.4488990000000 1.0
C      1  0.4760310000000  0.5436400000000  0.4509030000000 1.0
C      1  0.5934740000000  0.3362740000000  0.4173300000000 1.0
C      1  0.5049360000000  0.5294730000000  0.6252910000000 1.0
C      1  0.5060730000000  0.5843210000000  0.5004630000000 1.0
C      1  0.5352420000000  0.5519160000000  0.4679830000000 1.0
C      1  0.4376060000000  0.4950580000000  0.5514470000000 1.0
C      1  0.3955530000000  0.4658790000000  0.5251040000000 1.0
C      1  0.5250500000000  0.5328610000000  0.4220030000000 1.0
C      1  0.5103550000000  0.4873720000000  0.3862220000000 1.0
C      1  0.5152870000000  0.4589510000000  0.4472590000000 1.0
C      1  0.6064160000000  0.5889480000000  0.4990370000000 1.0
C      1  0.5829810000000  0.5126060000000  0.5912920000000 1.0
C      1  0.4696760000000  0.6144580000000  0.5346030000000 1.0
C      1  0.4608200000000  0.5918090000000  0.4359750000000 1.0
C      1  0.4519130000000  0.4742770000000  0.3882010000000 1.0
C      1  0.6065410000000  0.4846580000000  0.5563160000000 1.0
C      1  0.4954730000000  0.5389410000000  0.5633400000000 1.0
C      1  0.5170800000000  0.4165500000000  0.5968480000000 1.0
C      1  0.5985440000000  0.4833390000000  0.5277380000000 1.0
C      1  0.5729490000000  0.4865500000000  0.5985940000000 1.0
C      1  0.3869300000000  0.5121810000000  0.4633310000000 1.0
C      1  0.5128170000000  0.6151650000000  0.4544850000000 1.0
C      1  0.4762100000000  0.4367820000000  0.5125460000000 1.0
C      1  0.5995490000000  0.5381950000000  0.4332240000000 1.0
C      1  0.4244850000000  0.5477590000000  0.4406250000000 1.0
C      1  0.5638890000000  0.5522400000000  0.4662770000000 1.0
C      1  0.4141540000000  0.5758000000000  0.5496830000000 1.0
C      1  0.6167110000000  0.5747950000000  0.5202330000000 1.0
C      1  0.4029510000000  0.5104730000000  0.5107580000000 1.0
C      1  0.6042500000000  0.5346940000000  0.5529250000000 1.0
C      1  0.5444610000000  0.4229790000000  0.5973070000000 1.0
C      1  0.3927120000000  0.4852690000000  0.5046660000000 1.0
C      1  0.6185720000000  0.4389620000000  0.5723840000000 1.0
C      1  0.5150990000000  0.3878260000000  0.4394010000000 1.0
C      1  0.4950500000000  0.5369550000000  0.4265720000000 1.0
C      1  0.6050430000000  0.5115980000000  0.5712800000000 1.0
C      1  0.3863200000000  0.4856220000000  0.4768460000000 1.0
C      1  0.5698600000000  0.3936590000000  0.4662500000000 1.0
C      1  0.5436480000000  0.5536400000000  0.5891760000000 1.0
C      1  0.4507680000000  0.5200530000000  0.5880960000000 1.0
C      1  0.5954740000000  0.5249160000000  0.4086690000000 1.0
C      1  0.5301550000000  0.4887620000000  0.5033320000000 1.0
C      1  0.4543670000000  0.4637950000000  0.5877150000000 1.0
C      1  0.5787570000000  0.3741950000000  0.4506350000000 1.0
C      1  0.4865220000000  0.6032970000000  0.4467060000000 1.0
C      1  0.6340590000000  0.4180190000000  0.5731490000000 1.0
C      1  0.5586440000000  0.4057080000000  0.5121240000000 1.0
C      1  0.4139860000000  0.5065650000000  0.5641030000000 1.0
C      1  0.6436780000000  0.5315840000000  0.4634170000000 1.0
C      1  0.5386960000000  0.5534080000000  0.5390860000000 1.0
C      1  0.3997450000000  0.5007810000000  0.4204900000000 1.0
C      1  0.5199570000000  0.5461500000000  0.6050900000000 1.0
C      1  0.5123660000000  0.5393970000000  0.5398440000000 1.0
C      1  0.5319550000000  0.4046420000000  0.5221160000000 1.0
C      1  0.5157460000000  0.4512840000000  0.4200580000000 1.0
C      1  0.4727270000000  0.5587980000000  0.6027220000000 1.0
C      1  0.4590950000000  0.4815390000000  0.5654790000000 1.0
C      1  0.4910050000000  0.4276470000000  0.5391180000000 1.0
C      1  0.5604820000000  0.6136390000000  0.4731620000000 1.0
C      1  0.5274570000000  0.5165760000000  0.5012760000000 1.0
C      1  0.3914490000000  0.4636820000000  0.4592490000000 1.0
C      1  0.5793970000000  0.3983310000000  0.5285170000000 1.0
C      1  0.5052530000000  0.5282120000000  0.5154330000000 1.0
C      1  0.4477140000000  0.5296230000000  0.4524830000000 1.0
C      1  0.4709710000000  0.5249510000000  0.5683330000000 1.0
C      1  0.4848410000000  0.5048860000000  0.4787120000000 1.0
C      1  0.4082870000000  0.4544220000000  0.5461450000000 1.0
C      1  0.4983050000000  0.5547750000000  0.5877350000000 1.0
C      1  0.4659110000000  0.3799660000000  0.4596210000000 1.0
C      1  0.5323330000000  0.4298150000000  0.4107800000000 1.0
C      1  0.4365310000000  0.5783110000000  0.4487020000000 1.0
C      1  0.5109730000000  0.4698100000000  0.5098900000000 1.0
C      1  0.4388870000000  0.4997520000000  0.3898340000000 1.0
C      1  0.5807000000000  0.5148500000000  0.4913440000000 1.0
C      1  0.5074320000000  0.5024260000000  0.6348670000000 1.0
C      1  0.4679530000000  0.4164700000000  0.3977300000000 1.0
C      1  0.4263200000000  0.5901790000000  0.4734610000000 1.0
C      1  0.5771300000000  0.4658310000000  0.5185430000000 1.0
C      1  0.4119610000000  0.5480600000000  0.5906970000000 1.0
C      1  0.4242070000000  0.5702170000000  0.5776950000000 1.0
C      1  0.5163650000000  0.3827920000000  0.5164360000000 1.0
C      1  0.4260630000000  0.4337060000000  0.5553650000000 1.0
C      1  0.4482620000000  0.4392550000000  0.4697590000000 1.0
END
