TITL C-612604-1799-821 0.0767174923980829 125000 -688.729617577935 0 0 112 (C1) n - 1
REM
REM in /home/nfs/bkarasulu/CARBON/AIRSS/Generating-Clusters/TERSOFF/Only-C1/FIRE-HFTN
REM
REM
REM
REM
REM
REM ./C.cell (11c1c37f851c82e70ff6c80c92926a4b)
REM AIRSS Version 0.9.1 bugfix July 2018 build 013d7b7c2542+ Fri, 06 Jul 2018 19:26:36 +0100
REM compiler GCC version 9.2.1 20190827 (Red Hat 9.2.1-1)
REM options -cpp -mtune=generic -march=x86-64 -g -O0 -fpre-include=/usr/include/finclude/math-vector-fortran.h
REM seed 432210613 -395465764 -349051924 1032635911 -691260627 879709321 723495501 995915527 108110912 -604238684 405885309 -593050853 -119641461 585584261 -1934491976 -140807006 -175824158 -618066095 -791477825 1853580141 443295562 -223184788 -131138571 -480017821 1307288847 -1699592096 -505006100 -806012497 2131567784 -1564892748 579962211 496272765 -328785243
REM
CELL 1.54180   50.00000   50.00000   50.00000   90.00000   90.00000   90.00000
LATT -1
SFAC C  
C      1  0.4597050000000  0.5865450000000  0.4573120000000 1.0
C      1  0.5081930000000  0.6301310000000  0.4986460000000 1.0
C      1  0.4351410000000  0.5728790000000  0.4591340000000 1.0
C      1  0.4801530000000  0.4504180000000  0.5147730000000 1.0
C      1  0.4703070000000  0.3963600000000  0.4864580000000 1.0
C      1  0.4879320000000  0.5826920000000  0.4556260000000 1.0
C      1  0.5153990000000  0.5569290000000  0.5391230000000 1.0
C      1  0.3938220000000  0.5203980000000  0.5642340000000 1.0
C      1  0.4294580000000  0.5249540000000  0.5014400000000 1.0
C      1  0.5156720000000  0.5430880000000  0.3959560000000 1.0
C      1  0.5619160000000  0.5252970000000  0.5391010000000 1.0
C      1  0.4923180000000  0.4260270000000  0.5633470000000 1.0
C      1  0.4763800000000  0.4288520000000  0.4479510000000 1.0
C      1  0.6489460000000  0.5433580000000  0.4837560000000 1.0
C      1  0.4783580000000  0.5488410000000  0.4196080000000 1.0
C      1  0.4940300000000  0.5378860000000  0.5379720000000 1.0
C      1  0.4626490000000  0.5727720000000  0.5614420000000 1.0
C      1  0.5544930000000  0.4062420000000  0.4921740000000 1.0
C      1  0.5486690000000  0.5328370000000  0.5149060000000 1.0
C      1  0.5302800000000  0.4505280000000  0.5798520000000 1.0
C      1  0.5137820000000  0.4110720000000  0.4738090000000 1.0
C      1  0.4828430000000  0.4772560000000  0.4235560000000 1.0
C      1  0.4955020000000  0.5248360000000  0.4665950000000 1.0
C      1  0.4168830000000  0.4647180000000  0.4525090000000 1.0
C      1  0.4946880000000  0.6056470000000  0.5004310000000 1.0
C      1  0.5357730000000  0.4680940000000  0.4520890000000 1.0
C      1  0.5221120000000  0.4457060000000  0.4403900000000 1.0
C      1  0.4283920000000  0.5554900000000  0.4379540000000 1.0
C      1  0.4435310000000  0.4337040000000  0.5677940000000 1.0
C      1  0.5547800000000  0.5203850000000  0.4688140000000 1.0
C      1  0.5268980000000  0.4088420000000  0.4999500000000 1.0
C      1  0.4805180000000  0.5890000000000  0.5460830000000 1.0
C      1  0.4023230000000  0.4679360000000  0.5261640000000 1.0
C      1  0.4552850000000  0.4436910000000  0.5071170000000 1.0
C      1  0.5470120000000  0.5085010000000  0.5566980000000 1.0
C      1  0.5207400000000  0.4787400000000  0.4736670000000 1.0
C      1  0.5394510000000  0.5174030000000  0.6359690000000 1.0
C      1  0.5077980000000  0.5817030000000  0.5498230000000 1.0
C      1  0.4864480000000  0.4732970000000  0.5807850000000 1.0
C      1  0.5326270000000  0.4883250000000  0.4973290000000 1.0
C      1  0.5472150000000  0.5125130000000  0.5842370000000 1.0
C      1  0.4929650000000  0.5393630000000  0.4902080000000 1.0
C      1  0.5184530000000  0.4236030000000  0.5225880000000 1.0
C      1  0.4110580000000  0.4645840000000  0.5001180000000 1.0
C      1  0.4095960000000  0.4821080000000  0.4764800000000 1.0
C      1  0.4965810000000  0.5693210000000  0.4314160000000 1.0
C      1  0.4987850000000  0.5034910000000  0.4222370000000 1.0
C      1  0.4493790000000  0.5031720000000  0.4650100000000 1.0
C      1  0.5589490000000  0.4211140000000  0.4676430000000 1.0
C      1  0.5310230000000  0.4885310000000  0.5447590000000 1.0
C      1  0.5439090000000  0.5153090000000  0.6103700000000 1.0
C      1  0.5082500000000  0.4505010000000  0.5192400000000 1.0
C      1  0.4681330000000  0.4883060000000  0.4806630000000 1.0
C      1  0.4783410000000  0.5343020000000  0.5145960000000 1.0
C      1  0.4244280000000  0.5067940000000  0.4793790000000 1.0
C      1  0.4751670000000  0.4977870000000  0.5810690000000 1.0
C      1  0.4626820000000  0.3920230000000  0.5118370000000 1.0
C      1  0.5545580000000  0.4483340000000  0.5684930000000 1.0
C      1  0.6153170000000  0.5159380000000  0.5026180000000 1.0
C      1  0.4651290000000  0.4186540000000  0.5580980000000 1.0
C      1  0.5016790000000  0.5848820000000  0.4815120000000 1.0
C      1  0.4287210000000  0.4698530000000  0.4268020000000 1.0
C      1  0.4747100000000  0.6025440000000  0.5213470000000 1.0
C      1  0.5123100000000  0.5157590000000  0.4455420000000 1.0
C      1  0.5321410000000  0.4220410000000  0.4540030000000 1.0
C      1  0.5241440000000  0.3889780000000  0.5569770000000 1.0
C      1  0.6329190000000  0.5516750000000  0.5281390000000 1.0
C      1  0.5304690000000  0.5550220000000  0.5147080000000 1.0
C      1  0.5208030000000  0.6528910000000  0.4972120000000 1.0
C      1  0.4865610000000  0.4106500000000  0.4681620000000 1.0
C      1  0.4932510000000  0.4496390000000  0.4343740000000 1.0
C      1  0.5643300000000  0.4664610000000  0.4535710000000 1.0
C      1  0.5829900000000  0.4823260000000  0.4403630000000 1.0
C      1  0.5121910000000  0.5607450000000  0.4927170000000 1.0
C      1  0.5474980000000  0.5127700000000  0.4948480000000 1.0
C      1  0.4309460000000  0.4444610000000  0.4930190000000 1.0
C      1  0.4927090000000  0.4779000000000  0.4734450000000 1.0
C      1  0.6301800000000  0.5224740000000  0.4791540000000 1.0
C      1  0.4928700000000  0.5272290000000  0.4053130000000 1.0
C      1  0.4018540000000  0.5545850000000  0.5271260000000 1.0
C      1  0.5221970000000  0.5624900000000  0.4174150000000 1.0
C      1  0.4486000000000  0.5082920000000  0.4374580000000 1.0
C      1  0.4483520000000  0.4289240000000  0.4479910000000 1.0
C      1  0.5389930000000  0.5272980000000  0.4468110000000 1.0
C      1  0.4598370000000  0.5486390000000  0.5734830000000 1.0
C      1  0.4538210000000  0.4836990000000  0.4232090000000 1.0
C      1  0.5893520000000  0.5301160000000  0.5412510000000 1.0
C      1  0.4546660000000  0.5188000000000  0.5143890000000 1.0
C      1  0.3993350000000  0.4943980000000  0.5661300000000 1.0
C      1  0.5720690000000  0.4485240000000  0.5481700000000 1.0
C      1  0.6049070000000  0.4974150000000  0.4409110000000 1.0
C      1  0.4220940000000  0.5690810000000  0.4837970000000 1.0
C      1  0.4294330000000  0.4411080000000  0.4644710000000 1.0
C      1  0.5123110000000  0.4118350000000  0.5478710000000 1.0
C      1  0.6498470000000  0.5569730000000  0.5073940000000 1.0
C      1  0.5427680000000  0.5521920000000  0.4338330000000 1.0
C      1  0.6228540000000  0.5114220000000  0.4547140000000 1.0
C      1  0.3940110000000  0.5427720000000  0.5497400000000 1.0
C      1  0.4654410000000  0.5229180000000  0.5796310000000 1.0
C      1  0.4605770000000  0.3995530000000  0.5375180000000 1.0
C      1  0.4076810000000  0.4707860000000  0.5536020000000 1.0
C      1  0.4499010000000  0.6137510000000  0.5177050000000 1.0
C      1  0.4170310000000  0.5502720000000  0.5040410000000 1.0
C      1  0.4239820000000  0.4517450000000  0.5661910000000 1.0
C      1  0.5821150000000  0.4507550000000  0.5234270000000 1.0
C      1  0.5019510000000  0.4497940000000  0.5766990000000 1.0
C      1  0.5731450000000  0.4456310000000  0.4710520000000 1.0
C      1  0.5839050000000  0.4509140000000  0.4966670000000 1.0
C      1  0.4348590000000  0.5311170000000  0.4288660000000 1.0
C      1  0.5241050000000  0.4749000000000  0.5211640000000 1.0
C      1  0.6127850000000  0.5316460000000  0.5263040000000 1.0
C      1  0.4626750000000  0.4922340000000  0.5083690000000 1.0
END
