TITL C-612602-9376-1392 1929.79360736964 125000 -937.965333595531 0 0 153 (C1) n - 1
REM
REM in /home/nfs/bkarasulu/CARBON/AIRSS/Generating-Clusters/TERSOFF/Only-C1/FIRE-HFTN
REM
REM
REM
REM
REM
REM ./C.cell (11c1c37f851c82e70ff6c80c92926a4b)
REM AIRSS Version 0.9.1 bugfix July 2018 build 013d7b7c2542+ Fri, 06 Jul 2018 19:26:36 +0100
REM compiler GCC version 9.2.1 20190827 (Red Hat 9.2.1-1)
REM options -cpp -mtune=generic -march=x86-64 -g -O0 -fpre-include=/usr/include/finclude/math-vector-fortran.h
REM seed -523781955 -1700451284 178203386 1494623735 898913312 -437998131 1458517985 -23153583 -710351821 475054745 1317383011 -1882437663 -1524251165 1579846239 -507067814 377358049 2031078981 -1918152348 -1093900457 -231295957 667487841 1476229903 -69405753 1449796223 1095559270 -545716919 1518643966 757769107 -2036671393 625845951 552342337 1611065547 -3077225
REM
CELL 1.54180   50.00000   50.00000   50.00000   90.00000   90.00000   90.00000
LATT -1
SFAC C  
C      1  0.4293750000000  0.4709520000000  0.6046650000000 1.0
C      1  0.5130310000000  0.4054890000000  0.5023000000000 1.0
C      1  0.4929080000000  0.4920780000000  0.4802320000000 1.0
C      1  0.5481350000000  0.4005700000000  0.5404120000000 1.0
C      1  0.4417960000000  0.5209050000000  0.5035000000000 1.0
C      1  0.4441390000000  0.5126110000000  0.4590220000000 1.0
C      1  0.4679620000000  0.4722560000000  0.3902520000000 1.0
C      1  0.4275850000000  0.4560200000000  0.5805720000000 1.0
C      1  0.5052580000000  0.6212710000000  0.4689100000000 1.0
C      1  0.4116670000000  0.4849520000000  0.5112870000000 1.0
C      1  0.4685630000000  0.4983450000000  0.5573060000000 1.0
C      1  0.5374650000000  0.4652290000000  0.4226000000000 1.0
C      1  0.5756230000000  0.4221900000000  0.4825940000000 1.0
C      1  0.4675140000000  0.5923680000000  0.4558020000000 1.0
C      1  0.4131780000000  0.4687140000000  0.5592430000000 1.0
C      1  0.4469060000000  0.6360470000000  0.5046740000000 1.0
C      1  0.5378260000000  0.4992970000000  0.4627010000000 1.0
C      1  0.5413990000000  0.5722870000000  0.4315400000000 1.0
C      1  0.5460940000000  0.4497600000000  0.5710950000000 1.0
C      1  0.4738140000000  0.4344200000000  0.5822680000000 1.0
C      1  0.4982170000000  0.3852590000000  0.4890460000000 1.0
C      1  0.6246640000000  0.4900120000000  0.5547000000000 1.0
C      1  0.4411330000000  0.4821560000000  0.3916500000000 1.0
C      1  0.4562610000000  0.4621820000000  0.4599100000000 1.0
C      1  0.4477220000000  0.4368320000000  0.5769190000000 1.0
C      1  0.5440070000000  0.5272240000000  0.4095840000000 1.0
C      1  0.5963570000000  0.3974350000000  0.5386190000000 1.0
C      1  0.6168420000000  0.5252640000000  0.5003370000000 1.0
C      1  0.3914980000000  0.4858250000000  0.5661890000000 1.0
C      1  0.5149170000000  0.4564330000000  0.5022470000000 1.0
C      1  0.3941990000000  0.4681790000000  0.4674070000000 1.0
C      1  0.5484820000000  0.6082740000000  0.6186000000000 1.0
C      1  0.4376280000000  0.5094970000000  0.4011850000000 1.0
C      1  0.5382790000000  0.6032740000000  0.5951470000000 1.0
C      1  0.5201000000000  0.4204060000000  0.4426040000000 1.0
C      1  0.3845190000000  0.4408110000000  0.4678870000000 1.0
C      1  0.4583160000000  0.5207780000000  0.5724840000000 1.0
C      1  0.5237390000000  0.5587860000000  0.4929990000000 1.0
C      1  0.5060880000000  0.4873240000000  0.6237140000000 1.0
C      1  0.4863010000000  0.5365090000000  0.5075150000000 1.0
C      1  0.6194870000000  0.5292760000000  0.5280790000000 1.0
C      1  0.5328350000000  0.5101320000000  0.3894790000000 1.0
C      1  0.4240850000000  0.5794910000000  0.4690230000000 1.0
C      1  0.4607110000000  0.5674020000000  0.5522680000000 1.0
C      1  0.5077880000000  0.6277160000000  0.4949670000000 1.0
C      1  0.4971340000000  0.4975750000000  0.5580750000000 1.0
C      1  0.5029680000000  0.4320370000000  0.4624730000000 1.0
C      1  0.5163340000000  0.5125900000000  0.5434830000000 1.0
C      1  0.4326850000000  0.5585520000000  0.4503630000000 1.0
C      1  0.5151500000000  0.4900070000000  0.3842260000000 1.0
C      1  0.4139720000000  0.5747840000000  0.4947130000000 1.0
C      1  0.4680650000000  0.6307310000000  0.5203130000000 1.0
C      1  0.5525170000000  0.6100580000000  0.5227690000000 1.0
C      1  0.3981400000000  0.5515080000000  0.5334100000000 1.0
C      1  0.5454550000000  0.3888690000000  0.5667990000000 1.0
C      1  0.6287510000000  0.5419110000000  0.4822790000000 1.0
C      1  0.5206520000000  0.5023280000000  0.5175720000000 1.0
C      1  0.4867010000000  0.5233120000000  0.4100810000000 1.0
C      1  0.5724920000000  0.4090200000000  0.5296310000000 1.0
C      1  0.5654190000000  0.5329940000000  0.6084500000000 1.0
C      1  0.4656930000000  0.3623740000000  0.5191780000000 1.0
C      1  0.4426370000000  0.3470570000000  0.5212440000000 1.0
C      1  0.5724870000000  0.4324770000000  0.4565160000000 1.0
C      1  0.3898990000000  0.4763250000000  0.4391170000000 1.0
C      1  0.4709310000000  0.5214710000000  0.4561110000000 1.0
C      1  0.4190270000000  0.5656160000000  0.5209280000000 1.0
C      1  0.4897070000000  0.4695490000000  0.4975730000000 1.0
C      1  0.4209700000000  0.3327060000000  0.5231990000000 1.0
C      1  0.5277780000000  0.5960880000000  0.5702610000000 1.0
C      1  0.5066950000000  0.5570810000000  0.5178760000000 1.0
C      1  0.3858160000000  0.4520280000000  0.4227880000000 1.0
C      1  0.5006550000000  0.5126580000000  0.4988490000000 1.0
C      1  0.4175180000000  0.5172460000000  0.4210390000000 1.0
C      1  0.4461880000000  0.5600390000000  0.5289020000000 1.0
C      1  0.4994940000000  0.5442450000000  0.4247890000000 1.0
C      1  0.5195720000000  0.3803960000000  0.5711580000000 1.0
C      1  0.4772340000000  0.4446350000000  0.4576600000000 1.0
C      1  0.3987860000000  0.4517340000000  0.3980960000000 1.0
C      1  0.5336130000000  0.4768970000000  0.5113750000000 1.0
C      1  0.4932990000000  0.5896320000000  0.5247270000000 1.0
C      1  0.5417400000000  0.6038450000000  0.5466340000000 1.0
C      1  0.4610390000000  0.5256530000000  0.3979890000000 1.0
C      1  0.4268310000000  0.4762790000000  0.5349330000000 1.0
C      1  0.4269500000000  0.5308420000000  0.4446700000000 1.0
C      1  0.4607880000000  0.5665010000000  0.4454910000000 1.0
C      1  0.4917710000000  0.6161000000000  0.5149620000000 1.0
C      1  0.5791850000000  0.4561390000000  0.5155420000000 1.0
C      1  0.5488680000000  0.5453430000000  0.4879880000000 1.0
C      1  0.5738690000000  0.4289160000000  0.5097160000000 1.0
C      1  0.4705560000000  0.4691420000000  0.5177200000000 1.0
C      1  0.3953960000000  0.5005710000000  0.4262550000000 1.0
C      1  0.5217730000000  0.4436930000000  0.5783180000000 1.0
C      1  0.5913700000000  0.4531170000000  0.4484050000000 1.0
C      1  0.5438750000000  0.4515180000000  0.4006430000000 1.0
C      1  0.6208980000000  0.4683300000000  0.5394210000000 1.0
C      1  0.5432140000000  0.5237840000000  0.6197300000000 1.0
C      1  0.5723440000000  0.5271580000000  0.4498520000000 1.0
C      1  0.4362780000000  0.4966550000000  0.6088060000000 1.0
C      1  0.4154030000000  0.4786340000000  0.4832030000000 1.0
C      1  0.5820520000000  0.4945960000000  0.4164240000000 1.0
C      1  0.6070910000000  0.4628910000000  0.5157820000000 1.0
C      1  0.4778830000000  0.3686470000000  0.4945670000000 1.0
C      1  0.5886980000000  0.4703610000000  0.4261200000000 1.0
C      1  0.5569000000000  0.5188650000000  0.4751770000000 1.0
C      1  0.4802750000000  0.5466890000000  0.4462140000000 1.0
C      1  0.4932760000000  0.4801640000000  0.4001560000000 1.0
C      1  0.5645510000000  0.5900260000000  0.4760720000000 1.0
C      1  0.4913450000000  0.4969970000000  0.4235480000000 1.0
C      1  0.5617060000000  0.4779150000000  0.5078390000000 1.0
C      1  0.5702080000000  0.5643090000000  0.4867630000000 1.0
C      1  0.3929720000000  0.5058030000000  0.5171350000000 1.0
C      1  0.3927850000000  0.5142170000000  0.5642850000000 1.0
C      1  0.4791010000000  0.3731300000000  0.5414710000000 1.0
C      1  0.5095150000000  0.4046530000000  0.4228660000000 1.0
C      1  0.4195220000000  0.4648340000000  0.3873430000000 1.0
C      1  0.5515770000000  0.4381420000000  0.3796190000000 1.0
C      1  0.4966060000000  0.4651340000000  0.6125290000000 1.0
C      1  0.5033540000000  0.3851780000000  0.5478260000000 1.0
C      1  0.5597930000000  0.6088450000000  0.4967470000000 1.0
C      1  0.4426070000000  0.6021410000000  0.4670340000000 1.0
C      1  0.6020130000000  0.5025680000000  0.4920890000000 1.0
C      1  0.5544740000000  0.5883650000000  0.4492420000000 1.0
C      1  0.4106560000000  0.5268330000000  0.5822040000000 1.0
C      1  0.4549800000000  0.4815380000000  0.5375730000000 1.0
C      1  0.4362710000000  0.5179010000000  0.5902090000000 1.0
C      1  0.3799530000000  0.4315390000000  0.4421800000000 1.0
C      1  0.5733140000000  0.5012390000000  0.4939060000000 1.0
C      1  0.4823310000000  0.5870390000000  0.5504900000000 1.0
C      1  0.5354330000000  0.4794350000000  0.4450420000000 1.0
C      1  0.5106790000000  0.5743260000000  0.4727530000000 1.0
C      1  0.4392820000000  0.4847340000000  0.4677110000000 1.0
C      1  0.6111760000000  0.4613750000000  0.4672700000000 1.0
C      1  0.5226260000000  0.5080430000000  0.6255470000000 1.0
C      1  0.6057730000000  0.5300410000000  0.5750940000000 1.0
C      1  0.4973150000000  0.4464940000000  0.5915380000000 1.0
C      1  0.5482570000000  0.4244010000000  0.4443260000000 1.0
C      1  0.5137410000000  0.4309870000000  0.4897360000000 1.0
C      1  0.4887130000000  0.4991730000000  0.4527430000000 1.0
C      1  0.5037460000000  0.5809270000000  0.5692710000000 1.0
C      1  0.5147510000000  0.5413860000000  0.5452980000000 1.0
C      1  0.6181100000000  0.5173820000000  0.5535230000000 1.0
C      1  0.3906270000000  0.5248930000000  0.5379610000000 1.0
C      1  0.4719420000000  0.5455260000000  0.5690030000000 1.0
C      1  0.4386670000000  0.6256440000000  0.4814200000000 1.0
C      1  0.5279100000000  0.5490390000000  0.4213760000000 1.0
C      1  0.4949000000000  0.5959120000000  0.4625220000000 1.0
C      1  0.6135130000000  0.4762520000000  0.4911490000000 1.0
C      1  0.4588010000000  0.5399430000000  0.5126710000000 1.0
C      1  0.5871420000000  0.5351050000000  0.5933240000000 1.0
C      1  0.5681340000000  0.5183990000000  0.4230640000000 1.0
C      1  0.5213390000000  0.3992080000000  0.5286050000000 1.0
C      1  0.5014530000000  0.5518610000000  0.5688630000000 1.0
C      1  0.6191660000000  0.3879700000000  0.5469400000000 1.0
END
