TITL C-612605-9286-984 -1.49365231092083e-05 125000 -131.551266668583 0 0 23 (C1) n - 1
REM
REM in /home/nfs/bkarasulu/CARBON/AIRSS/Generating-Clusters/TERSOFF/Only-C1/FIRE-HFTN
REM
REM
REM
REM
REM
REM ./C.cell (11c1c37f851c82e70ff6c80c92926a4b)
REM AIRSS Version 0.9.1 bugfix July 2018 build 013d7b7c2542+ Fri, 06 Jul 2018 19:26:36 +0100
REM compiler GCC version 9.2.1 20190827 (Red Hat 9.2.1-1)
REM options -cpp -mtune=generic -march=x86-64 -g -O0 -fpre-include=/usr/include/finclude/math-vector-fortran.h
REM seed 2108502267 -1570606654 -1546029585 1898803791 1288366315 1271931512 1810073149 -1835917203 -1042419914 893161456 963320909 795137366 524627314 -2011376511 292063429 -1344629043 196789311 2008465916 410364479 -305748436 -1571784256 -210490522 1235012670 -28138090 273078477 1853571634 1457638886 -1146131322 48211917 -616441083 74971381 653485594 -1865493187
REM
CELL 1.54180   50.00000   50.00000   50.00000   90.00000   90.00000   90.00000
LATT -1
SFAC C  
C      1  0.4675890000000  0.5058750000000  0.5174730000000 1.0
C      1  0.5055680000000  0.4662200000000  0.5699750000000 1.0
C      1  0.4880270000000  0.5182080000000  0.5330530000000 1.0
C      1  0.5606780000000  0.4624760000000  0.4596370000000 1.0
C      1  0.5005630000000  0.4956970000000  0.4842480000000 1.0
C      1  0.5427270000000  0.4802220000000  0.4695120000000 1.0
C      1  0.4798710000000  0.4623090000000  0.5637240000000 1.0
C      1  0.4225080000000  0.4887030000000  0.5231340000000 1.0
C      1  0.4992690000000  0.5385560000000  0.4374020000000 1.0
C      1  0.5159630000000  0.5153920000000  0.5276500000000 1.0
C      1  0.5314540000000  0.5022560000000  0.5470670000000 1.0
C      1  0.5164700000000  0.5408680000000  0.4833750000000 1.0
C      1  0.4490140000000  0.4882800000000  0.5296210000000 1.0
C      1  0.4742150000000  0.5063440000000  0.4896760000000 1.0
C      1  0.5264050000000  0.4819000000000  0.5638380000000 1.0
C      1  0.4592390000000  0.4704580000000  0.5488800000000 1.0
C      1  0.5475590000000  0.5003990000000  0.4895040000000 1.0
C      1  0.5147340000000  0.4825800000000  0.4623550000000 1.0
C      1  0.5077440000000  0.4900990000000  0.4360630000000 1.0
C      1  0.5033800000000  0.5145940000000  0.4255030000000 1.0
C      1  0.4942640000000  0.5431410000000  0.4649020000000 1.0
C      1  0.5223940000000  0.5147730000000  0.4983320000000 1.0
C      1  0.4703630000000  0.5306510000000  0.4750770000000 1.0
END
