TITL C-612603-7354-410 5028.09712115889 125000 -785.72194196516 0 0 131 (C1) n - 1
REM
REM in /home/nfs/bkarasulu/CARBON/AIRSS/Generating-Clusters/TERSOFF/Only-C1/FIRE-HFTN
REM
REM
REM
REM
REM
REM ./C.cell (11c1c37f851c82e70ff6c80c92926a4b)
REM AIRSS Version 0.9.1 bugfix July 2018 build 013d7b7c2542+ Fri, 06 Jul 2018 19:26:36 +0100
REM compiler GCC version 9.2.1 20190827 (Red Hat 9.2.1-1)
REM options -cpp -mtune=generic -march=x86-64 -g -O0 -fpre-include=/usr/include/finclude/math-vector-fortran.h
REM seed 924501184 988713775 -490007996 1664884083 903360138 -418575637 1229121240 -1667767957 967642973 -1709208530 420743833 1818270702 -943943013 442336055 -506125777 272985452 -92667404 -1317283733 254945818 953839218 870821037 1753623634 1703643606 -1689987811 2107457947 1018975384 -1669436599 -663805813 204750999 -262831770 636652221 1035561252 1336502897
REM
CELL 1.54180   50.00000   50.00000   50.00000   90.00000   90.00000   90.00000
LATT -1
SFAC C  
C      1  0.5300790000000  0.4788380000000  0.5559230000000 1.0
C      1  0.5649890000000  0.4723420000000  0.5903980000000 1.0
C      1  0.4812940000000  0.6135260000000  0.4500460000000 1.0
C      1  0.5653430000000  0.5407500000000  0.4098310000000 1.0
C      1  0.5144250000000  0.4951980000000  0.4521980000000 1.0
C      1  0.4827440000000  0.4912740000000  0.4021260000000 1.0
C      1  0.4772740000000  0.4583400000000  0.5370520000000 1.0
C      1  0.4788510000000  0.5488050000000  0.4867780000000 1.0
C      1  0.4356110000000  0.4641890000000  0.5749730000000 1.0
C      1  0.4075700000000  0.5395960000000  0.4598760000000 1.0
C      1  0.5224850000000  0.5250090000000  0.5159170000000 1.0
C      1  0.4611240000000  0.6092010000000  0.4679290000000 1.0
C      1  0.5093750000000  0.4479870000000  0.4629140000000 1.0
C      1  0.5734810000000  0.4881510000000  0.4681160000000 1.0
C      1  0.5082330000000  0.3985440000000  0.5037600000000 1.0
C      1  0.5652980000000  0.4478850000000  0.5781930000000 1.0
C      1  0.5630370000000  0.5124810000000  0.4109140000000 1.0
C      1  0.5148540000000  0.5678000000000  0.5662660000000 1.0
C      1  0.4672230000000  0.5286450000000  0.4723610000000 1.0
C      1  0.4665190000000  0.4158900000000  0.4835110000000 1.0
C      1  0.4295370000000  0.4906850000000  0.5631430000000 1.0
C      1  0.5843090000000  0.5127800000000  0.5738940000000 1.0
C      1  0.5054110000000  0.5386400000000  0.4155660000000 1.0
C      1  0.4875010000000  0.4781870000000  0.5517950000000 1.0
C      1  0.6076080000000  0.4949430000000  0.4002190000000 1.0
C      1  0.5334290000000  0.4157970000000  0.5486670000000 1.0
C      1  0.4036230000000  0.4578820000000  0.5008840000000 1.0
C      1  0.4144090000000  0.5523020000000  0.4850690000000 1.0
C      1  0.5073410000000  0.5039590000000  0.6151770000000 1.0
C      1  0.5424320000000  0.5672930000000  0.5728590000000 1.0
C      1  0.5608410000000  0.4415580000000  0.4748400000000 1.0
C      1  0.5870340000000  0.5964100000000  0.5152160000000 1.0
C      1  0.5641340000000  0.5557780000000  0.5303670000000 1.0
C      1  0.4344110000000  0.4404810000000  0.5308000000000 1.0
C      1  0.4778460000000  0.5478790000000  0.4167490000000 1.0
C      1  0.5203950000000  0.5403350000000  0.4607200000000 1.0
C      1  0.5015360000000  0.4723370000000  0.4519050000000 1.0
C      1  0.5314590000000  0.5147110000000  0.4611200000000 1.0
C      1  0.5090990000000  0.4164440000000  0.5668770000000 1.0
C      1  0.5217850000000  0.4316620000000  0.4431420000000 1.0
C      1  0.5313990000000  0.5915210000000  0.4898420000000 1.0
C      1  0.4766540000000  0.4402460000000  0.4958670000000 1.0
C      1  0.5397710000000  0.5878060000000  0.4637030000000 1.0
C      1  0.5205750000000  0.5887760000000  0.5151590000000 1.0
C      1  0.4594270000000  0.5163110000000  0.4498870000000 1.0
C      1  0.5253430000000  0.5075950000000  0.5585940000000 1.0
C      1  0.5627490000000  0.5652570000000  0.4213280000000 1.0
C      1  0.4901740000000  0.4072990000000  0.5242560000000 1.0
C      1  0.6161860000000  0.5280540000000  0.5044710000000 1.0
C      1  0.5529760000000  0.4198970000000  0.4937480000000 1.0
C      1  0.5372040000000  0.5158660000000  0.5834460000000 1.0
C      1  0.4068610000000  0.4965000000000  0.4363660000000 1.0
C      1  0.4823390000000  0.5366900000000  0.5430000000000 1.0
C      1  0.5115350000000  0.5809150000000  0.5401140000000 1.0
C      1  0.4015080000000  0.5344310000000  0.5040460000000 1.0
C      1  0.5140990000000  0.4795640000000  0.6054100000000 1.0
C      1  0.4371800000000  0.4366530000000  0.5602670000000 1.0
C      1  0.5862630000000  0.5691980000000  0.5175260000000 1.0
C      1  0.4488630000000  0.4901170000000  0.4500420000000 1.0
C      1  0.5034960000000  0.4409570000000  0.5815300000000 1.0
C      1  0.4462740000000  0.5148740000000  0.5145230000000 1.0
C      1  0.4819000000000  0.4030180000000  0.5669860000000 1.0
C      1  0.5920930000000  0.4887230000000  0.5266480000000 1.0
C      1  0.4528110000000  0.4676600000000  0.4650110000000 1.0
C      1  0.4096430000000  0.4903600000000  0.5402370000000 1.0
C      1  0.5873330000000  0.4984520000000  0.4181870000000 1.0
C      1  0.4198480000000  0.5756520000000  0.4231230000000 1.0
C      1  0.5946580000000  0.4964130000000  0.5535660000000 1.0
C      1  0.4470470000000  0.4891510000000  0.5169300000000 1.0
C      1  0.4829800000000  0.4626630000000  0.4018960000000 1.0
C      1  0.5096630000000  0.5086520000000  0.4074810000000 1.0
C      1  0.4604840000000  0.4218260000000  0.5740120000000 1.0
C      1  0.5151460000000  0.5265190000000  0.5997440000000 1.0
C      1  0.5435610000000  0.4705060000000  0.5307190000000 1.0
C      1  0.3910060000000  0.5427630000000  0.5283620000000 1.0
C      1  0.4429790000000  0.5769060000000  0.4377270000000 1.0
C      1  0.4724560000000  0.4664720000000  0.4855020000000 1.0
C      1  0.5701600000000  0.4665440000000  0.4869210000000 1.0
C      1  0.6097580000000  0.5024920000000  0.5093890000000 1.0
C      1  0.4735630000000  0.5309440000000  0.5704600000000 1.0
C      1  0.4511930000000  0.4640750000000  0.5275800000000 1.0
C      1  0.4540920000000  0.5762790000000  0.5484660000000 1.0
C      1  0.5454930000000  0.4682780000000  0.4234110000000 1.0
C      1  0.5633720000000  0.5285950000000  0.4919130000000 1.0
C      1  0.4426560000000  0.4422970000000  0.4558130000000 1.0
C      1  0.6074610000000  0.5530320000000  0.5083670000000 1.0
C      1  0.4550570000000  0.4338910000000  0.4312170000000 1.0
C      1  0.4784860000000  0.3897490000000  0.5425620000000 1.0
C      1  0.4855380000000  0.5967210000000  0.4289570000000 1.0
C      1  0.4550470000000  0.5028530000000  0.4071480000000 1.0
C      1  0.5084420000000  0.5057730000000  0.5000170000000 1.0
C      1  0.5643610000000  0.5566480000000  0.5588590000000 1.0
C      1  0.3831400000000  0.5518680000000  0.5514780000000 1.0
C      1  0.5837900000000  0.5407300000000  0.5715890000000 1.0
C      1  0.4756460000000  0.4421200000000  0.5901790000000 1.0
C      1  0.5184520000000  0.4648960000000  0.5808750000000 1.0
C      1  0.5560800000000  0.4285850000000  0.5612500000000 1.0
C      1  0.4891180000000  0.3972120000000  0.4812870000000 1.0
C      1  0.3987900000000  0.5070430000000  0.4921820000000 1.0
C      1  0.4332980000000  0.4903240000000  0.4250420000000 1.0
C      1  0.5623680000000  0.5011780000000  0.5881080000000 1.0
C      1  0.5213980000000  0.5525180000000  0.4352970000000 1.0
C      1  0.5183460000000  0.4491290000000  0.4891160000000 1.0
C      1  0.5694560000000  0.4740620000000  0.5163580000000 1.0
C      1  0.4437050000000  0.5867160000000  0.4652140000000 1.0
C      1  0.4690110000000  0.5739150000000  0.4247140000000 1.0
C      1  0.5487490000000  0.5374410000000  0.5141190000000 1.0
C      1  0.4492690000000  0.5131090000000  0.5710240000000 1.0
C      1  0.4659570000000  0.5582460000000  0.5312230000000 1.0
C      1  0.5569040000000  0.5106110000000  0.4720150000000 1.0
C      1  0.4887040000000  0.4884600000000  0.4939640000000 1.0
C      1  0.4849190000000  0.4352890000000  0.5227590000000 1.0
C      1  0.4014070000000  0.5107190000000  0.4614660000000 1.0
C      1  0.5032890000000  0.4240240000000  0.4231410000000 1.0
C      1  0.4792280000000  0.4381560000000  0.4160910000000 1.0
C      1  0.5476710000000  0.4448280000000  0.4418460000000 1.0
C      1  0.5413370000000  0.5734940000000  0.4382000000000 1.0
C      1  0.4227200000000  0.4356950000000  0.5034710000000 1.0
C      1  0.5052260000000  0.5528990000000  0.4803260000000 1.0
C      1  0.5098360000000  0.5247000000000  0.5410290000000 1.0
C      1  0.4606280000000  0.5269100000000  0.4231510000000 1.0
C      1  0.5345020000000  0.4083250000000  0.5137070000000 1.0
C      1  0.4384050000000  0.4244530000000  0.4791170000000 1.0
C      1  0.4370410000000  0.5697480000000  0.4877980000000 1.0
C      1  0.4604490000000  0.5616800000000  0.5035040000000 1.0
C      1  0.5385430000000  0.4956470000000  0.4118490000000 1.0
C      1  0.4970180000000  0.5439060000000  0.5851300000000 1.0
C      1  0.4567190000000  0.4628790000000  0.5951660000000 1.0
C      1  0.5888200000000  0.4884480000000  0.4445970000000 1.0
C      1  0.4013190000000  0.4849130000000  0.5113430000000 1.0
C      1  0.5256290000000  0.4581760000000  0.5128490000000 1.0
END
