TITL C-612607-4507-1131 0.000775169728181726 125000 -486.759649080128 0 0 79 (C1) n - 1
REM
REM in /home/nfs/bkarasulu/CARBON/AIRSS/Generating-Clusters/TERSOFF/Only-C1/FIRE-HFTN
REM
REM
REM
REM
REM
REM ./C.cell (11c1c37f851c82e70ff6c80c92926a4b)
REM AIRSS Version 0.9.1 bugfix July 2018 build 013d7b7c2542+ Fri, 06 Jul 2018 19:26:36 +0100
REM compiler GCC version 9.2.1 20190827 (Red Hat 9.2.1-1)
REM options -cpp -mtune=generic -march=x86-64 -g -O0 -fpre-include=/usr/include/finclude/math-vector-fortran.h
REM seed -2094165724 247511051 1528702245 -1198013519 -1354240271 -1155119025 1020278003 1306113299 -1907858126 1460137142 1973261087 465800449 142999630 -1306205213 -319181197 2128521658 -605341642 643528412 -1333394830 457725016 1017325529 1222748936 2070632591 388555673 -690004030 -458927952 -1851709961 -431130761 -633915410 1395239161 -1611502519 1578071277 1107339797
REM
CELL 1.54180   50.00000   50.00000   50.00000   90.00000   90.00000   90.00000
LATT -1
SFAC C  
C      1  0.4425280000000  0.4976040000000  0.4378480000000 1.0
C      1  0.5601270000000  0.4878890000000  0.5521560000000 1.0
C      1  0.5531250000000  0.5967150000000  0.5835760000000 1.0
C      1  0.5449810000000  0.5696080000000  0.4974920000000 1.0
C      1  0.4048710000000  0.5144890000000  0.4913140000000 1.0
C      1  0.5363300000000  0.4890680000000  0.5136810000000 1.0
C      1  0.4020020000000  0.4828430000000  0.4548160000000 1.0
C      1  0.5541490000000  0.6070040000000  0.5327300000000 1.0
C      1  0.5819880000000  0.4835710000000  0.5363240000000 1.0
C      1  0.5986430000000  0.5210670000000  0.4459140000000 1.0
C      1  0.5147560000000  0.5292770000000  0.4931350000000 1.0
C      1  0.4629100000000  0.5010790000000  0.5268660000000 1.0
C      1  0.4543890000000  0.4316720000000  0.5479960000000 1.0
C      1  0.4063100000000  0.5102550000000  0.4635910000000 1.0
C      1  0.4392680000000  0.4527180000000  0.5617990000000 1.0
C      1  0.4831560000000  0.4524440000000  0.5796430000000 1.0
C      1  0.5170010000000  0.5506960000000  0.4285280000000 1.0
C      1  0.5657570000000  0.5517320000000  0.4910170000000 1.0
C      1  0.5021460000000  0.4732770000000  0.5775850000000 1.0
C      1  0.5624150000000  0.5250930000000  0.4933670000000 1.0
C      1  0.5067200000000  0.4842100000000  0.5516210000000 1.0
C      1  0.3558310000000  0.4554640000000  0.4556970000000 1.0
C      1  0.5333070000000  0.4898600000000  0.5423100000000 1.0
C      1  0.4276020000000  0.4735040000000  0.5474720000000 1.0
C      1  0.5549910000000  0.6073640000000  0.5593040000000 1.0
C      1  0.5248540000000  0.5058450000000  0.6129430000000 1.0
C      1  0.4554870000000  0.4593420000000  0.5847530000000 1.0
C      1  0.4703490000000  0.5469130000000  0.4470480000000 1.0
C      1  0.5007160000000  0.4421830000000  0.4957490000000 1.0
C      1  0.5130100000000  0.4784020000000  0.4232200000000 1.0
C      1  0.5137540000000  0.4856420000000  0.5997490000000 1.0
C      1  0.5415690000000  0.4167620000000  0.4501300000000 1.0
C      1  0.4369460000000  0.5604280000000  0.4971210000000 1.0
C      1  0.5289080000000  0.4435890000000  0.4891880000000 1.0
C      1  0.5408270000000  0.4406550000000  0.4632770000000 1.0
C      1  0.5417720000000  0.4633020000000  0.5043170000000 1.0
C      1  0.5510730000000  0.5087370000000  0.4344410000000 1.0
C      1  0.4788170000000  0.5215540000000  0.4568430000000 1.0
C      1  0.4577400000000  0.5489620000000  0.5120540000000 1.0
C      1  0.5504950000000  0.5941060000000  0.5097320000000 1.0
C      1  0.5347510000000  0.5300730000000  0.6174450000000 1.0
C      1  0.4455430000000  0.4224160000000  0.4964290000000 1.0
C      1  0.5376190000000  0.5124970000000  0.4983960000000 1.0
C      1  0.4755210000000  0.5666700000000  0.5245470000000 1.0
C      1  0.4469930000000  0.4214150000000  0.5231080000000 1.0
C      1  0.6197320000000  0.5363050000000  0.4444810000000 1.0
C      1  0.4881910000000  0.5157710000000  0.4852650000000 1.0
C      1  0.6151630000000  0.4558090000000  0.4771160000000 1.0
C      1  0.5489640000000  0.5782220000000  0.6021800000000 1.0
C      1  0.4351220000000  0.4946100000000  0.5306920000000 1.0
C      1  0.4885380000000  0.4791790000000  0.4364480000000 1.0
C      1  0.4855080000000  0.4831080000000  0.5317300000000 1.0
C      1  0.4919180000000  0.4683490000000  0.5083180000000 1.0
C      1  0.5763920000000  0.5046910000000  0.4483180000000 1.0
C      1  0.5006900000000  0.5705740000000  0.5166600000000 1.0
C      1  0.4679060000000  0.5224310000000  0.5077760000000 1.0
C      1  0.4383460000000  0.4488710000000  0.4548420000000 1.0
C      1  0.5910210000000  0.4792710000000  0.5111920000000 1.0
C      1  0.4878120000000  0.4672940000000  0.4616260000000 1.0
C      1  0.5523630000000  0.4644910000000  0.4523340000000 1.0
C      1  0.4903700000000  0.4852060000000  0.4843820000000 1.0
C      1  0.5757950000000  0.4791430000000  0.4627820000000 1.0
C      1  0.4156180000000  0.5071770000000  0.5146850000000 1.0
C      1  0.4277760000000  0.5217880000000  0.4471140000000 1.0
C      1  0.4315990000000  0.5636620000000  0.4709810000000 1.0
C      1  0.4278310000000  0.4732860000000  0.4454120000000 1.0
C      1  0.4550300000000  0.4343700000000  0.4728110000000 1.0
C      1  0.4918140000000  0.5595350000000  0.4337150000000 1.0
C      1  0.5190330000000  0.5573580000000  0.5001430000000 1.0
C      1  0.5936950000000  0.4716550000000  0.4838030000000 1.0
C      1  0.5385630000000  0.4824020000000  0.4337650000000 1.0
C      1  0.4807860000000  0.4302470000000  0.5604420000000 1.0
C      1  0.4998940000000  0.4115230000000  0.5555860000000 1.0
C      1  0.3781490000000  0.4689010000000  0.4550140000000 1.0
C      1  0.4413210000000  0.5473230000000  0.4501610000000 1.0
C      1  0.4705470000000  0.5006000000000  0.4386750000000 1.0
C      1  0.5428160000000  0.5550880000000  0.6136730000000 1.0
C      1  0.4826670000000  0.4411760000000  0.4723230000000 1.0
C      1  0.5369790000000  0.5325910000000  0.4292830000000 1.0
END
