TITL C-612601-4209-262 -1972.48010913015 125000 -617.567260576716 0 0 100 (C1) n - 1
REM
REM in /home/nfs/bkarasulu/CARBON/AIRSS/Generating-Clusters/TERSOFF/Only-C1/FIRE-HFTN
REM
REM
REM
REM
REM
REM ./C.cell (11c1c37f851c82e70ff6c80c92926a4b)
REM AIRSS Version 0.9.1 bugfix July 2018 build 013d7b7c2542+ Fri, 06 Jul 2018 19:26:36 +0100
REM compiler GCC version 9.2.1 20190827 (Red Hat 9.2.1-1)
REM options -cpp -mtune=generic -march=x86-64 -g -O0 -fpre-include=/usr/include/finclude/math-vector-fortran.h
REM seed 1147568893 1283795850 492533322 -1149258689 -1959906866 -95626724 -1820462670 2000306094 1161803694 543702529 -841305203 1367522100 314535154 -1610114482 1854250299 -711484773 2086391440 -1980338978 859385361 1503109213 1069875493 -307593447 1850644939 1134224982 -1464251069 -465173676 469989278 -1887198952 -881823022 50061365 1703916241 1542710201 1673324044
REM
CELL 1.54180   50.00000   50.00000   50.00000   90.00000   90.00000   90.00000
LATT -1
SFAC C  
C      1  0.4466620000000  0.4452470000000  0.4203710000000 1.0
C      1  0.6185460000000  0.5310090000000  0.5399800000000 1.0
C      1  0.4683420000000  0.4421070000000  0.5725200000000 1.0
C      1  0.4514060000000  0.4196980000000  0.5700290000000 1.0
C      1  0.4946420000000  0.4234080000000  0.4663150000000 1.0
C      1  0.5096080000000  0.4804230000000  0.6052850000000 1.0
C      1  0.4396090000000  0.4109560000000  0.5473730000000 1.0
C      1  0.5019760000000  0.4819030000000  0.4432960000000 1.0
C      1  0.5582320000000  0.5708430000000  0.5274630000000 1.0
C      1  0.4243050000000  0.5202640000000  0.4434990000000 1.0
C      1  0.4796190000000  0.4836480000000  0.5122250000000 1.0
C      1  0.5347350000000  0.5747860000000  0.5123560000000 1.0
C      1  0.4434240000000  0.4644330000000  0.3997000000000 1.0
C      1  0.5857620000000  0.4754570000000  0.5354890000000 1.0
C      1  0.4112760000000  0.4648040000000  0.5063980000000 1.0
C      1  0.6253360000000  0.5057040000000  0.5347930000000 1.0
C      1  0.4961880000000  0.4382720000000  0.5666680000000 1.0
C      1  0.4619870000000  0.5691750000000  0.4919470000000 1.0
C      1  0.5162950000000  0.5207670000000  0.5196820000000 1.0
C      1  0.4550510000000  0.5176860000000  0.5798080000000 1.0
C      1  0.5098580000000  0.5674680000000  0.5243110000000 1.0
C      1  0.6128630000000  0.4821230000000  0.5317670000000 1.0
C      1  0.6038800000000  0.5790440000000  0.5391170000000 1.0
C      1  0.5202420000000  0.4250130000000  0.4779430000000 1.0
C      1  0.4971700000000  0.4642700000000  0.5219940000000 1.0
C      1  0.5699370000000  0.4965930000000  0.5450470000000 1.0
C      1  0.6732390000000  0.6161830000000  0.5544240000000 1.0
C      1  0.4732490000000  0.5964150000000  0.5327740000000 1.0
C      1  0.4952920000000  0.5269320000000  0.4284230000000 1.0
C      1  0.5139660000000  0.4358910000000  0.5883020000000 1.0
C      1  0.5782710000000  0.3951390000000  0.5899630000000 1.0
C      1  0.4380570000000  0.4250740000000  0.5229420000000 1.0
C      1  0.4702690000000  0.4284020000000  0.4191030000000 1.0
C      1  0.4641780000000  0.5198770000000  0.4910030000000 1.0
C      1  0.5418080000000  0.4335320000000  0.4910500000000 1.0
C      1  0.4799930000000  0.4969890000000  0.4870190000000 1.0
C      1  0.4694800000000  0.4928250000000  0.5785510000000 1.0
C      1  0.4611920000000  0.4633110000000  0.4612110000000 1.0
C      1  0.5187740000000  0.4551510000000  0.6065580000000 1.0
C      1  0.4287310000000  0.4519510000000  0.5253640000000 1.0
C      1  0.4975300000000  0.4951910000000  0.5845970000000 1.0
C      1  0.5369270000000  0.5143900000000  0.4522510000000 1.0
C      1  0.4328770000000  0.5112790000000  0.5056110000000 1.0
C      1  0.5051450000000  0.4576200000000  0.4285260000000 1.0
C      1  0.4820900000000  0.4814780000000  0.4639700000000 1.0
C      1  0.4557810000000  0.4906490000000  0.5254450000000 1.0
C      1  0.4864230000000  0.4318890000000  0.3951430000000 1.0
C      1  0.4751610000000  0.5442910000000  0.4987650000000 1.0
C      1  0.4727230000000  0.4156610000000  0.4824470000000 1.0
C      1  0.4996490000000  0.5430090000000  0.5135630000000 1.0
C      1  0.4175760000000  0.5397980000000  0.4634970000000 1.0
C      1  0.5796640000000  0.4119580000000  0.5695250000000 1.0
C      1  0.5149620000000  0.5873290000000  0.4676310000000 1.0
C      1  0.5040890000000  0.4467770000000  0.5410250000000 1.0
C      1  0.5006970000000  0.4759570000000  0.3807550000000 1.0
C      1  0.5790270000000  0.5906020000000  0.5305370000000 1.0
C      1  0.5791520000000  0.4296250000000  0.5497970000000 1.0
C      1  0.5763760000000  0.3788490000000  0.6102300000000 1.0
C      1  0.4834160000000  0.5623190000000  0.5652820000000 1.0
C      1  0.4783130000000  0.4914750000000  0.3744630000000 1.0
C      1  0.5139810000000  0.5106040000000  0.5678050000000 1.0
C      1  0.5398840000000  0.5006080000000  0.4766390000000 1.0
C      1  0.4966480000000  0.5807210000000  0.4490950000000 1.0
C      1  0.4727180000000  0.5662000000000  0.4454800000000 1.0
C      1  0.4758880000000  0.5178920000000  0.3630930000000 1.0
C      1  0.4152940000000  0.4673300000000  0.4545570000000 1.0
C      1  0.4054160000000  0.4578850000000  0.4795610000000 1.0
C      1  0.4102140000000  0.4927180000000  0.5106790000000 1.0
C      1  0.5987560000000  0.5505600000000  0.5412700000000 1.0
C      1  0.4707930000000  0.5406590000000  0.4323530000000 1.0
C      1  0.4529940000000  0.4168820000000  0.5004860000000 1.0
C      1  0.4578930000000  0.4684220000000  0.5670810000000 1.0
C      1  0.4529920000000  0.5719910000000  0.4650480000000 1.0
C      1  0.4444270000000  0.4708130000000  0.5415850000000 1.0
C      1  0.5750760000000  0.4496430000000  0.5306700000000 1.0
C      1  0.4456030000000  0.5165330000000  0.3985660000000 1.0
C      1  0.6505440000000  0.6043670000000  0.5494240000000 1.0
C      1  0.5133590000000  0.5075060000000  0.4377480000000 1.0
C      1  0.5357590000000  0.5764850000000  0.4834130000000 1.0
C      1  0.4922930000000  0.5787340000000  0.5439400000000 1.0
C      1  0.4597810000000  0.5903820000000  0.5102310000000 1.0
C      1  0.4541020000000  0.4890120000000  0.3916080000000 1.0
C      1  0.4126640000000  0.4943600000000  0.4458310000000 1.0
C      1  0.5597230000000  0.4437380000000  0.5079150000000 1.0
C      1  0.4460020000000  0.5265880000000  0.4251740000000 1.0
C      1  0.4283870000000  0.5179490000000  0.5859960000000 1.0
C      1  0.4261800000000  0.5662560000000  0.4591500000000 1.0
C      1  0.4393750000000  0.4549700000000  0.4460330000000 1.0
C      1  0.5698720000000  0.5456580000000  0.5380860000000 1.0
C      1  0.4908520000000  0.4337530000000  0.4401790000000 1.0
C      1  0.4176510000000  0.5320610000000  0.4906720000000 1.0
C      1  0.5286130000000  0.5047670000000  0.5003510000000 1.0
C      1  0.5282550000000  0.5193240000000  0.5455060000000 1.0
C      1  0.5505860000000  0.5389610000000  0.4515580000000 1.0
C      1  0.4688240000000  0.5420160000000  0.5749750000000 1.0
C      1  0.4563390000000  0.5322810000000  0.3764690000000 1.0
C      1  0.5567110000000  0.5213770000000  0.5449220000000 1.0
C      1  0.5530460000000  0.5598380000000  0.4683780000000 1.0
C      1  0.6275170000000  0.5922850000000  0.5443550000000 1.0
C      1  0.5039590000000  0.4549540000000  0.3990000000000 1.0
END
