TITL C-612606-7351-1399 1.28419874766989 125000 -570.152166661418 0 0 95 (C1) n - 1
REM
REM in /home/nfs/bkarasulu/CARBON/AIRSS/Generating-Clusters/TERSOFF/Only-C1/FIRE-HFTN
REM
REM
REM
REM
REM
REM ./C.cell (11c1c37f851c82e70ff6c80c92926a4b)
REM AIRSS Version 0.9.1 bugfix July 2018 build 013d7b7c2542+ Fri, 06 Jul 2018 19:26:36 +0100
REM compiler GCC version 9.2.1 20190827 (Red Hat 9.2.1-1)
REM options -cpp -mtune=generic -march=x86-64 -g -O0 -fpre-include=/usr/include/finclude/math-vector-fortran.h
REM seed 852417450 1754442079 -1762408882 1304012098 144698076 -1938349741 -1466541983 -637584559 -156385015 -1904191927 -469788287 -1725917478 -6817623 2131264260 1461485336 -462237537 1824328057 718363861 23866035 -1949127510 -198005191 975804649 -381040968 -592110471 1001678058 -1904703330 -2064292072 -78660888 1216542492 1585265941 -1060681804 -350575915 -1507589884
REM
CELL 1.54180   50.00000   50.00000   50.00000   90.00000   90.00000   90.00000
LATT -1
SFAC C  
C      1  0.4367180000000  0.4897330000000  0.5279740000000 1.0
C      1  0.4853310000000  0.5271230000000  0.4857890000000 1.0
C      1  0.5933550000000  0.5193930000000  0.5585310000000 1.0
C      1  0.5189100000000  0.5459320000000  0.4277970000000 1.0
C      1  0.5539350000000  0.5082390000000  0.5794560000000 1.0
C      1  0.5432230000000  0.4620970000000  0.4718170000000 1.0
C      1  0.5363550000000  0.5354150000000  0.4077150000000 1.0
C      1  0.4827940000000  0.4858160000000  0.5028780000000 1.0
C      1  0.5826350000000  0.4606740000000  0.5081360000000 1.0
C      1  0.5662050000000  0.5827010000000  0.5004950000000 1.0
C      1  0.4629700000000  0.5902240000000  0.4361160000000 1.0
C      1  0.4897590000000  0.4389080000000  0.4573380000000 1.0
C      1  0.5925690000000  0.5458080000000  0.5009320000000 1.0
C      1  0.4524980000000  0.5235600000000  0.4167000000000 1.0
C      1  0.5012360000000  0.4538270000000  0.4774190000000 1.0
C      1  0.5347060000000  0.4013180000000  0.5461330000000 1.0
C      1  0.4523720000000  0.4817170000000  0.5705040000000 1.0
C      1  0.4434670000000  0.4422170000000  0.5370980000000 1.0
C      1  0.4413320000000  0.4694450000000  0.5470930000000 1.0
C      1  0.5356360000000  0.4740730000000  0.4469160000000 1.0
C      1  0.4781000000000  0.5132000000000  0.5115780000000 1.0
C      1  0.4378560000000  0.5549480000000  0.4662230000000 1.0
C      1  0.5891700000000  0.4393710000000  0.4922580000000 1.0
C      1  0.5708300000000  0.4237190000000  0.4792610000000 1.0
C      1  0.4602880000000  0.5574910000000  0.5382330000000 1.0
C      1  0.5022340000000  0.4531350000000  0.5440610000000 1.0
C      1  0.4673890000000  0.4145040000000  0.5736830000000 1.0
C      1  0.4896930000000  0.4233660000000  0.5061020000000 1.0
C      1  0.3943980000000  0.5369880000000  0.4937760000000 1.0
C      1  0.5480450000000  0.5601990000000  0.4949810000000 1.0
C      1  0.4365230000000  0.5617900000000  0.4947680000000 1.0
C      1  0.4740150000000  0.6173040000000  0.5018170000000 1.0
C      1  0.5146160000000  0.6101300000000  0.4834900000000 1.0
C      1  0.4358850000000  0.4822100000000  0.4362310000000 1.0
C      1  0.4958520000000  0.6294910000000  0.4899150000000 1.0
C      1  0.4625340000000  0.4272170000000  0.4916830000000 1.0
C      1  0.5239890000000  0.4917470000000  0.3903660000000 1.0
C      1  0.5365280000000  0.4740440000000  0.4985660000000 1.0
C      1  0.5098310000000  0.5372320000000  0.4758330000000 1.0
C      1  0.4741060000000  0.5381890000000  0.4111380000000 1.0
C      1  0.5482930000000  0.4444200000000  0.5364540000000 1.0
C      1  0.4626680000000  0.5063800000000  0.5757540000000 1.0
C      1  0.4965400000000  0.4458220000000  0.4309710000000 1.0
C      1  0.4879910000000  0.4319110000000  0.5339500000000 1.0
C      1  0.5664440000000  0.5371950000000  0.4958490000000 1.0
C      1  0.5374330000000  0.4194620000000  0.5241330000000 1.0
C      1  0.4426360000000  0.5356560000000  0.5379680000000 1.0
C      1  0.4781010000000  0.5884680000000  0.5032350000000 1.0
C      1  0.4356510000000  0.5114250000000  0.4360120000000 1.0
C      1  0.5358900000000  0.4152100000000  0.5716770000000 1.0
C      1  0.4619940000000  0.4355580000000  0.4625220000000 1.0
C      1  0.5209570000000  0.5273040000000  0.4510390000000 1.0
C      1  0.4011880000000  0.5239620000000  0.4708460000000 1.0
C      1  0.4251850000000  0.5297270000000  0.4564470000000 1.0
C      1  0.4941090000000  0.5563320000000  0.4195250000000 1.0
C      1  0.5943500000000  0.4923910000000  0.5645150000000 1.0
C      1  0.4631230000000  0.4855710000000  0.4799940000000 1.0
C      1  0.5319000000000  0.5674490000000  0.5575820000000 1.0
C      1  0.4504310000000  0.4573230000000  0.4360930000000 1.0
C      1  0.4858350000000  0.5826630000000  0.4243120000000 1.0
C      1  0.5924090000000  0.5735030000000  0.5038310000000 1.0
C      1  0.4784600000000  0.4689380000000  0.3932200000000 1.0
C      1  0.5370690000000  0.5068410000000  0.4101450000000 1.0
C      1  0.4242820000000  0.4555890000000  0.4940650000000 1.0
C      1  0.5052350000000  0.5673060000000  0.5567590000000 1.0
C      1  0.5433470000000  0.4323530000000  0.4777980000000 1.0
C      1  0.4883210000000  0.4097570000000  0.5898840000000 1.0
C      1  0.4517040000000  0.5132260000000  0.5242310000000 1.0
C      1  0.4444020000000  0.5762610000000  0.4492170000000 1.0
C      1  0.5550120000000  0.5545110000000  0.5607990000000 1.0
C      1  0.5696850000000  0.4837170000000  0.5770240000000 1.0
C      1  0.4707380000000  0.5102520000000  0.4670250000000 1.0
C      1  0.5151560000000  0.4110010000000  0.5899990000000 1.0
C      1  0.5492040000000  0.4407780000000  0.5652970000000 1.0
C      1  0.4105840000000  0.5556480000000  0.5052840000000 1.0
C      1  0.4402340000000  0.4371590000000  0.5084150000000 1.0
C      1  0.5288120000000  0.5120570000000  0.5905180000000 1.0
C      1  0.5680290000000  0.5306370000000  0.5664190000000 1.0
C      1  0.4367530000000  0.4762050000000  0.4820180000000 1.0
C      1  0.5047930000000  0.5232300000000  0.5889350000000 1.0
C      1  0.5620730000000  0.4575880000000  0.5839800000000 1.0
C      1  0.5052600000000  0.5835940000000  0.4916040000000 1.0
C      1  0.4584760000000  0.5706420000000  0.5123190000000 1.0
C      1  0.4811900000000  0.5526630000000  0.5575410000000 1.0
C      1  0.5330240000000  0.5017260000000  0.4394950000000 1.0
C      1  0.5241160000000  0.4215600000000  0.4986960000000 1.0
C      1  0.5560230000000  0.4649900000000  0.5182740000000 1.0
C      1  0.4731570000000  0.4556830000000  0.4173560000000 1.0
C      1  0.5674850000000  0.4483570000000  0.6092150000000 1.0
C      1  0.5073710000000  0.4731860000000  0.4975210000000 1.0
C      1  0.5002960000000  0.4812340000000  0.3834370000000 1.0
C      1  0.5208790000000  0.5603550000000  0.4882060000000 1.0
C      1  0.5226780000000  0.4559990000000  0.4287120000000 1.0
C      1  0.4810680000000  0.5283020000000  0.5744820000000 1.0
C      1  0.4640680000000  0.4264280000000  0.5486030000000 1.0
END
