TITL C-612604-1799-29 -0.00435179358259635 125000 -469.324296432752 0 0 77 (C1) n - 1
REM
REM in /home/nfs/bkarasulu/CARBON/AIRSS/Generating-Clusters/TERSOFF/Only-C1/FIRE-HFTN
REM
REM
REM
REM
REM
REM ./C.cell (11c1c37f851c82e70ff6c80c92926a4b)
REM AIRSS Version 0.9.1 bugfix July 2018 build 013d7b7c2542+ Fri, 06 Jul 2018 19:26:36 +0100
REM compiler GCC version 9.2.1 20190827 (Red Hat 9.2.1-1)
REM options -cpp -mtune=generic -march=x86-64 -g -O0 -fpre-include=/usr/include/finclude/math-vector-fortran.h
REM seed 158324796 -790580334 1628169759 -658239980 187221544 72500248 978211754 -1575450707 -780020039 -902323585 -669296085 -1188577716 1632879243 1388280145 -1453153806 1354847122 1512021783 -1729460234 -102281354 -1705515376 -274414225 719906996 -1312769581 -1552219414 -340163915 -221785693 1796721953 636926368 -493777191 -28909420 -1079232854 1825515195 156727929
REM
CELL 1.54180   50.00000   50.00000   50.00000   90.00000   90.00000   90.00000
LATT -1
SFAC C  
C      1  0.4214190000000  0.5611410000000  0.4610380000000 1.0
C      1  0.4746660000000  0.5011510000000  0.4296330000000 1.0
C      1  0.5565740000000  0.4290080000000  0.5369620000000 1.0
C      1  0.4519830000000  0.4530250000000  0.4533310000000 1.0
C      1  0.4248790000000  0.4858220000000  0.4789070000000 1.0
C      1  0.5347800000000  0.6312760000000  0.4888710000000 1.0
C      1  0.4473760000000  0.4505530000000  0.5015240000000 1.0
C      1  0.5039070000000  0.5166600000000  0.4891560000000 1.0
C      1  0.4523080000000  0.4386110000000  0.4776180000000 1.0
C      1  0.5741470000000  0.6032530000000  0.4800290000000 1.0
C      1  0.3906850000000  0.5252140000000  0.4756020000000 1.0
C      1  0.5067770000000  0.4902530000000  0.4755070000000 1.0
C      1  0.4387350000000  0.4775700000000  0.5029270000000 1.0
C      1  0.4755380000000  0.5657280000000  0.5276490000000 1.0
C      1  0.5169500000000  0.4707020000000  0.4267550000000 1.0
C      1  0.5149270000000  0.4850910000000  0.5285700000000 1.0
C      1  0.5197130000000  0.5345010000000  0.4703230000000 1.0
C      1  0.5269110000000  0.5447690000000  0.4217210000000 1.0
C      1  0.5135200000000  0.4884680000000  0.5571450000000 1.0
C      1  0.5161710000000  0.4213730000000  0.4728710000000 1.0
C      1  0.5099810000000  0.6409310000000  0.4904300000000 1.0
C      1  0.4465470000000  0.4966160000000  0.4347490000000 1.0
C      1  0.3982530000000  0.5496930000000  0.4679240000000 1.0
C      1  0.5130360000000  0.5124060000000  0.5172170000000 1.0
C      1  0.4705050000000  0.6160200000000  0.5102800000000 1.0
C      1  0.5155750000000  0.5527980000000  0.3981310000000 1.0
C      1  0.5054840000000  0.5158560000000  0.5630340000000 1.0
C      1  0.5285280000000  0.4252280000000  0.5376630000000 1.0
C      1  0.5082100000000  0.4668170000000  0.5744060000000 1.0
C      1  0.5134970000000  0.3672840000000  0.5190830000000 1.0
C      1  0.4815890000000  0.5186280000000  0.5778620000000 1.0
C      1  0.5722930000000  0.5855580000000  0.4584240000000 1.0
C      1  0.5588890000000  0.4417660000000  0.4859520000000 1.0
C      1  0.5714490000000  0.5274110000000  0.4140510000000 1.0
C      1  0.4854200000000  0.6348490000000  0.4988120000000 1.0
C      1  0.5168160000000  0.4664610000000  0.4851240000000 1.0
C      1  0.5980370000000  0.6147290000000  0.4867550000000 1.0
C      1  0.5551350000000  0.5463480000000  0.4251790000000 1.0
C      1  0.5658170000000  0.5672880000000  0.4403580000000 1.0
C      1  0.4747670000000  0.5253940000000  0.4880140000000 1.0
C      1  0.5325630000000  0.3577360000000  0.5351040000000 1.0
C      1  0.4891860000000  0.4759780000000  0.4269730000000 1.0
C      1  0.5334640000000  0.4461150000000  0.4698200000000 1.0
C      1  0.4729370000000  0.4533220000000  0.4343450000000 1.0
C      1  0.4582930000000  0.5223990000000  0.5110590000000 1.0
C      1  0.5785360000000  0.4011630000000  0.5691180000000 1.0
C      1  0.4472410000000  0.5549000000000  0.4588750000000 1.0
C      1  0.5413000000000  0.5912450000000  0.5144610000000 1.0
C      1  0.5715590000000  0.3758490000000  0.5636880000000 1.0
C      1  0.4560990000000  0.5449790000000  0.5288780000000 1.0
C      1  0.5091520000000  0.5315660000000  0.5386500000000 1.0
C      1  0.5667730000000  0.4357970000000  0.5113120000000 1.0
C      1  0.5507050000000  0.6090040000000  0.4949040000000 1.0
C      1  0.4353090000000  0.4478290000000  0.5635890000000 1.0
C      1  0.4016400000000  0.5012380000000  0.4796520000000 1.0
C      1  0.4522990000000  0.4912740000000  0.5499840000000 1.0
C      1  0.5050860000000  0.4142520000000  0.4981260000000 1.0
C      1  0.5237510000000  0.5765310000000  0.5279030000000 1.0
C      1  0.4674490000000  0.5360650000000  0.4623670000000 1.0
C      1  0.4839750000000  0.5259390000000  0.4405980000000 1.0
C      1  0.4559220000000  0.5150970000000  0.5661870000000 1.0
C      1  0.5029080000000  0.5585440000000  0.5329120000000 1.0
C      1  0.4451220000000  0.5384130000000  0.5541790000000 1.0
C      1  0.5119520000000  0.4617200000000  0.5126300000000 1.0
C      1  0.4371620000000  0.4780480000000  0.4541110000000 1.0
C      1  0.5110070000000  0.5352310000000  0.4429050000000 1.0
C      1  0.4559900000000  0.4657240000000  0.5624360000000 1.0
C      1  0.5021820000000  0.3873850000000  0.5056170000000 1.0
C      1  0.5301910000000  0.4537620000000  0.5861440000000 1.0
C      1  0.4493860000000  0.4964320000000  0.5213320000000 1.0
C      1  0.4681120000000  0.5917090000000  0.5207050000000 1.0
C      1  0.5344390000000  0.4564910000000  0.4419090000000 1.0
C      1  0.5676760000000  0.4263870000000  0.5631120000000 1.0
C      1  0.4809720000000  0.4593780000000  0.5744030000000 1.0
C      1  0.5098950000000  0.4338830000000  0.5188640000000 1.0
C      1  0.5538470000000  0.3604370000000  0.5509500000000 1.0
C      1  0.5541210000000  0.4419260000000  0.5826110000000 1.0
END
