TITL C-612604-1799-839 0.925959634635935 125000 -253.414162823564 0 0 43 (C1) n - 1
REM
REM in /home/nfs/bkarasulu/CARBON/AIRSS/Generating-Clusters/TERSOFF/Only-C1/FIRE-HFTN
REM
REM
REM
REM
REM
REM ./C.cell (11c1c37f851c82e70ff6c80c92926a4b)
REM AIRSS Version 0.9.1 bugfix July 2018 build 013d7b7c2542+ Fri, 06 Jul 2018 19:26:36 +0100
REM compiler GCC version 9.2.1 20190827 (Red Hat 9.2.1-1)
REM options -cpp -mtune=generic -march=x86-64 -g -O0 -fpre-include=/usr/include/finclude/math-vector-fortran.h
REM seed 590268426 149618570 -221313308 -64943442 916478010 -1404868434 1303629678 -437443103 -1284414083 19396055 1796745353 262505478 -66041620 -1976913956 -2107216400 699890501 1747030719 1309991826 26500745 -1002340103 650357030 -1394180544 1150409080 -1599034461 1769470184 1358727265 -58950096 -1460931099 -2044125570 1788632266 -1190460727 -1688930792 2005986849
REM
CELL 1.54180   50.00000   50.00000   50.00000   90.00000   90.00000   90.00000
LATT -1
SFAC C  
C      1  0.4854610000000  0.5520940000000  0.5010280000000 1.0
C      1  0.4478290000000  0.5278080000000  0.4744350000000 1.0
C      1  0.4855290000000  0.6233120000000  0.4773530000000 1.0
C      1  0.4539910000000  0.4930710000000  0.5216960000000 1.0
C      1  0.4309200000000  0.5070910000000  0.5137080000000 1.0
C      1  0.4561080000000  0.4760010000000  0.5439300000000 1.0
C      1  0.5257760000000  0.5600150000000  0.4784190000000 1.0
C      1  0.5361870000000  0.5007380000000  0.6496750000000 1.0
C      1  0.4766910000000  0.4591930000000  0.5488290000000 1.0
C      1  0.5392960000000  0.4916320000000  0.5712010000000 1.0
C      1  0.5156640000000  0.5280280000000  0.4399340000000 1.0
C      1  0.5475470000000  0.4664940000000  0.4597780000000 1.0
C      1  0.5383950000000  0.4947200000000  0.5974910000000 1.0
C      1  0.5845800000000  0.4909210000000  0.5152310000000 1.0
C      1  0.5624440000000  0.4887040000000  0.5288050000000 1.0
C      1  0.5486750000000  0.4833500000000  0.4372840000000 1.0
C      1  0.5003960000000  0.5042920000000  0.5157310000000 1.0
C      1  0.5416520000000  0.4492710000000  0.4792570000000 1.0
C      1  0.4766070000000  0.4946510000000  0.5031780000000 1.0
C      1  0.4874110000000  0.5257760000000  0.4415450000000 1.0
C      1  0.5277870000000  0.5505720000000  0.4520530000000 1.0
C      1  0.5313900000000  0.5053730000000  0.4347220000000 1.0
C      1  0.4687820000000  0.5150350000000  0.4596530000000 1.0
C      1  0.5387150000000  0.4880220000000  0.5435090000000 1.0
C      1  0.4587970000000  0.5474430000000  0.4922980000000 1.0
C      1  0.5053360000000  0.5317050000000  0.5110210000000 1.0
C      1  0.5372830000000  0.4977540000000  0.6237990000000 1.0
C      1  0.4497760000000  0.4418100000000  0.4948710000000 1.0
C      1  0.4778120000000  0.4373050000000  0.4916800000000 1.0
C      1  0.4778510000000  0.4921350000000  0.4741450000000 1.0
C      1  0.4930750000000  0.5988070000000  0.4820080000000 1.0
C      1  0.5003530000000  0.4407630000000  0.5098480000000 1.0
C      1  0.4311460000000  0.4581020000000  0.4834350000000 1.0
C      1  0.4232580000000  0.4828030000000  0.4748460000000 1.0
C      1  0.4996280000000  0.4585490000000  0.5323210000000 1.0
C      1  0.5304400000000  0.5408920000000  0.4997410000000 1.0
C      1  0.5669440000000  0.4782170000000  0.4175280000000 1.0
C      1  0.4280570000000  0.5091770000000  0.4853320000000 1.0
C      1  0.4855260000000  0.4438810000000  0.4649960000000 1.0
C      1  0.5006910000000  0.5726350000000  0.4866270000000 1.0
C      1  0.4863100000000  0.4701030000000  0.4589570000000 1.0
C      1  0.5258450000000  0.4378850000000  0.4976200000000 1.0
C      1  0.5140380000000  0.4838720000000  0.5304820000000 1.0
END
