TITL C-612600-6631-524 1807.53611908301 125000 -891.248786641005 0 0 145 (C1) n - 1
REM
REM in /home/nfs/bkarasulu/CARBON/AIRSS/Generating-Clusters/TERSOFF/Only-C1/FIRE-HFTN
REM
REM
REM
REM
REM
REM ./C.cell (11c1c37f851c82e70ff6c80c92926a4b)
REM AIRSS Version 0.9.1 bugfix July 2018 build 013d7b7c2542+ Fri, 06 Jul 2018 19:26:36 +0100
REM compiler GCC version 9.2.1 20190827 (Red Hat 9.2.1-1)
REM options -cpp -mtune=generic -march=x86-64 -g -O0 -fpre-include=/usr/include/finclude/math-vector-fortran.h
REM seed 622245068 -1965858774 2038431691 664135837 387707860 1761721620 -850026783 -599436264 89230791 983276130 -356186107 -133346382 483827536 311558423 1202521829 -155538369 -279440335 178946224 -1945622950 -239614902 -88191849 2085523983 -1083624254 299897251 -1911024515 -2015668621 1149300982 2040992904 -2073850517 -1514893709 -1334933891 751016107 670716408
REM
CELL 1.54180   50.00000   50.00000   50.00000   90.00000   90.00000   90.00000
LATT -1
SFAC C  
C      1  0.5287220000000  0.5624250000000  0.5849350000000 1.0
C      1  0.5128830000000  0.6008310000000  0.5550740000000 1.0
C      1  0.4918590000000  0.3988460000000  0.4691390000000 1.0
C      1  0.5801730000000  0.5037870000000  0.5467410000000 1.0
C      1  0.5763090000000  0.4738730000000  0.4691580000000 1.0
C      1  0.5637180000000  0.5282600000000  0.6121600000000 1.0
C      1  0.5063190000000  0.4793880000000  0.6019060000000 1.0
C      1  0.5950500000000  0.5265420000000  0.5391090000000 1.0
C      1  0.3870950000000  0.4399680000000  0.4924490000000 1.0
C      1  0.5308740000000  0.5721180000000  0.5219370000000 1.0
C      1  0.3594410000000  0.4813540000000  0.4855950000000 1.0
C      1  0.5625170000000  0.5121960000000  0.4936160000000 1.0
C      1  0.4645230000000  0.5150270000000  0.4094060000000 1.0
C      1  0.4818770000000  0.5927030000000  0.4587340000000 1.0
C      1  0.5258770000000  0.4940130000000  0.6178310000000 1.0
C      1  0.5421360000000  0.4062560000000  0.4532540000000 1.0
C      1  0.5222140000000  0.5760250000000  0.4343990000000 1.0
C      1  0.4784520000000  0.4310900000000  0.4946270000000 1.0
C      1  0.5155780000000  0.5064680000000  0.4009620000000 1.0
C      1  0.5746380000000  0.4535540000000  0.5453540000000 1.0
C      1  0.5302890000000  0.4719020000000  0.4560750000000 1.0
C      1  0.4995660000000  0.5119480000000  0.4735760000000 1.0
C      1  0.4768600000000  0.5481540000000  0.5149450000000 1.0
C      1  0.5288070000000  0.5212620000000  0.5404980000000 1.0
C      1  0.4734820000000  0.5459610000000  0.4677730000000 1.0
C      1  0.5515190000000  0.5074140000000  0.5538560000000 1.0
C      1  0.3756620000000  0.5578880000000  0.4794840000000 1.0
C      1  0.3999180000000  0.4646660000000  0.5387470000000 1.0
C      1  0.4651380000000  0.5006740000000  0.4340220000000 1.0
C      1  0.4367520000000  0.6064720000000  0.4779070000000 1.0
C      1  0.4904860000000  0.4249770000000  0.5557120000000 1.0
C      1  0.5466210000000  0.4482990000000  0.4989690000000 1.0
C      1  0.5318510000000  0.4980340000000  0.4440110000000 1.0
C      1  0.4754170000000  0.4773900000000  0.4900050000000 1.0
C      1  0.5170960000000  0.4534220000000  0.5910000000000 1.0
C      1  0.4200070000000  0.5101900000000  0.4898080000000 1.0
C      1  0.5154640000000  0.4575670000000  0.3970920000000 1.0
C      1  0.4838390000000  0.4231300000000  0.4232380000000 1.0
C      1  0.6367270000000  0.4345140000000  0.5034740000000 1.0
C      1  0.6087160000000  0.4727670000000  0.5164720000000 1.0
C      1  0.5572810000000  0.5633770000000  0.5778120000000 1.0
C      1  0.6107090000000  0.4446640000000  0.5067950000000 1.0
C      1  0.5171780000000  0.4489310000000  0.5031880000000 1.0
C      1  0.5316850000000  0.4696990000000  0.5390980000000 1.0
C      1  0.5422760000000  0.4028010000000  0.4816170000000 1.0
C      1  0.4870760000000  0.4986110000000  0.5900780000000 1.0
C      1  0.5333310000000  0.4013780000000  0.5395010000000 1.0
C      1  0.4854060000000  0.5627750000000  0.5645360000000 1.0
C      1  0.4434520000000  0.5125170000000  0.5290620000000 1.0
C      1  0.5176770000000  0.5061700000000  0.5171650000000 1.0
C      1  0.4447670000000  0.5359660000000  0.4091470000000 1.0
C      1  0.6609850000000  0.4256190000000  0.5000730000000 1.0
C      1  0.5261990000000  0.5196420000000  0.4246900000000 1.0
C      1  0.6085250000000  0.4945420000000  0.4969360000000 1.0
C      1  0.5966050000000  0.5476720000000  0.5200710000000 1.0
C      1  0.5145840000000  0.3961210000000  0.4914550000000 1.0
C      1  0.4277170000000  0.4939170000000  0.5125040000000 1.0
C      1  0.4510650000000  0.5356090000000  0.5129680000000 1.0
C      1  0.5200430000000  0.5484500000000  0.5353650000000 1.0
C      1  0.4506950000000  0.6213850000000  0.4973850000000 1.0
C      1  0.5593590000000  0.4399450000000  0.5669730000000 1.0
C      1  0.5411190000000  0.5899270000000  0.4530990000000 1.0
C      1  0.4193290000000  0.4674360000000  0.5171900000000 1.0
C      1  0.4738340000000  0.5468600000000  0.5848790000000 1.0
C      1  0.5443120000000  0.4613150000000  0.5814030000000 1.0
C      1  0.5730510000000  0.5482590000000  0.5962620000000 1.0
C      1  0.5306510000000  0.4818880000000  0.3965050000000 1.0
C      1  0.5011610000000  0.4420990000000  0.4816490000000 1.0
C      1  0.5275170000000  0.5484290000000  0.4257400000000 1.0
C      1  0.5081180000000  0.5791150000000  0.5730060000000 1.0
C      1  0.4673250000000  0.4919740000000  0.5705610000000 1.0
C      1  0.5806040000000  0.4954630000000  0.4161580000000 1.0
C      1  0.5513770000000  0.4634990000000  0.4734380000000 1.0
C      1  0.4083040000000  0.4274870000000  0.5714720000000 1.0
C      1  0.4499990000000  0.4809390000000  0.4467520000000 1.0
C      1  0.4869440000000  0.4514420000000  0.5451730000000 1.0
C      1  0.4647480000000  0.4165650000000  0.5142590000000 1.0
C      1  0.5138160000000  0.4479920000000  0.4558400000000 1.0
C      1  0.5385880000000  0.5494260000000  0.4687710000000 1.0
C      1  0.5154220000000  0.5960460000000  0.5270120000000 1.0
C      1  0.3593100000000  0.5072990000000  0.4790970000000 1.0
C      1  0.4742660000000  0.4170800000000  0.4501800000000 1.0
C      1  0.4267520000000  0.4439430000000  0.4653220000000 1.0
C      1  0.5125210000000  0.4277170000000  0.5750010000000 1.0
C      1  0.4052700000000  0.4529940000000  0.5635850000000 1.0
C      1  0.4341610000000  0.5351320000000  0.4883490000000 1.0
C      1  0.5271980000000  0.4262280000000  0.4426470000000 1.0
C      1  0.4525400000000  0.5932120000000  0.4580860000000 1.0
C      1  0.4452860000000  0.5475000000000  0.4659150000000 1.0
C      1  0.4951140000000  0.4964650000000  0.4984890000000 1.0
C      1  0.6135780000000  0.5422890000000  0.4976450000000 1.0
C      1  0.5765560000000  0.5678700000000  0.5244420000000 1.0
C      1  0.5544240000000  0.4586050000000  0.5253510000000 1.0
C      1  0.5987810000000  0.5072610000000  0.4329680000000 1.0
C      1  0.5921960000000  0.4766790000000  0.5408180000000 1.0
C      1  0.4214300000000  0.4030600000000  0.5312590000000 1.0
C      1  0.5591380000000  0.4846740000000  0.4028270000000 1.0
C      1  0.5603930000000  0.4214740000000  0.4951020000000 1.0
C      1  0.5823310000000  0.4946370000000  0.4860680000000 1.0
C      1  0.4509420000000  0.5092700000000  0.5557410000000 1.0
C      1  0.3901320000000  0.5802730000000  0.4812100000000 1.0
C      1  0.5189330000000  0.5376070000000  0.5986640000000 1.0
C      1  0.5359430000000  0.5169590000000  0.4976960000000 1.0
C      1  0.5401890000000  0.4829910000000  0.5630270000000 1.0
C      1  0.4942560000000  0.5848840000000  0.4840810000000 1.0
C      1  0.3653240000000  0.5333060000000  0.4780550000000 1.0
C      1  0.4762610000000  0.5759650000000  0.4127500000000 1.0
C      1  0.5080490000000  0.4592970000000  0.5284180000000 1.0
C      1  0.4230390000000  0.4691490000000  0.4485580000000 1.0
C      1  0.5690320000000  0.5715160000000  0.5527940000000 1.0
C      1  0.4911710000000  0.5515620000000  0.5390320000000 1.0
C      1  0.4180120000000  0.5264820000000  0.4098820000000 1.0
C      1  0.5886190000000  0.4265310000000  0.5003670000000 1.0
C      1  0.4357660000000  0.4184960000000  0.5126820000000 1.0
C      1  0.5383690000000  0.4187570000000  0.5621980000000 1.0
C      1  0.5548730000000  0.5743000000000  0.5055890000000 1.0
C      1  0.4852070000000  0.4067170000000  0.5332770000000 1.0
C      1  0.5174780000000  0.5346730000000  0.4816450000000 1.0
C      1  0.4100610000000  0.5980870000000  0.4811580000000 1.0
C      1  0.3689900000000  0.4603520000000  0.5015910000000 1.0
C      1  0.4690550000000  0.4669880000000  0.5588520000000 1.0
C      1  0.4494070000000  0.5514170000000  0.5959260000000 1.0
C      1  0.4035220000000  0.4836640000000  0.4345860000000 1.0
C      1  0.4965850000000  0.6027090000000  0.5066650000000 1.0
C      1  0.4131420000000  0.4055860000000  0.5566480000000 1.0
C      1  0.4885280000000  0.5123060000000  0.3942370000000 1.0
C      1  0.4658730000000  0.4651080000000  0.4656620000000 1.0
C      1  0.4182400000000  0.4418330000000  0.4956650000000 1.0
C      1  0.5496020000000  0.5744280000000  0.4764790000000 1.0
C      1  0.4923020000000  0.5270700000000  0.5939300000000 1.0
C      1  0.4975160000000  0.4391630000000  0.4059310000000 1.0
C      1  0.3732370000000  0.4660970000000  0.5291400000000 1.0
C      1  0.4814860000000  0.5821870000000  0.3866010000000 1.0
C      1  0.4933440000000  0.5546590000000  0.4890670000000 1.0
C      1  0.4748570000000  0.6204960000000  0.5092960000000 1.0
C      1  0.4521050000000  0.5616920000000  0.4201830000000 1.0
C      1  0.5367980000000  0.5197550000000  0.6126050000000 1.0
C      1  0.6190330000000  0.5181010000000  0.4829730000000 1.0
C      1  0.5107150000000  0.3972600000000  0.5211320000000 1.0
C      1  0.6139080000000  0.5163250000000  0.4540690000000 1.0
C      1  0.4032540000000  0.5063080000000  0.4199240000000 1.0
C      1  0.4944080000000  0.5841310000000  0.4339800000000 1.0
C      1  0.4419890000000  0.5685530000000  0.4465570000000 1.0
C      1  0.4549860000000  0.4374930000000  0.4600030000000 1.0
C      1  0.4869110000000  0.5080740000000  0.4496900000000 1.0
END
