TITL C-612600-6631-1250 0.0768067000204095 125000 -596.794625313328 0 0 98 (C1) n - 1
REM
REM in /home/nfs/bkarasulu/CARBON/AIRSS/Generating-Clusters/TERSOFF/Only-C1/FIRE-HFTN
REM
REM
REM
REM
REM
REM ./C.cell (11c1c37f851c82e70ff6c80c92926a4b)
REM AIRSS Version 0.9.1 bugfix July 2018 build 013d7b7c2542+ Fri, 06 Jul 2018 19:26:36 +0100
REM compiler GCC version 9.2.1 20190827 (Red Hat 9.2.1-1)
REM options -cpp -mtune=generic -march=x86-64 -g -O0 -fpre-include=/usr/include/finclude/math-vector-fortran.h
REM seed 673360701 407210713 -1884950445 529214041 1888470305 429874167 -289284290 776400391 559209272 1920566854 -1390776898 1260139873 -1614119927 1303314888 -455532573 -1152833363 1954771762 659887692 388860812 1063448923 377469673 100584046 -490871132 -1202255273 774160789 -793294089 -904445858 1234783648 -1155039803 -442872531 1014222958 -611979025 580448212
REM
CELL 1.54180   50.00000   50.00000   50.00000   90.00000   90.00000   90.00000
LATT -1
SFAC C  
C      1  0.4240680000000  0.4411340000000  0.4593830000000 1.0
C      1  0.4655800000000  0.5182280000000  0.5231430000000 1.0
C      1  0.4922820000000  0.4415130000000  0.4284300000000 1.0
C      1  0.5909880000000  0.4457890000000  0.4592770000000 1.0
C      1  0.5437740000000  0.5713010000000  0.5169330000000 1.0
C      1  0.5123860000000  0.4798780000000  0.5128160000000 1.0
C      1  0.4820540000000  0.4297200000000  0.4999260000000 1.0
C      1  0.4317340000000  0.4785870000000  0.4067790000000 1.0
C      1  0.6095030000000  0.4967090000000  0.5175300000000 1.0
C      1  0.4969680000000  0.4233540000000  0.5578000000000 1.0
C      1  0.4535110000000  0.4727530000000  0.5111240000000 1.0
C      1  0.4852720000000  0.5268370000000  0.5911500000000 1.0
C      1  0.4477320000000  0.4909430000000  0.4592400000000 1.0
C      1  0.4617710000000  0.4913560000000  0.5305870000000 1.0
C      1  0.4126030000000  0.4965700000000  0.5001300000000 1.0
C      1  0.3965410000000  0.5429880000000  0.5132240000000 1.0
C      1  0.5012510000000  0.5058790000000  0.4537470000000 1.0
C      1  0.5093390000000  0.4796610000000  0.4493570000000 1.0
C      1  0.5348070000000  0.4756940000000  0.5905310000000 1.0
C      1  0.4220530000000  0.4989690000000  0.4513180000000 1.0
C      1  0.4349520000000  0.5166560000000  0.5709050000000 1.0
C      1  0.4750770000000  0.6159630000000  0.4658620000000 1.0
C      1  0.5738240000000  0.5466870000000  0.4583280000000 1.0
C      1  0.4253450000000  0.4216530000000  0.5038130000000 1.0
C      1  0.4993140000000  0.5761510000000  0.4523980000000 1.0
C      1  0.5192190000000  0.4656230000000  0.5691390000000 1.0
C      1  0.5188160000000  0.4301500000000  0.4280570000000 1.0
C      1  0.5535890000000  0.4517670000000  0.5151690000000 1.0
C      1  0.4989600000000  0.4831180000000  0.5602330000000 1.0
C      1  0.4650450000000  0.4708470000000  0.4591030000000 1.0
C      1  0.4267600000000  0.4710700000000  0.5011340000000 1.0
C      1  0.5396900000000  0.4392310000000  0.5345200000000 1.0
C      1  0.4215350000000  0.4451550000000  0.4878170000000 1.0
C      1  0.3799360000000  0.5419690000000  0.4907000000000 1.0
C      1  0.5605680000000  0.4703930000000  0.4970540000000 1.0
C      1  0.4862800000000  0.5515170000000  0.4575530000000 1.0
C      1  0.5412780000000  0.5601970000000  0.4261470000000 1.0
C      1  0.5642260000000  0.4864320000000  0.4754430000000 1.0
C      1  0.5238490000000  0.4985760000000  0.6030650000000 1.0
C      1  0.5202750000000  0.5750730000000  0.4334910000000 1.0
C      1  0.4831550000000  0.5384000000000  0.4832480000000 1.0
C      1  0.4608550000000  0.4571540000000  0.5673380000000 1.0
C      1  0.6115530000000  0.4817450000000  0.4930980000000 1.0
C      1  0.4356690000000  0.4403600000000  0.4347440000000 1.0
C      1  0.5117250000000  0.5050290000000  0.5032400000000 1.0
C      1  0.6017300000000  0.5240380000000  0.5213830000000 1.0
C      1  0.4889890000000  0.4604590000000  0.4499080000000 1.0
C      1  0.5693070000000  0.5455650000000  0.4857810000000 1.0
C      1  0.5300490000000  0.5249470000000  0.5107520000000 1.0
C      1  0.5419360000000  0.4440060000000  0.4384660000000 1.0
C      1  0.5559750000000  0.5478320000000  0.5743940000000 1.0
C      1  0.5547870000000  0.4911960000000  0.4490700000000 1.0
C      1  0.4773730000000  0.5407570000000  0.5106780000000 1.0
C      1  0.4297910000000  0.5576480000000  0.5440040000000 1.0
C      1  0.4727660000000  0.4547030000000  0.5016530000000 1.0
C      1  0.5162190000000  0.6040520000000  0.4882290000000 1.0
C      1  0.5204960000000  0.4403470000000  0.5553680000000 1.0
C      1  0.4598680000000  0.5239650000000  0.5827790000000 1.0
C      1  0.5135710000000  0.4918070000000  0.3960400000000 1.0
C      1  0.4044140000000  0.5046100000000  0.4728500000000 1.0
C      1  0.4964350000000  0.5991850000000  0.4688170000000 1.0
C      1  0.5131970000000  0.5235570000000  0.5948470000000 1.0
C      1  0.4967030000000  0.5126290000000  0.4809260000000 1.0
C      1  0.4181720000000  0.4995100000000  0.5841720000000 1.0
C      1  0.4445880000000  0.4056030000000  0.5142380000000 1.0
C      1  0.4082410000000  0.5653460000000  0.5266080000000 1.0
C      1  0.5685020000000  0.4371440000000  0.4464920000000 1.0
C      1  0.5521440000000  0.5123020000000  0.4294290000000 1.0
C      1  0.4265080000000  0.5280620000000  0.5460340000000 1.0
C      1  0.6125650000000  0.4818660000000  0.5413190000000 1.0
C      1  0.4178630000000  0.4950640000000  0.4235290000000 1.0
C      1  0.5580720000000  0.5396720000000  0.4357460000000 1.0
C      1  0.4111850000000  0.5180050000000  0.5212930000000 1.0
C      1  0.4921020000000  0.4749740000000  0.3941780000000 1.0
C      1  0.5761470000000  0.5478910000000  0.5568430000000 1.0
C      1  0.6061130000000  0.4621450000000  0.4749720000000 1.0
C      1  0.4536370000000  0.5712990000000  0.5500390000000 1.0
C      1  0.4892110000000  0.4038780000000  0.5386400000000 1.0
C      1  0.5704990000000  0.5608440000000  0.5102880000000 1.0
C      1  0.5527250000000  0.5242880000000  0.4942600000000 1.0
C      1  0.4922260000000  0.5291110000000  0.4393880000000 1.0
C      1  0.6042180000000  0.4718590000000  0.5644680000000 1.0
C      1  0.4717780000000  0.4798850000000  0.5544360000000 1.0
C      1  0.3835570000000  0.5234960000000  0.4713370000000 1.0
C      1  0.5347280000000  0.5051660000000  0.4070370000000 1.0
C      1  0.5861590000000  0.4671640000000  0.5833910000000 1.0
C      1  0.4747690000000  0.4343710000000  0.5720300000000 1.0
C      1  0.4803610000000  0.5720100000000  0.5453130000000 1.0
C      1  0.4765020000000  0.4542480000000  0.4071210000000 1.0
C      1  0.4475460000000  0.4555660000000  0.4129910000000 1.0
C      1  0.4728090000000  0.4084770000000  0.5160690000000 1.0
C      1  0.5324110000000  0.5420090000000  0.5855960000000 1.0
C      1  0.5353530000000  0.4711250000000  0.4442750000000 1.0
C      1  0.5343080000000  0.5953440000000  0.5058610000000 1.0
C      1  0.5232280000000  0.5509970000000  0.5220140000000 1.0
C      1  0.5857430000000  0.5462820000000  0.5303830000000 1.0
C      1  0.5615450000000  0.4683900000000  0.5933610000000 1.0
C      1  0.4951710000000  0.5565240000000  0.5268810000000 1.0
END
