TITL C-612605-9286-1454 0.0984405567594876 125000 -679.528747910356 0 0 111 (C1) n - 1
REM
REM in /home/nfs/bkarasulu/CARBON/AIRSS/Generating-Clusters/TERSOFF/Only-C1/FIRE-HFTN
REM
REM
REM
REM
REM
REM ./C.cell (11c1c37f851c82e70ff6c80c92926a4b)
REM AIRSS Version 0.9.1 bugfix July 2018 build 013d7b7c2542+ Fri, 06 Jul 2018 19:26:36 +0100
REM compiler GCC version 9.2.1 20190827 (Red Hat 9.2.1-1)
REM options -cpp -mtune=generic -march=x86-64 -g -O0 -fpre-include=/usr/include/finclude/math-vector-fortran.h
REM seed 259722715 774766867 764296687 -104765582 -242550848 -1491840301 -1196304802 978330524 -1474249113 -1465300870 -381645741 1783085010 145433050 -288781361 -2078653627 1594828309 -707566698 -272428289 947193382 88225529 -1545054569 -354218788 701691483 2049107983 1963173701 1080043708 1810786786 1181985530 355120176 316276758 -287922510 1060172736 1824703434
REM
CELL 1.54180   50.00000   50.00000   50.00000   90.00000   90.00000   90.00000
LATT -1
SFAC C  
C      1  0.4847710000000  0.5572020000000  0.6137350000000 1.0
C      1  0.5097200000000  0.4066370000000  0.5229780000000 1.0
C      1  0.5441120000000  0.5324960000000  0.5185340000000 1.0
C      1  0.5220870000000  0.4626360000000  0.6035570000000 1.0
C      1  0.4295590000000  0.4186800000000  0.5112560000000 1.0
C      1  0.4574810000000  0.4392840000000  0.4466130000000 1.0
C      1  0.5241450000000  0.5127390000000  0.4227870000000 1.0
C      1  0.5279520000000  0.4286250000000  0.4670830000000 1.0
C      1  0.6274810000000  0.4767100000000  0.5132420000000 1.0
C      1  0.5376690000000  0.4065710000000  0.4837930000000 1.0
C      1  0.4273030000000  0.4669350000000  0.5133220000000 1.0
C      1  0.5085420000000  0.5638010000000  0.6243080000000 1.0
C      1  0.4184400000000  0.5665960000000  0.4855600000000 1.0
C      1  0.5201340000000  0.5220500000000  0.5232220000000 1.0
C      1  0.4733870000000  0.4780450000000  0.5969960000000 1.0
C      1  0.4722410000000  0.5684330000000  0.5685860000000 1.0
C      1  0.5692240000000  0.5388150000000  0.5297020000000 1.0
C      1  0.4638030000000  0.5005600000000  0.5830900000000 1.0
C      1  0.4052190000000  0.4127690000000  0.4692210000000 1.0
C      1  0.4666030000000  0.5628780000000  0.4862990000000 1.0
C      1  0.5650340000000  0.5168110000000  0.3989070000000 1.0
C      1  0.5388640000000  0.4630020000000  0.5309600000000 1.0
C      1  0.5824350000000  0.5099930000000  0.4182740000000 1.0
C      1  0.5339520000000  0.4159340000000  0.5113840000000 1.0
C      1  0.5048310000000  0.3960000000000  0.5754220000000 1.0
C      1  0.4384050000000  0.4575240000000  0.4376430000000 1.0
C      1  0.5169880000000  0.4645240000000  0.3700820000000 1.0
C      1  0.5438760000000  0.5794920000000  0.4346230000000 1.0
C      1  0.5617590000000  0.4674290000000  0.5471510000000 1.0
C      1  0.5989060000000  0.5985320000000  0.5816580000000 1.0
C      1  0.4312550000000  0.4503640000000  0.5552480000000 1.0
C      1  0.4258970000000  0.4790480000000  0.5576510000000 1.0
C      1  0.3915010000000  0.5445920000000  0.4456270000000 1.0
C      1  0.6182290000000  0.5112750000000  0.4765130000000 1.0
C      1  0.4557660000000  0.5165470000000  0.4651410000000 1.0
C      1  0.5862800000000  0.4549900000000  0.4662190000000 1.0
C      1  0.5179260000000  0.5552510000000  0.3690270000000 1.0
C      1  0.3817980000000  0.4338540000000  0.4276650000000 1.0
C      1  0.3956560000000  0.4595360000000  0.4622940000000 1.0
C      1  0.3815460000000  0.4811770000000  0.4042820000000 1.0
C      1  0.5574240000000  0.5104260000000  0.5693810000000 1.0
C      1  0.5334730000000  0.5233760000000  0.5814650000000 1.0
C      1  0.5140070000000  0.4766190000000  0.5357940000000 1.0
C      1  0.4996480000000  0.5931160000000  0.5100450000000 1.0
C      1  0.5873600000000  0.4592180000000  0.5398640000000 1.0
C      1  0.4481270000000  0.4753640000000  0.4964860000000 1.0
C      1  0.3927730000000  0.4588640000000  0.4168900000000 1.0
C      1  0.5113370000000  0.5726210000000  0.4692400000000 1.0
C      1  0.5382340000000  0.5254160000000  0.4017460000000 1.0
C      1  0.5310750000000  0.5512440000000  0.3925560000000 1.0
C      1  0.5801230000000  0.5077550000000  0.4464000000000 1.0
C      1  0.4604810000000  0.5764080000000  0.5459940000000 1.0
C      1  0.5087860000000  0.5155550000000  0.5693930000000 1.0
C      1  0.4384330000000  0.5012870000000  0.5699960000000 1.0
C      1  0.4914230000000  0.4654300000000  0.5239800000000 1.0
C      1  0.5117660000000  0.5040770000000  0.5431580000000 1.0
C      1  0.6114350000000  0.4629930000000  0.5293700000000 1.0
C      1  0.5942010000000  0.5518820000000  0.4642240000000 1.0
C      1  0.5856650000000  0.5534270000000  0.5123190000000 1.0
C      1  0.4910660000000  0.5769140000000  0.4885520000000 1.0
C      1  0.4829380000000  0.5218360000000  0.5798690000000 1.0
C      1  0.4416030000000  0.5643690000000  0.5290390000000 1.0
C      1  0.4881670000000  0.4058580000000  0.5045640000000 1.0
C      1  0.5385160000000  0.5722910000000  0.4095700000000 1.0
C      1  0.6074250000000  0.4405870000000  0.4612380000000 1.0
C      1  0.5972000000000  0.5234860000000  0.4627290000000 1.0
C      1  0.5610720000000  0.4672340000000  0.4683960000000 1.0
C      1  0.5455110000000  0.4693680000000  0.5926140000000 1.0
C      1  0.4657230000000  0.5409060000000  0.4686990000000 1.0
C      1  0.3836360000000  0.5284880000000  0.4258500000000 1.0
C      1  0.5247160000000  0.6012300000000  0.5160030000000 1.0
C      1  0.4117920000000  0.4659630000000  0.4385380000000 1.0
C      1  0.5382820000000  0.5769140000000  0.4618310000000 1.0
C      1  0.4300270000000  0.4413060000000  0.5275850000000 1.0
C      1  0.4281070000000  0.5262160000000  0.5614530000000 1.0
C      1  0.5063710000000  0.4575350000000  0.3928430000000 1.0
C      1  0.5679780000000  0.5548950000000  0.5769380000000 1.0
C      1  0.3885090000000  0.4313560000000  0.4562190000000 1.0
C      1  0.4023190000000  0.5576430000000  0.4662400000000 1.0
C      1  0.4540820000000  0.4211000000000  0.4694260000000 1.0
C      1  0.3793570000000  0.5072950000000  0.4101430000000 1.0
C      1  0.4855660000000  0.4403340000000  0.4396790000000 1.0
C      1  0.4422120000000  0.5670900000000  0.5008150000000 1.0
C      1  0.3777660000000  0.4931910000000  0.4991020000000 1.0
C      1  0.4778120000000  0.5488100000000  0.5878080000000 1.0
C      1  0.4955240000000  0.4651070000000  0.6045310000000 1.0
C      1  0.5441610000000  0.5483650000000  0.5919690000000 1.0
C      1  0.4138740000000  0.4852200000000  0.5313590000000 1.0
C      1  0.5840400000000  0.5772010000000  0.5799080000000 1.0
C      1  0.5580780000000  0.4823110000000  0.5709440000000 1.0
C      1  0.5072230000000  0.3998690000000  0.5497620000000 1.0
C      1  0.5486280000000  0.5965480000000  0.5044530000000 1.0
C      1  0.5331590000000  0.5611560000000  0.6140600000000 1.0
C      1  0.4734800000000  0.4671930000000  0.5046930000000 1.0
C      1  0.5719940000000  0.5332680000000  0.5575010000000 1.0
C      1  0.6296150000000  0.4949480000000  0.4940450000000 1.0
C      1  0.5406660000000  0.4518900000000  0.4806230000000 1.0
C      1  0.5398530000000  0.4448190000000  0.5093410000000 1.0
C      1  0.4462840000000  0.4945090000000  0.4764600000000 1.0
C      1  0.5324390000000  0.5003870000000  0.4452650000000 1.0
C      1  0.5802470000000  0.5632680000000  0.4862320000000 1.0
C      1  0.4299740000000  0.4146350000000  0.4831100000000 1.0
C      1  0.5574490000000  0.5802470000000  0.4829380000000 1.0
C      1  0.4262640000000  0.5447290000000  0.5422100000000 1.0
C      1  0.4960560000000  0.4506250000000  0.4162480000000 1.0
C      1  0.6056090000000  0.5679030000000  0.4451700000000 1.0
C      1  0.5005190000000  0.4273710000000  0.4605320000000 1.0
C      1  0.3907580000000  0.4976200000000  0.5221470000000 1.0
C      1  0.3813940000000  0.4774960000000  0.4778530000000 1.0
C      1  0.4809450000000  0.4152180000000  0.4791060000000 1.0
C      1  0.5574610000000  0.4924630000000  0.4558430000000 1.0
END
