TITL C-612601-4209-516 3.05820986301989 125000 -171.193805937381 0 0 31 (C1) n - 1
REM
REM in /home/nfs/bkarasulu/CARBON/AIRSS/Generating-Clusters/TERSOFF/Only-C1/FIRE-HFTN
REM
REM
REM
REM
REM
REM ./C.cell (11c1c37f851c82e70ff6c80c92926a4b)
REM AIRSS Version 0.9.1 bugfix July 2018 build 013d7b7c2542+ Fri, 06 Jul 2018 19:26:36 +0100
REM compiler GCC version 9.2.1 20190827 (Red Hat 9.2.1-1)
REM options -cpp -mtune=generic -march=x86-64 -g -O0 -fpre-include=/usr/include/finclude/math-vector-fortran.h
REM seed -820582232 -1541990905 -415448537 2011109284 1000892840 474896644 1365500473 747843239 972826794 761054019 -1719667452 788337181 -497113381 -736864334 -1452352927 635568591 830314631 -390286952 138809340 -1537015835 -975678303 -284745355 -251925273 -507267550 -1486625145 1681679523 172817253 -307413317 -496329800 -1422323943 1863687823 1114524340 913411888
REM
CELL 1.54180   50.00000   50.00000   50.00000   90.00000   90.00000   90.00000
LATT -1
SFAC C  
C      1  0.4223750000000  0.4640230000000  0.5878720000000 1.0
C      1  0.4423120000000  0.4458420000000  0.5925750000000 1.0
C      1  0.5095980000000  0.4547740000000  0.5632040000000 1.0
C      1  0.4300430000000  0.4922790000000  0.5489320000000 1.0
C      1  0.4408460000000  0.5289470000000  0.5191230000000 1.0
C      1  0.5671120000000  0.5283700000000  0.4289390000000 1.0
C      1  0.4161460000000  0.4713680000000  0.5611120000000 1.0
C      1  0.4286310000000  0.5647220000000  0.4826030000000 1.0
C      1  0.4928390000000  0.4622820000000  0.5421760000000 1.0
C      1  0.6540920000000  0.5755660000000  0.3050310000000 1.0
C      1  0.4486900000000  0.5099070000000  0.5379630000000 1.0
C      1  0.5246230000000  0.4484710000000  0.5840920000000 1.0
C      1  0.5961830000000  0.5441440000000  0.3875270000000 1.0
C      1  0.5235020000000  0.5047120000000  0.4910550000000 1.0
C      1  0.5392880000000  0.4423530000000  0.6047590000000 1.0
C      1  0.4857080000000  0.5244040000000  0.5656710000000 1.0
C      1  0.5816470000000  0.5362570000000  0.4082330000000 1.0
C      1  0.6397920000000  0.5678070000000  0.3254020000000 1.0
C      1  0.4346060000000  0.5469800000000  0.5007460000000 1.0
C      1  0.4760150000000  0.4435230000000  0.5301330000000 1.0
C      1  0.4586720000000  0.4271470000000  0.5196370000000 1.0
C      1  0.6252530000000  0.5599180000000  0.3461140000000 1.0
C      1  0.4759180000000  0.5082020000000  0.5459160000000 1.0
C      1  0.5525760000000  0.5204830000000  0.4496450000000 1.0
C      1  0.4927230000000  0.4892030000000  0.5331260000000 1.0
C      1  0.4083840000000  0.4752840000000  0.6085480000000 1.0
C      1  0.5380400000000  0.5125970000000  0.4703510000000 1.0
C      1  0.5088710000000  0.4969130000000  0.5117080000000 1.0
C      1  0.3963700000000  0.4574980000000  0.5471050000000 1.0
C      1  0.3784280000000  0.4439940000000  0.5338810000000 1.0
C      1  0.6107180000000  0.5520310000000  0.3668200000000 1.0
END
