TITL C-612601-4209-444 110546.954528026 125000 -1193.78422029299 0 0 198 (C1) n - 1
REM
REM in /home/nfs/bkarasulu/CARBON/AIRSS/Generating-Clusters/TERSOFF/Only-C1/FIRE-HFTN
REM
REM
REM
REM
REM
REM ./C.cell (11c1c37f851c82e70ff6c80c92926a4b)
REM AIRSS Version 0.9.1 bugfix July 2018 build 013d7b7c2542+ Fri, 06 Jul 2018 19:26:36 +0100
REM compiler GCC version 9.2.1 20190827 (Red Hat 9.2.1-1)
REM options -cpp -mtune=generic -march=x86-64 -g -O0 -fpre-include=/usr/include/finclude/math-vector-fortran.h
REM seed -947287420 -838878910 348481 178153625 -152751163 -1088502138 -465969642 -1267869978 177391563 -721783917 413918133 1162735522 1344039874 -2054408141 2020061055 -1615299405 -681374248 -5661525 492956230 1638930542 1851421955 -1196102471 -424894461 2048212454 724359823 -198774256 461148546 -444969942 99361904 -1955653077 -422591565 1944571615 -2109800712
REM
CELL 1.54180   50.00000   50.00000   50.00000   90.00000   90.00000   90.00000
LATT -1
SFAC C  
C      1  0.5165690000000  0.6053010000000  0.5155310000000 1.0
C      1  0.4651720000000  0.4829350000000  0.3765250000000 1.0
C      1  0.4899030000000  0.6161830000000  0.5146460000000 1.0
C      1  0.4598600000000  0.5225930000000  0.5248250000000 1.0
C      1  0.5205970000000  0.4823490000000  0.3892460000000 1.0
C      1  0.3842250000000  0.5434530000000  0.5798920000000 1.0
C      1  0.5185390000000  0.5715400000000  0.6044820000000 1.0
C      1  0.3879040000000  0.4558040000000  0.5321590000000 1.0
C      1  0.5538860000000  0.4396260000000  0.4934200000000 1.0
C      1  0.4315560000000  0.5651990000000  0.5287530000000 1.0
C      1  0.4706050000000  0.6039500000000  0.5330820000000 1.0
C      1  0.5675680000000  0.5979860000000  0.4857590000000 1.0
C      1  0.5757110000000  0.4579140000000  0.4952130000000 1.0
C      1  0.5310370000000  0.3925840000000  0.5283700000000 1.0
C      1  0.4921410000000  0.5461200000000  0.4603430000000 1.0
C      1  0.4723880000000  0.4757340000000  0.5687710000000 1.0
C      1  0.4668950000000  0.3730480000000  0.4573000000000 1.0
C      1  0.5933290000000  0.5166650000000  0.5691970000000 1.0
C      1  0.4936380000000  0.4665680000000  0.5298040000000 1.0
C      1  0.4608940000000  0.3986270000000  0.5110750000000 1.0
C      1  0.5917270000000  0.4855780000000  0.5327460000000 1.0
C      1  0.5997480000000  0.4191150000000  0.4638330000000 1.0
C      1  0.4727170000000  0.5625540000000  0.6059540000000 1.0
C      1  0.4990110000000  0.5440790000000  0.6058010000000 1.0
C      1  0.6376540000000  0.5020740000000  0.5296190000000 1.0
C      1  0.5758070000000  0.4050190000000  0.4695330000000 1.0
C      1  0.4929130000000  0.5638630000000  0.5399930000000 1.0
C      1  0.3930030000000  0.4851600000000  0.5398340000000 1.0
C      1  0.6009760000000  0.5528880000000  0.5287410000000 1.0
C      1  0.4872380000000  0.3921250000000  0.4527670000000 1.0
C      1  0.4563230000000  0.5101970000000  0.3818720000000 1.0
C      1  0.5156030000000  0.5071170000000  0.3793180000000 1.0
C      1  0.3684890000000  0.5550250000000  0.4570560000000 1.0
C      1  0.5454530000000  0.5324760000000  0.5454080000000 1.0
C      1  0.5405650000000  0.4198630000000  0.5811480000000 1.0
C      1  0.6174040000000  0.4649170000000  0.4652740000000 1.0
C      1  0.5580440000000  0.4179080000000  0.6031740000000 1.0
C      1  0.4891500000000  0.4376010000000  0.4552260000000 1.0
C      1  0.5328460000000  0.4693050000000  0.6033760000000 1.0
C      1  0.6078590000000  0.5199830000000  0.4599500000000 1.0
C      1  0.4486140000000  0.4803590000000  0.4359620000000 1.0
C      1  0.4855840000000  0.5005570000000  0.4612700000000 1.0
C      1  0.5013840000000  0.4142160000000  0.4022360000000 1.0
C      1  0.5642440000000  0.4369630000000  0.6214140000000 1.0
C      1  0.4279570000000  0.5138130000000  0.3872250000000 1.0
C      1  0.4076940000000  0.4839860000000  0.5662870000000 1.0
C      1  0.4155480000000  0.5121280000000  0.4129170000000 1.0
C      1  0.3847060000000  0.5322770000000  0.4519860000000 1.0
C      1  0.3854600000000  0.4528710000000  0.5023220000000 1.0
C      1  0.5683700000000  0.5174160000000  0.6102150000000 1.0
C      1  0.5116700000000  0.4552270000000  0.4600180000000 1.0
C      1  0.3812910000000  0.4808690000000  0.4948560000000 1.0
C      1  0.5505820000000  0.4121750000000  0.5351840000000 1.0
C      1  0.5499510000000  0.5983850000000  0.4606720000000 1.0
C      1  0.3921280000000  0.5222040000000  0.4259960000000 1.0
C      1  0.4710300000000  0.5244070000000  0.5505220000000 1.0
C      1  0.4501170000000  0.4467150000000  0.5227940000000 1.0
C      1  0.6028640000000  0.5389430000000  0.5541030000000 1.0
C      1  0.4816440000000  0.4179100000000  0.5011860000000 1.0
C      1  0.5168920000000  0.5912120000000  0.5824860000000 1.0
C      1  0.4949190000000  0.3982250000000  0.4254380000000 1.0
C      1  0.5438910000000  0.5445830000000  0.4982930000000 1.0
C      1  0.5151480000000  0.5577430000000  0.3947110000000 1.0
C      1  0.4907330000000  0.6193620000000  0.4633240000000 1.0
C      1  0.4312640000000  0.4846610000000  0.4800330000000 1.0
C      1  0.4968360000000  0.4945080000000  0.4359330000000 1.0
C      1  0.5199950000000  0.5865910000000  0.4945040000000 1.0
C      1  0.5607150000000  0.5803460000000  0.5733940000000 1.0
C      1  0.4288490000000  0.5348670000000  0.4690910000000 1.0
C      1  0.4987270000000  0.5323330000000  0.5488400000000 1.0
C      1  0.5171890000000  0.4042680000000  0.5767090000000 1.0
C      1  0.4393050000000  0.3949490000000  0.4912260000000 1.0
C      1  0.4160270000000  0.4545900000000  0.5717900000000 1.0
C      1  0.4146620000000  0.4272730000000  0.4348370000000 1.0
C      1  0.6216200000000  0.4212770000000  0.4824940000000 1.0
C      1  0.4024690000000  0.5269180000000  0.4742510000000 1.0
C      1  0.4440200000000  0.3758090000000  0.4713290000000 1.0
C      1  0.5488420000000  0.5338260000000  0.5982140000000 1.0
C      1  0.3703020000000  0.5725150000000  0.4777470000000 1.0
C      1  0.5711910000000  0.5063380000000  0.4925000000000 1.0
C      1  0.5557760000000  0.5079340000000  0.4707470000000 1.0
C      1  0.4247860000000  0.4218660000000  0.4896320000000 1.0
C      1  0.4765450000000  0.6202020000000  0.4884250000000 1.0
C      1  0.4350770000000  0.5051550000000  0.6032440000000 1.0
C      1  0.5552640000000  0.5459530000000  0.5236910000000 1.0
C      1  0.4972970000000  0.4825090000000  0.5552440000000 1.0
C      1  0.5177260000000  0.5140380000000  0.4306980000000 1.0
C      1  0.4680080000000  0.5014770000000  0.5067600000000 1.0
C      1  0.4894620000000  0.5951170000000  0.5760370000000 1.0
C      1  0.4844210000000  0.4336610000000  0.3888510000000 1.0
C      1  0.4669870000000  0.4354210000000  0.4362240000000 1.0
C      1  0.4589300000000  0.5084990000000  0.6160270000000 1.0
C      1  0.4998970000000  0.5956010000000  0.4270630000000 1.0
C      1  0.5606420000000  0.5221800000000  0.4024030000000 1.0
C      1  0.4606480000000  0.3960070000000  0.5404910000000 1.0
C      1  0.5411110000000  0.4436300000000  0.5649970000000 1.0
C      1  0.4501460000000  0.4830700000000  0.5526440000000 1.0
C      1  0.4945160000000  0.5725200000000  0.4099990000000 1.0
C      1  0.4413990000000  0.5534230000000  0.4855080000000 1.0
C      1  0.5639630000000  0.5921660000000  0.5158420000000 1.0
C      1  0.5118620000000  0.3903130000000  0.5511830000000 1.0
C      1  0.5407890000000  0.4694230000000  0.5756990000000 1.0
C      1  0.4405700000000  0.4406530000000  0.4712540000000 1.0
C      1  0.6078880000000  0.5692730000000  0.4698760000000 1.0
C      1  0.4838790000000  0.5194010000000  0.6186220000000 1.0
C      1  0.4751930000000  0.4796310000000  0.4244660000000 1.0
C      1  0.5071170000000  0.4581310000000  0.6082310000000 1.0
C      1  0.5631930000000  0.5000990000000  0.4435480000000 1.0
C      1  0.4248460000000  0.5538420000000  0.5563200000000 1.0
C      1  0.5403860000000  0.4385590000000  0.5376270000000 1.0
C      1  0.5350140000000  0.3925990000000  0.4992050000000 1.0
C      1  0.5035680000000  0.5325030000000  0.3838100000000 1.0
C      1  0.4399300000000  0.4669610000000  0.4601770000000 1.0
C      1  0.4000390000000  0.4385490000000  0.5519070000000 1.0
C      1  0.5425320000000  0.4842230000000  0.5222670000000 1.0
C      1  0.4840700000000  0.5570780000000  0.5070530000000 1.0
C      1  0.5228880000000  0.6056220000000  0.4546090000000 1.0
C      1  0.5440040000000  0.5093670000000  0.4218510000000 1.0
C      1  0.4891590000000  0.4142960000000  0.4727330000000 1.0
C      1  0.5166440000000  0.5052690000000  0.5107480000000 1.0
C      1  0.4955040000000  0.4115780000000  0.5944860000000 1.0
C      1  0.6284520000000  0.4586480000000  0.5136970000000 1.0
C      1  0.4744780000000  0.5320250000000  0.3890890000000 1.0
C      1  0.4956430000000  0.4844370000000  0.5046030000000 1.0
C      1  0.4888330000000  0.4394910000000  0.5970020000000 1.0
C      1  0.5626810000000  0.5843980000000  0.4386670000000 1.0
C      1  0.5541460000000  0.4208280000000  0.3982280000000 1.0
C      1  0.6195120000000  0.4806300000000  0.5285750000000 1.0
C      1  0.4422550000000  0.4376390000000  0.5752860000000 1.0
C      1  0.4729320000000  0.5249950000000  0.4600500000000 1.0
C      1  0.4559470000000  0.5732330000000  0.4711730000000 1.0
C      1  0.4829800000000  0.5863810000000  0.5505450000000 1.0
C      1  0.3969440000000  0.5272420000000  0.5033330000000 1.0
C      1  0.4832310000000  0.5658980000000  0.4782800000000 1.0
C      1  0.5129790000000  0.4642330000000  0.4878000000000 1.0
C      1  0.6118990000000  0.5426470000000  0.4786130000000 1.0
C      1  0.5470530000000  0.4902030000000  0.5554240000000 1.0
C      1  0.4017380000000  0.5548090000000  0.5129200000000 1.0
C      1  0.5531740000000  0.4117830000000  0.4855470000000 1.0
C      1  0.3846170000000  0.5737190000000  0.5007450000000 1.0
C      1  0.6281750000000  0.4487900000000  0.4876490000000 1.0
C      1  0.4586670000000  0.5299240000000  0.5736510000000 1.0
C      1  0.5187040000000  0.5136930000000  0.5608120000000 1.0
C      1  0.5724220000000  0.4836650000000  0.5104080000000 1.0
C      1  0.5945190000000  0.5913660000000  0.4773650000000 1.0
C      1  0.6383520000000  0.5252890000000  0.5162960000000 1.0
C      1  0.4093440000000  0.5348910000000  0.5720610000000 1.0
C      1  0.4168660000000  0.5077400000000  0.5808280000000 1.0
C      1  0.4358460000000  0.5052940000000  0.4315630000000 1.0
C      1  0.3962250000000  0.4326570000000  0.4832970000000 1.0
C      1  0.5286670000000  0.4136680000000  0.3946140000000 1.0
C      1  0.4504770000000  0.5539400000000  0.4286410000000 1.0
C      1  0.5055830000000  0.5288080000000  0.5153270000000 1.0
C      1  0.5757090000000  0.5660200000000  0.5243990000000 1.0
C      1  0.6172190000000  0.5415220000000  0.5071610000000 1.0
C      1  0.5589070000000  0.4699210000000  0.4414010000000 1.0
C      1  0.4423050000000  0.4728510000000  0.5277230000000 1.0
C      1  0.4827630000000  0.3926880000000  0.6096650000000 1.0
C      1  0.5418780000000  0.5658520000000  0.3991740000000 1.0
C      1  0.4784040000000  0.6125420000000  0.4373610000000 1.0
C      1  0.4475010000000  0.5777990000000  0.4444490000000 1.0
C      1  0.5385220000000  0.5945730000000  0.5622420000000 1.0
C      1  0.3952210000000  0.4303290000000  0.4540920000000 1.0
C      1  0.4710280000000  0.5875710000000  0.5960530000000 1.0
C      1  0.4436390000000  0.4877010000000  0.5041440000000 1.0
C      1  0.4699430000000  0.5546460000000  0.4077310000000 1.0
C      1  0.4672900000000  0.4507280000000  0.5824440000000 1.0
C      1  0.5783470000000  0.4969080000000  0.5551760000000 1.0
C      1  0.5871930000000  0.5213600000000  0.4393850000000 1.0
C      1  0.6184120000000  0.4933190000000  0.4635200000000 1.0
C      1  0.5217410000000  0.5261360000000  0.5897430000000 1.0
C      1  0.3895080000000  0.5016180000000  0.5148820000000 1.0
C      1  0.4414870000000  0.4124770000000  0.5571080000000 1.0
C      1  0.5789160000000  0.4516550000000  0.4329790000000 1.0
C      1  0.5728180000000  0.4349410000000  0.4111360000000 1.0
C      1  0.5400090000000  0.6015880000000  0.5331020000000 1.0
C      1  0.5920010000000  0.5141850000000  0.5972650000000 1.0
C      1  0.5138280000000  0.5392480000000  0.4440560000000 1.0
C      1  0.4463490000000  0.5287530000000  0.4459600000000 1.0
C      1  0.5780530000000  0.5401790000000  0.4180310000000 1.0
C      1  0.4479110000000  0.6122130000000  0.4952500000000 1.0
C      1  0.4172350000000  0.4186280000000  0.5410320000000 1.0
C      1  0.4448540000000  0.5974990000000  0.5210770000000 1.0
C      1  0.5336750000000  0.4540230000000  0.5112880000000 1.0
C      1  0.5637770000000  0.5654380000000  0.4179280000000 1.0
C      1  0.5999270000000  0.4457660000000  0.4506130000000 1.0
C      1  0.5228050000000  0.4656420000000  0.4105920000000 1.0
C      1  0.5599920000000  0.5582520000000  0.5886180000000 1.0
C      1  0.5302560000000  0.5636070000000  0.4859410000000 1.0
C      1  0.4532710000000  0.5487790000000  0.5126880000000 1.0
C      1  0.5531270000000  0.4617500000000  0.6218640000000 1.0
C      1  0.4733620000000  0.4569830000000  0.3797100000000 1.0
C      1  0.4522630000000  0.6034640000000  0.4344540000000 1.0
C      1  0.4844760000000  0.3834260000000  0.5490520000000 1.0
C      1  0.5309180000000  0.4617200000000  0.4382020000000 1.0
C      1  0.4785740000000  0.4422240000000  0.5192990000000 1.0
C      1  0.4288160000000  0.4296230000000  0.5175830000000 1.0
C      1  0.4413750000000  0.4284390000000  0.4288110000000 1.0
END
