TITL C-612602-9376-839 0.00379250718657997 125000 -561.263543196434 0 0 91 (C1) n - 1
REM
REM in /home/nfs/bkarasulu/CARBON/AIRSS/Generating-Clusters/TERSOFF/Only-C1/FIRE-HFTN
REM
REM
REM
REM
REM
REM ./C.cell (11c1c37f851c82e70ff6c80c92926a4b)
REM AIRSS Version 0.9.1 bugfix July 2018 build 013d7b7c2542+ Fri, 06 Jul 2018 19:26:36 +0100
REM compiler GCC version 9.2.1 20190827 (Red Hat 9.2.1-1)
REM options -cpp -mtune=generic -march=x86-64 -g -O0 -fpre-include=/usr/include/finclude/math-vector-fortran.h
REM seed 1139832484 -1906439598 486243727 1628985591 1932368438 -294043187 1853361760 701866755 -744192207 -268391806 -2121122100 -69074194 -449450985 -823704530 165241904 1959354789 -1558379281 -1346980510 -1964856057 1186479493 663261035 1163258023 -1876907338 1594069085 1951065018 1274499857 -886272747 917048341 -1643479167 788875292 -1000672038 -1473198087 -1062039243
REM
CELL 1.54180   50.00000   50.00000   50.00000   90.00000   90.00000   90.00000
LATT -1
SFAC C  
C      1  0.5228670000000  0.5270240000000  0.4544090000000 1.0
C      1  0.5065970000000  0.5709100000000  0.4656750000000 1.0
C      1  0.4045170000000  0.5298150000000  0.4904870000000 1.0
C      1  0.4641090000000  0.5025540000000  0.4368270000000 1.0
C      1  0.5579990000000  0.5515080000000  0.5493540000000 1.0
C      1  0.4887260000000  0.5389680000000  0.5403320000000 1.0
C      1  0.4654920000000  0.4343210000000  0.4458860000000 1.0
C      1  0.5331350000000  0.4696240000000  0.4953130000000 1.0
C      1  0.5974050000000  0.4420970000000  0.5097070000000 1.0
C      1  0.4300350000000  0.5266910000000  0.5022230000000 1.0
C      1  0.6416860000000  0.4913470000000  0.4456070000000 1.0
C      1  0.4361140000000  0.4961890000000  0.4344790000000 1.0
C      1  0.4707260000000  0.5456930000000  0.5195850000000 1.0
C      1  0.5088980000000  0.5143060000000  0.6112580000000 1.0
C      1  0.4773680000000  0.4453950000000  0.5566850000000 1.0
C      1  0.4318940000000  0.5065520000000  0.5231280000000 1.0
C      1  0.5004640000000  0.5958120000000  0.5038690000000 1.0
C      1  0.4996180000000  0.5124530000000  0.4673850000000 1.0
C      1  0.4409950000000  0.4378420000000  0.4961160000000 1.0
C      1  0.4131710000000  0.5200950000000  0.5875900000000 1.0
C      1  0.6086980000000  0.4551860000000  0.4893280000000 1.0
C      1  0.5756780000000  0.5261090000000  0.4460580000000 1.0
C      1  0.5481630000000  0.5191890000000  0.4437850000000 1.0
C      1  0.5132270000000  0.4853200000000  0.5069040000000 1.0
C      1  0.4734400000000  0.4924120000000  0.3902620000000 1.0
C      1  0.4523900000000  0.5032950000000  0.3774320000000 1.0
C      1  0.6066500000000  0.4626220000000  0.4622070000000 1.0
C      1  0.5166790000000  0.5776520000000  0.5455340000000 1.0
C      1  0.6152420000000  0.4883680000000  0.4524880000000 1.0
C      1  0.4925870000000  0.4936290000000  0.4895610000000 1.0
C      1  0.4771330000000  0.4721210000000  0.5652070000000 1.0
C      1  0.5309150000000  0.4083640000000  0.5313250000000 1.0
C      1  0.4567070000000  0.4930510000000  0.5242240000000 1.0
C      1  0.4966600000000  0.5116650000000  0.5427490000000 1.0
C      1  0.5204090000000  0.5783300000000  0.4900180000000 1.0
C      1  0.4082680000000  0.5018070000000  0.5386470000000 1.0
C      1  0.4555040000000  0.4590950000000  0.4914370000000 1.0
C      1  0.5042850000000  0.4280440000000  0.4776550000000 1.0
C      1  0.5195950000000  0.5012370000000  0.5294040000000 1.0
C      1  0.4754510000000  0.5924300000000  0.4895950000000 1.0
C      1  0.4538740000000  0.5407070000000  0.4971310000000 1.0
C      1  0.5566270000000  0.4153870000000  0.5300020000000 1.0
C      1  0.4085640000000  0.5047700000000  0.5663570000000 1.0
C      1  0.4646310000000  0.5455810000000  0.4708490000000 1.0
C      1  0.4928430000000  0.4337260000000  0.4520240000000 1.0
C      1  0.5466870000000  0.5096180000000  0.5278730000000 1.0
C      1  0.5533960000000  0.4866790000000  0.4835160000000 1.0
C      1  0.5048370000000  0.5990450000000  0.5313580000000 1.0
C      1  0.5399560000000  0.5625110000000  0.5046110000000 1.0
C      1  0.4810590000000  0.4879000000000  0.4173910000000 1.0
C      1  0.4290490000000  0.5118760000000  0.3880080000000 1.0
C      1  0.4015730000000  0.4688410000000  0.4547800000000 1.0
C      1  0.5286860000000  0.4854890000000  0.4154880000000 1.0
C      1  0.3823480000000  0.5179180000000  0.5008080000000 1.0
C      1  0.4265540000000  0.4710070000000  0.4438490000000 1.0
C      1  0.4777260000000  0.5713930000000  0.4693920000000 1.0
C      1  0.5595910000000  0.5245990000000  0.5478330000000 1.0
C      1  0.4442200000000  0.5589010000000  0.6012380000000 1.0
C      1  0.5558630000000  0.5127650000000  0.4998330000000 1.0
C      1  0.4247220000000  0.5408990000000  0.5994480000000 1.0
C      1  0.5089540000000  0.4575910000000  0.6562970000000 1.0
C      1  0.4937310000000  0.5570680000000  0.5854500000000 1.0
C      1  0.4742120000000  0.5217290000000  0.4560380000000 1.0
C      1  0.5586750000000  0.5419320000000  0.4944840000000 1.0
C      1  0.4432250000000  0.4483880000000  0.4413730000000 1.0
C      1  0.4957870000000  0.4106060000000  0.4980370000000 1.0
C      1  0.5258070000000  0.4445430000000  0.4858500000000 1.0
C      1  0.5558950000000  0.4764340000000  0.4560000000000 1.0
C      1  0.5041420000000  0.4724060000000  0.6354020000000 1.0
C      1  0.4989780000000  0.4881810000000  0.6129960000000 1.0
C      1  0.4691070000000  0.5662180000000  0.5952280000000 1.0
C      1  0.4750180000000  0.4929570000000  0.5460640000000 1.0
C      1  0.5035310000000  0.4114910000000  0.5253590000000 1.0
C      1  0.4670700000000  0.4833510000000  0.4989790000000 1.0
C      1  0.5385530000000  0.4379880000000  0.4346990000000 1.0
C      1  0.4218620000000  0.5096080000000  0.4139830000000 1.0
C      1  0.3840080000000  0.5034910000000  0.5238210000000 1.0
C      1  0.4994890000000  0.5587200000000  0.5578410000000 1.0
C      1  0.5466270000000  0.4929570000000  0.4352270000000 1.0
C      1  0.5892960000000  0.4458120000000  0.4467950000000 1.0
C      1  0.5615210000000  0.4501410000000  0.4464970000000 1.0
C      1  0.5979540000000  0.5108740000000  0.4494830000000 1.0
C      1  0.5046510000000  0.4717180000000  0.4212610000000 1.0
C      1  0.5791230000000  0.4277900000000  0.5228410000000 1.0
C      1  0.5836040000000  0.5515080000000  0.4871530000000 1.0
C      1  0.4866890000000  0.4239720000000  0.5439560000000 1.0
C      1  0.5105790000000  0.4459240000000  0.4332650000000 1.0
C      1  0.4837480000000  0.4782440000000  0.5916910000000 1.0
C      1  0.5080710000000  0.5389740000000  0.6013610000000 1.0
C      1  0.5173080000000  0.5536440000000  0.4474420000000 1.0
C      1  0.5404840000000  0.5670090000000  0.5335990000000 1.0
END
