TITL C-612604-1799-291 2.96577545199445e-05 125000 -833.716623982356 0 0 135 (C1) n - 1
REM
REM in /home/nfs/bkarasulu/CARBON/AIRSS/Generating-Clusters/TERSOFF/Only-C1/FIRE-HFTN
REM
REM
REM
REM
REM
REM ./C.cell (11c1c37f851c82e70ff6c80c92926a4b)
REM AIRSS Version 0.9.1 bugfix July 2018 build 013d7b7c2542+ Fri, 06 Jul 2018 19:26:36 +0100
REM compiler GCC version 9.2.1 20190827 (Red Hat 9.2.1-1)
REM options -cpp -mtune=generic -march=x86-64 -g -O0 -fpre-include=/usr/include/finclude/math-vector-fortran.h
REM seed 1798759448 1305304124 388675794 788331770 -1519852514 973802499 -1550061065 1135255751 -672769233 -165795549 1121548910 -724639796 -730026226 1313154237 2048828265 1643810507 -1182029113 435477542 1307083617 -1178085544 1991592813 -1043068185 -115849687 632780275 -1188648289 -215697774 258315111 1713028032 1649951672 2016758410 1830219145 1834727549 -1184322419
REM
CELL 1.54180   50.00000   50.00000   50.00000   90.00000   90.00000   90.00000
LATT -1
SFAC C  
C      1  0.4612860000000  0.5586940000000  0.4131660000000 1.0
C      1  0.4513030000000  0.5992530000000  0.4321570000000 1.0
C      1  0.5919710000000  0.4331180000000  0.4461150000000 1.0
C      1  0.4847430000000  0.4259030000000  0.5437950000000 1.0
C      1  0.5263930000000  0.5430470000000  0.5840290000000 1.0
C      1  0.5563440000000  0.5407900000000  0.6364970000000 1.0
C      1  0.4644670000000  0.5099130000000  0.5025630000000 1.0
C      1  0.4122720000000  0.4951900000000  0.4859360000000 1.0
C      1  0.5662890000000  0.4803370000000  0.5495240000000 1.0
C      1  0.4337690000000  0.5769000000000  0.4959590000000 1.0
C      1  0.4720240000000  0.5694350000000  0.5807290000000 1.0
C      1  0.5794590000000  0.5776810000000  0.4972670000000 1.0
C      1  0.5908830000000  0.5036660000000  0.4811740000000 1.0
C      1  0.5929340000000  0.4744220000000  0.4779370000000 1.0
C      1  0.5472130000000  0.4468960000000  0.4708760000000 1.0
C      1  0.4523330000000  0.4515220000000  0.4095770000000 1.0
C      1  0.4501980000000  0.5203630000000  0.5804530000000 1.0
C      1  0.3896650000000  0.4521340000000  0.4778760000000 1.0
C      1  0.4612240000000  0.5302680000000  0.5216500000000 1.0
C      1  0.5204340000000  0.4937370000000  0.5064400000000 1.0
C      1  0.4584310000000  0.5469630000000  0.5874610000000 1.0
C      1  0.4485470000000  0.4593060000000  0.5558660000000 1.0
C      1  0.4608070000000  0.4100100000000  0.4439020000000 1.0
C      1  0.4497830000000  0.5434160000000  0.4652050000000 1.0
C      1  0.5455130000000  0.4911390000000  0.4522820000000 1.0
C      1  0.5688520000000  0.3950880000000  0.5120850000000 1.0
C      1  0.5203280000000  0.4240670000000  0.5987190000000 1.0
C      1  0.4668360000000  0.4805210000000  0.5619150000000 1.0
C      1  0.4217030000000  0.5054480000000  0.4539940000000 1.0
C      1  0.4492300000000  0.4415900000000  0.5031640000000 1.0
C      1  0.5166850000000  0.6070680000000  0.4129790000000 1.0
C      1  0.5286770000000  0.5093140000000  0.4657340000000 1.0
C      1  0.4025650000000  0.5376850000000  0.5091300000000 1.0
C      1  0.5907650000000  0.5071210000000  0.5108090000000 1.0
C      1  0.5139150000000  0.4832660000000  0.4157080000000 1.0
C      1  0.5776500000000  0.5484430000000  0.5707410000000 1.0
C      1  0.5334910000000  0.5896380000000  0.4749280000000 1.0
C      1  0.4324750000000  0.5188120000000  0.5561950000000 1.0
C      1  0.4715390000000  0.4661500000000  0.4694340000000 1.0
C      1  0.4980150000000  0.5552830000000  0.5112750000000 1.0
C      1  0.4203100000000  0.4983180000000  0.5374970000000 1.0
C      1  0.5039810000000  0.5984360000000  0.5224860000000 1.0
C      1  0.5622060000000  0.4407380000000  0.4944550000000 1.0
C      1  0.4574080000000  0.4165620000000  0.4915890000000 1.0
C      1  0.5782770000000  0.5219440000000  0.4611590000000 1.0
C      1  0.5179510000000  0.5182000000000  0.5956970000000 1.0
C      1  0.4099590000000  0.5632290000000  0.5044150000000 1.0
C      1  0.4407820000000  0.5705400000000  0.4698350000000 1.0
C      1  0.4834490000000  0.5213540000000  0.4330870000000 1.0
C      1  0.5520330000000  0.5436900000000  0.5721980000000 1.0
C      1  0.4327550000000  0.5805140000000  0.4435090000000 1.0
C      1  0.4792100000000  0.4442730000000  0.4032470000000 1.0
C      1  0.5061260000000  0.4447050000000  0.5508410000000 1.0
C      1  0.5750550000000  0.4121800000000  0.4452840000000 1.0
C      1  0.4887410000000  0.5360110000000  0.5293020000000 1.0
C      1  0.4461360000000  0.4082700000000  0.4667970000000 1.0
C      1  0.4830040000000  0.5805430000000  0.5135170000000 1.0
C      1  0.5060440000000  0.4982890000000  0.4802900000000 1.0
C      1  0.4932850000000  0.4806800000000  0.4593730000000 1.0
C      1  0.5631530000000  0.4379550000000  0.5780720000000 1.0
C      1  0.5589470000000  0.5076140000000  0.4115900000000 1.0
C      1  0.4433790000000  0.5686600000000  0.5402910000000 1.0
C      1  0.4360530000000  0.4904500000000  0.3877720000000 1.0
C      1  0.4527430000000  0.4875010000000  0.3665880000000 1.0
C      1  0.4968790000000  0.5129910000000  0.5433340000000 1.0
C      1  0.4564490000000  0.4256600000000  0.6103660000000 1.0
C      1  0.4882150000000  0.4182540000000  0.4440420000000 1.0
C      1  0.5017840000000  0.4088670000000  0.4680790000000 1.0
C      1  0.4729810000000  0.4344910000000  0.5903140000000 1.0
C      1  0.4982260000000  0.4121170000000  0.5196200000000 1.0
C      1  0.5101060000000  0.4711080000000  0.5947890000000 1.0
C      1  0.4975850000000  0.5808980000000  0.5751060000000 1.0
C      1  0.4322100000000  0.4831610000000  0.4389030000000 1.0
C      1  0.5248180000000  0.4674680000000  0.5135630000000 1.0
C      1  0.4540560000000  0.5811300000000  0.5163800000000 1.0
C      1  0.5356140000000  0.5123450000000  0.5224770000000 1.0
C      1  0.5448450000000  0.5649480000000  0.6335020000000 1.0
C      1  0.5350120000000  0.4974750000000  0.4028380000000 1.0
C      1  0.5416930000000  0.5031460000000  0.6056010000000 1.0
C      1  0.5173910000000  0.5690190000000  0.5917770000000 1.0
C      1  0.5565870000000  0.5162180000000  0.6254270000000 1.0
C      1  0.5954830000000  0.5336670000000  0.5193690000000 1.0
C      1  0.5277640000000  0.3985740000000  0.4634460000000 1.0
C      1  0.4692110000000  0.4987100000000  0.5835740000000 1.0
C      1  0.4477690000000  0.4661770000000  0.4551660000000 1.0
C      1  0.5253700000000  0.4464690000000  0.5310280000000 1.0
C      1  0.5990120000000  0.4569590000000  0.4566060000000 1.0
C      1  0.4312910000000  0.5320810000000  0.4459360000000 1.0
C      1  0.4960290000000  0.4980340000000  0.5944310000000 1.0
C      1  0.5111670000000  0.5822580000000  0.4546090000000 1.0
C      1  0.5522270000000  0.3997360000000  0.4522600000000 1.0
C      1  0.5594680000000  0.4657120000000  0.5739420000000 1.0
C      1  0.4635080000000  0.4345390000000  0.5623460000000 1.0
C      1  0.4941160000000  0.4946780000000  0.4334420000000 1.0
C      1  0.4829180000000  0.5167250000000  0.4826130000000 1.0
C      1  0.4337150000000  0.5546700000000  0.4258080000000 1.0
C      1  0.5417320000000  0.5387560000000  0.5201880000000 1.0
C      1  0.4864710000000  0.4525700000000  0.3770640000000 1.0
C      1  0.5343580000000  0.5350370000000  0.4750070000000 1.0
C      1  0.4999380000000  0.4439220000000  0.5964880000000 1.0
C      1  0.4779870000000  0.5360980000000  0.4092900000000 1.0
C      1  0.4682760000000  0.4622210000000  0.4973260000000 1.0
C      1  0.5810760000000  0.4613200000000  0.5018840000000 1.0
C      1  0.5456770000000  0.4210600000000  0.5899730000000 1.0
C      1  0.4823350000000  0.4884770000000  0.5399020000000 1.0
C      1  0.4424180000000  0.5404070000000  0.5396340000000 1.0
C      1  0.5602840000000  0.5450560000000  0.4687780000000 1.0
C      1  0.5125810000000  0.5498610000000  0.4873220000000 1.0
C      1  0.5284870000000  0.5777240000000  0.6162080000000 1.0
C      1  0.4891530000000  0.5307560000000  0.3850200000000 1.0
C      1  0.4363820000000  0.4755770000000  0.4117320000000 1.0
C      1  0.5825790000000  0.4805710000000  0.5246530000000 1.0
C      1  0.4708280000000  0.4845220000000  0.5141850000000 1.0
C      1  0.4781750000000  0.5358300000000  0.4598320000000 1.0
C      1  0.5273130000000  0.4201500000000  0.5192390000000 1.0
C      1  0.5008370000000  0.5917600000000  0.4293000000000 1.0
C      1  0.4738730000000  0.5850020000000  0.4208730000000 1.0
C      1  0.5532780000000  0.4170980000000  0.5083090000000 1.0
C      1  0.5389860000000  0.4629790000000  0.4495300000000 1.0
C      1  0.4085910000000  0.4667720000000  0.4911750000000 1.0
C      1  0.4860960000000  0.4098190000000  0.4936150000000 1.0
C      1  0.5050840000000  0.5965820000000  0.5516440000000 1.0
C      1  0.5199260000000  0.4566820000000  0.4280770000000 1.0
C      1  0.4273700000000  0.4688350000000  0.5377420000000 1.0
C      1  0.4980040000000  0.4374970000000  0.4246360000000 1.0
C      1  0.4974910000000  0.5587570000000  0.4640840000000 1.0
C      1  0.5598990000000  0.5734980000000  0.4768000000000 1.0
C      1  0.4741160000000  0.4715110000000  0.3620620000000 1.0
C      1  0.5398450000000  0.4771960000000  0.5928030000000 1.0
C      1  0.4249640000000  0.4548100000000  0.5120520000000 1.0
C      1  0.5923620000000  0.5597470000000  0.5130370000000 1.0
C      1  0.5236760000000  0.6018590000000  0.5007470000000 1.0
C      1  0.5665520000000  0.5061500000000  0.4388940000000 1.0
C      1  0.5470270000000  0.5006080000000  0.5451340000000 1.0
C      1  0.4104720000000  0.5103850000000  0.5109320000000 1.0
END
