TITL C-612603-7354-273 1.58849739165675e-05 125000 -223.380336362042 0 0 39 (C1) n - 1
REM
REM in /home/nfs/bkarasulu/CARBON/AIRSS/Generating-Clusters/TERSOFF/Only-C1/FIRE-HFTN
REM
REM
REM
REM
REM
REM ./C.cell (11c1c37f851c82e70ff6c80c92926a4b)
REM AIRSS Version 0.9.1 bugfix July 2018 build 013d7b7c2542+ Fri, 06 Jul 2018 19:26:36 +0100
REM compiler GCC version 9.2.1 20190827 (Red Hat 9.2.1-1)
REM options -cpp -mtune=generic -march=x86-64 -g -O0 -fpre-include=/usr/include/finclude/math-vector-fortran.h
REM seed 2023322978 -1911286252 751606328 1820093222 1316217729 -1236643450 -141141564 2085652327 -362815508 1716878319 -632399614 -1175641649 331667389 -2007856461 -2141805274 -754830600 225439274 1460730484 -77664444 -836752872 -717497413 336875496 -1585192821 1914052600 2063162367 322167002 -355442980 98756757 -404959141 -606323844 -715339508 -361219960 -1812936296
REM
CELL 1.54180   50.00000   50.00000   50.00000   90.00000   90.00000   90.00000
LATT -1
SFAC C  
C      1  0.4694170000000  0.5227390000000  0.4928410000000 1.0
C      1  0.4771900000000  0.5626350000000  0.5201350000000 1.0
C      1  0.5380730000000  0.5326100000000  0.5328020000000 1.0
C      1  0.5435090000000  0.4919040000000  0.4587200000000 1.0
C      1  0.5218600000000  0.4635450000000  0.5502260000000 1.0
C      1  0.4695310000000  0.4773350000000  0.4450780000000 1.0
C      1  0.5491720000000  0.4482830000000  0.4279300000000 1.0
C      1  0.4883300000000  0.5231410000000  0.4505210000000 1.0
C      1  0.5175700000000  0.5466230000000  0.4876190000000 1.0
C      1  0.5285070000000  0.4824860000000  0.5064120000000 1.0
C      1  0.4774510000000  0.4533850000000  0.5298550000000 1.0
C      1  0.4774390000000  0.4639840000000  0.5014410000000 1.0
C      1  0.5396700000000  0.5372750000000  0.5047480000000 1.0
C      1  0.4508090000000  0.4782650000000  0.4928240000000 1.0
C      1  0.5352610000000  0.4831420000000  0.5347300000000 1.0
C      1  0.4475020000000  0.5245400000000  0.5122350000000 1.0
C      1  0.5471230000000  0.4926590000000  0.4868900000000 1.0
C      1  0.4973130000000  0.4525080000000  0.5481560000000 1.0
C      1  0.5440290000000  0.5080560000000  0.5463840000000 1.0
C      1  0.4420290000000  0.5112720000000  0.4578530000000 1.0
C      1  0.4845270000000  0.5200820000000  0.5378310000000 1.0
C      1  0.4480650000000  0.4832500000000  0.4638060000000 1.0
C      1  0.5135870000000  0.5328410000000  0.4609600000000 1.0
C      1  0.5585470000000  0.5082910000000  0.5701870000000 1.0
C      1  0.4149800000000  0.4894310000000  0.5260630000000 1.0
C      1  0.5350620000000  0.5175730000000  0.4495110000000 1.0
C      1  0.4974470000000  0.5624810000000  0.5013390000000 1.0
C      1  0.5000340000000  0.4852210000000  0.5026240000000 1.0
C      1  0.5578740000000  0.5183070000000  0.4938230000000 1.0
C      1  0.4626070000000  0.5401620000000  0.5323070000000 1.0
C      1  0.5473020000000  0.4696820000000  0.4426850000000 1.0
C      1  0.4925300000000  0.4216030000000  0.4687220000000 1.0
C      1  0.4914410000000  0.5124110000000  0.5628110000000 1.0
C      1  0.4366100000000  0.4972040000000  0.5112290000000 1.0
C      1  0.4842570000000  0.4419930000000  0.4826660000000 1.0
C      1  0.4898480000000  0.5105980000000  0.5100790000000 1.0
C      1  0.4647020000000  0.5271200000000  0.4658070000000 1.0
C      1  0.5716580000000  0.5081370000000  0.5927080000000 1.0
C      1  0.4871370000000  0.4972280000000  0.4374440000000 1.0
END
