TITL C-612600-6631-442 0.0533348156757507 125000 -977.829889561521 0 0 161 (C1) n - 1
REM
REM in /home/nfs/bkarasulu/CARBON/AIRSS/Generating-Clusters/TERSOFF/Only-C1/FIRE-HFTN
REM
REM
REM
REM
REM
REM ./C.cell (11c1c37f851c82e70ff6c80c92926a4b)
REM AIRSS Version 0.9.1 bugfix July 2018 build 013d7b7c2542+ Fri, 06 Jul 2018 19:26:36 +0100
REM compiler GCC version 9.2.1 20190827 (Red Hat 9.2.1-1)
REM options -cpp -mtune=generic -march=x86-64 -g -O0 -fpre-include=/usr/include/finclude/math-vector-fortran.h
REM seed -917929636 -1021351022 -1205002750 1230549690 1711248350 -1293565823 -907523783 394691295 808480688 -875574581 2077908749 -1117605266 1232473717 1137591921 -1138394078 -1369096824 -2067805365 -312104051 -1082089841 1740092228 -753435045 -748612797 -1133345525 442975282 -268168081 -2139439633 1231065597 777370590 1228824391 685568063 194663623 990327561 -226176865
REM
CELL 1.54180   50.00000   50.00000   50.00000   90.00000   90.00000   90.00000
LATT -1
SFAC C  
C      1  0.4773540000000  0.3737160000000  0.5014750000000 1.0
C      1  0.4740190000000  0.3856670000000  0.4520660000000 1.0
C      1  0.5461120000000  0.4112040000000  0.5138540000000 1.0
C      1  0.4792900000000  0.5309690000000  0.4570720000000 1.0
C      1  0.4149240000000  0.5436960000000  0.5017060000000 1.0
C      1  0.4218310000000  0.5365990000000  0.5774070000000 1.0
C      1  0.4994690000000  0.5328070000000  0.4187570000000 1.0
C      1  0.5558220000000  0.5277880000000  0.5657700000000 1.0
C      1  0.5685690000000  0.5719610000000  0.4433540000000 1.0
C      1  0.5210470000000  0.5010410000000  0.4850050000000 1.0
C      1  0.5726020000000  0.5458590000000  0.4299830000000 1.0
C      1  0.4582890000000  0.4764030000000  0.4060980000000 1.0
C      1  0.4703560000000  0.5741660000000  0.4238550000000 1.0
C      1  0.5093990000000  0.5574480000000  0.5830660000000 1.0
C      1  0.4187380000000  0.5556240000000  0.5300500000000 1.0
C      1  0.4048610000000  0.4404860000000  0.5183540000000 1.0
C      1  0.4345050000000  0.4900510000000  0.4615970000000 1.0
C      1  0.5970150000000  0.5006890000000  0.4973450000000 1.0
C      1  0.5764080000000  0.5999620000000  0.5123380000000 1.0
C      1  0.4085650000000  0.5425060000000  0.5541460000000 1.0
C      1  0.5526320000000  0.4863880000000  0.6080870000000 1.0
C      1  0.5978120000000  0.4811300000000  0.4170220000000 1.0
C      1  0.5599580000000  0.4646450000000  0.5941620000000 1.0
C      1  0.4883080000000  0.4402170000000  0.4872590000000 1.0
C      1  0.5384170000000  0.5044500000000  0.5554370000000 1.0
C      1  0.5628910000000  0.5359790000000  0.4911360000000 1.0
C      1  0.4969420000000  0.5631560000000  0.4193530000000 1.0
C      1  0.5904780000000  0.5746190000000  0.5171130000000 1.0
C      1  0.5474160000000  0.5575690000000  0.4806750000000 1.0
C      1  0.5233920000000  0.4001800000000  0.4982020000000 1.0
C      1  0.5291700000000  0.5377980000000  0.5277640000000 1.0
C      1  0.6012940000000  0.5210000000000  0.5440130000000 1.0
C      1  0.5257530000000  0.5220200000000  0.4336400000000 1.0
C      1  0.5422410000000  0.4413480000000  0.5059500000000 1.0
C      1  0.5777890000000  0.5630470000000  0.5407830000000 1.0
C      1  0.5258830000000  0.4655950000000  0.4010840000000 1.0
C      1  0.5391070000000  0.4988720000000  0.5081690000000 1.0
C      1  0.5244320000000  0.5744820000000  0.4169990000000 1.0
C      1  0.4441140000000  0.5236630000000  0.5901800000000 1.0
C      1  0.5317430000000  0.6096680000000  0.5038990000000 1.0
C      1  0.5372640000000  0.5575600000000  0.5701000000000 1.0
C      1  0.4523910000000  0.5891970000000  0.4648060000000 1.0
C      1  0.4992500000000  0.5495300000000  0.4604230000000 1.0
C      1  0.4815210000000  0.4088250000000  0.4375430000000 1.0
C      1  0.4316290000000  0.5154120000000  0.4221290000000 1.0
C      1  0.5908220000000  0.4566110000000  0.5213530000000 1.0
C      1  0.4203090000000  0.4386070000000  0.5436470000000 1.0
C      1  0.4637230000000  0.4317130000000  0.4327050000000 1.0
C      1  0.4443480000000  0.5604870000000  0.4238740000000 1.0
C      1  0.5020580000000  0.4522280000000  0.6005320000000 1.0
C      1  0.5371440000000  0.6090210000000  0.4528290000000 1.0
C      1  0.4071220000000  0.5382580000000  0.4662620000000 1.0
C      1  0.6090260000000  0.5112300000000  0.5202930000000 1.0
C      1  0.5818920000000  0.4330620000000  0.5350740000000 1.0
C      1  0.4690860000000  0.4972360000000  0.4923780000000 1.0
C      1  0.4081010000000  0.4562240000000  0.4915610000000 1.0
C      1  0.5020480000000  0.4154770000000  0.4901680000000 1.0
C      1  0.4889550000000  0.4607750000000  0.5534230000000 1.0
C      1  0.4919960000000  0.5339440000000  0.5036700000000 1.0
C      1  0.5063190000000  0.3881110000000  0.6016040000000 1.0
C      1  0.5838750000000  0.5820450000000  0.4676970000000 1.0
C      1  0.5013780000000  0.4549170000000  0.4052930000000 1.0
C      1  0.4557320000000  0.5054050000000  0.4078450000000 1.0
C      1  0.5335440000000  0.5043960000000  0.6136410000000 1.0
C      1  0.5224380000000  0.4341590000000  0.5910720000000 1.0
C      1  0.5469680000000  0.6150550000000  0.4788640000000 1.0
C      1  0.5488960000000  0.4483730000000  0.4765120000000 1.0
C      1  0.4246480000000  0.5170150000000  0.5051000000000 1.0
C      1  0.5290870000000  0.4566230000000  0.5269280000000 1.0
C      1  0.3977300000000  0.4837090000000  0.4900390000000 1.0
C      1  0.4870400000000  0.5549760000000  0.5639550000000 1.0
C      1  0.4673870000000  0.4123440000000  0.5345950000000 1.0
C      1  0.4884250000000  0.5239210000000  0.5583020000000 1.0
C      1  0.4946030000000  0.5088080000000  0.4922360000000 1.0
C      1  0.5070230000000  0.5380850000000  0.3623180000000 1.0
C      1  0.4665100000000  0.5741080000000  0.5563280000000 1.0
C      1  0.4301370000000  0.4535880000000  0.5924170000000 1.0
C      1  0.3959220000000  0.4755220000000  0.5616270000000 1.0
C      1  0.4652600000000  0.5688780000000  0.5056690000000 1.0
C      1  0.5097850000000  0.4106410000000  0.4332480000000 1.0
C      1  0.4548420000000  0.5374650000000  0.4706360000000 1.0
C      1  0.4835540000000  0.5920220000000  0.5086410000000 1.0
C      1  0.4456270000000  0.4956300000000  0.5834330000000 1.0
C      1  0.5143810000000  0.4075760000000  0.5836050000000 1.0
C      1  0.4981890000000  0.3700870000000  0.6185790000000 1.0
C      1  0.4799880000000  0.5200340000000  0.4007740000000 1.0
C      1  0.5497910000000  0.5999740000000  0.5264710000000 1.0
C      1  0.5532010000000  0.4241240000000  0.4586640000000 1.0
C      1  0.5245730000000  0.4593550000000  0.4633130000000 1.0
C      1  0.5514810000000  0.5774610000000  0.5481930000000 1.0
C      1  0.4440170000000  0.5108620000000  0.4824550000000 1.0
C      1  0.4667600000000  0.5953060000000  0.4426500000000 1.0
C      1  0.5766390000000  0.4110880000000  0.5152490000000 1.0
C      1  0.4438610000000  0.4416560000000  0.4536650000000 1.0
C      1  0.5280730000000  0.5517180000000  0.3722310000000 1.0
C      1  0.5130610000000  0.5495630000000  0.5094780000000 1.0
C      1  0.5755910000000  0.4684950000000  0.4082420000000 1.0
C      1  0.4262610000000  0.5411600000000  0.4351400000000 1.0
C      1  0.5428750000000  0.5863680000000  0.4362840000000 1.0
C      1  0.4783510000000  0.3711870000000  0.4743990000000 1.0
C      1  0.5697430000000  0.4696890000000  0.4757370000000 1.0
C      1  0.4956010000000  0.4173360000000  0.5403810000000 1.0
C      1  0.5379510000000  0.4832690000000  0.5327970000000 1.0
C      1  0.4866900000000  0.5242650000000  0.3734670000000 1.0
C      1  0.4558110000000  0.4962970000000  0.5345180000000 1.0
C      1  0.5604940000000  0.4288830000000  0.5572240000000 1.0
C      1  0.4691960000000  0.5424490000000  0.5177920000000 1.0
C      1  0.4530170000000  0.5654740000000  0.4801130000000 1.0
C      1  0.3919450000000  0.5071080000000  0.4705940000000 1.0
C      1  0.6055250000000  0.5058470000000  0.4243080000000 1.0
C      1  0.4703800000000  0.4526830000000  0.5054030000000 1.0
C      1  0.5984960000000  0.5672590000000  0.4894390000000 1.0
C      1  0.5158050000000  0.4038130000000  0.5553760000000 1.0
C      1  0.4482020000000  0.4832780000000  0.5575210000000 1.0
C      1  0.4974720000000  0.5408860000000  0.6051120000000 1.0
C      1  0.4603890000000  0.3925830000000  0.5144550000000 1.0
C      1  0.5489870000000  0.5327050000000  0.4145780000000 1.0
C      1  0.5965440000000  0.5306960000000  0.4292750000000 1.0
C      1  0.5792980000000  0.5156860000000  0.4792150000000 1.0
C      1  0.4794660000000  0.4762410000000  0.4551730000000 1.0
C      1  0.5502540000000  0.5247600000000  0.5137500000000 1.0
C      1  0.4374720000000  0.3955980000000  0.4984130000000 1.0
C      1  0.4525440000000  0.4722390000000  0.6000910000000 1.0
C      1  0.5348160000000  0.5058630000000  0.4583550000000 1.0
C      1  0.4636240000000  0.4790560000000  0.5126990000000 1.0
C      1  0.5376730000000  0.5561070000000  0.3984040000000 1.0
C      1  0.5889870000000  0.4727030000000  0.4977760000000 1.0
C      1  0.4735290000000  0.4527400000000  0.4128270000000 1.0
C      1  0.5524360000000  0.5079460000000  0.3976450000000 1.0
C      1  0.4752210000000  0.6385460000000  0.5224960000000 1.0
C      1  0.4221240000000  0.4351760000000  0.4726400000000 1.0
C      1  0.5506340000000  0.4796490000000  0.4007460000000 1.0
C      1  0.4056700000000  0.4979000000000  0.5144880000000 1.0
C      1  0.4488410000000  0.4334150000000  0.5444400000000 1.0
C      1  0.4668320000000  0.5377820000000  0.6037900000000 1.0
C      1  0.5492020000000  0.4421070000000  0.5810250000000 1.0
C      1  0.4749180000000  0.6011620000000  0.5540750000000 1.0
C      1  0.5735320000000  0.6052980000000  0.4835980000000 1.0
C      1  0.4613030000000  0.4574370000000  0.5555950000000 1.0
C      1  0.3956590000000  0.4915280000000  0.5398550000000 1.0
C      1  0.4523040000000  0.4687880000000  0.4578010000000 1.0
C      1  0.4927450000000  0.4990530000000  0.5876080000000 1.0
C      1  0.4164550000000  0.4097970000000  0.4871180000000 1.0
C      1  0.5803010000000  0.5370480000000  0.5531760000000 1.0
C      1  0.4664930000000  0.5220420000000  0.5380700000000 1.0
C      1  0.4779640000000  0.6121030000000  0.5282620000000 1.0
C      1  0.5100940000000  0.5922280000000  0.4978780000000 1.0
C      1  0.4826010000000  0.4733190000000  0.5983590000000 1.0
C      1  0.4973780000000  0.4579350000000  0.4666500000000 1.0
C      1  0.4835580000000  0.5036520000000  0.4492320000000 1.0
C      1  0.4417120000000  0.5698350000000  0.5415980000000 1.0
C      1  0.3962000000000  0.4147010000000  0.5072940000000 1.0
C      1  0.5414990000000  0.4091950000000  0.5443470000000 1.0
C      1  0.5353330000000  0.4126740000000  0.4416380000000 1.0
C      1  0.4198720000000  0.4955950000000  0.4383070000000 1.0
C      1  0.5225960000000  0.5673030000000  0.4906400000000 1.0
C      1  0.5057070000000  0.4449090000000  0.5382920000000 1.0
C      1  0.5628800000000  0.4964410000000  0.4635780000000 1.0
C      1  0.5156420000000  0.5209340000000  0.5469980000000 1.0
C      1  0.4120840000000  0.4529300000000  0.5682830000000 1.0
C      1  0.5088460000000  0.5143840000000  0.6052920000000 1.0
END
