TITL C-612606-7351-687 7.93660882234747e-06 125000 -177.388492477965 0 0 30 (C1) n - 1
REM
REM in /home/nfs/bkarasulu/CARBON/AIRSS/Generating-Clusters/TERSOFF/Only-C1/FIRE-HFTN
REM
REM
REM
REM
REM
REM ./C.cell (11c1c37f851c82e70ff6c80c92926a4b)
REM AIRSS Version 0.9.1 bugfix July 2018 build 013d7b7c2542+ Fri, 06 Jul 2018 19:26:36 +0100
REM compiler GCC version 9.2.1 20190827 (Red Hat 9.2.1-1)
REM options -cpp -mtune=generic -march=x86-64 -g -O0 -fpre-include=/usr/include/finclude/math-vector-fortran.h
REM seed 626158169 1494208499 786477827 -955296055 -589562164 724814247 1341484933 -1093712049 -306892293 2118365421 -1158479138 -561853880 -684720912 303879415 2081168699 1554377929 835064755 -2005929410 284036793 -46914887 2023145389 -1024648203 -807217101 -642050362 1676133709 1437603170 -1491254030 -430520112 -247800923 2092013062 -651148873 1796478518 2045934276
REM
CELL 1.54180   50.00000   50.00000   50.00000   90.00000   90.00000   90.00000
LATT -1
SFAC C  
C      1  0.5021920000000  0.5261450000000  0.5529630000000 1.0
C      1  0.4673310000000  0.5616430000000  0.5084980000000 1.0
C      1  0.4479790000000  0.4976670000000  0.5219880000000 1.0
C      1  0.4426960000000  0.4981940000000  0.4939250000000 1.0
C      1  0.5213980000000  0.5298810000000  0.5326960000000 1.0
C      1  0.5631850000000  0.5045470000000  0.5187770000000 1.0
C      1  0.5168390000000  0.5175490000000  0.4600400000000 1.0
C      1  0.4495670000000  0.5467990000000  0.5223510000000 1.0
C      1  0.5016960000000  0.4883820000000  0.4938060000000 1.0
C      1  0.5480010000000  0.5210070000000  0.5335920000000 1.0
C      1  0.4826340000000  0.4221020000000  0.4680510000000 1.0
C      1  0.5108050000000  0.5354580000000  0.5066020000000 1.0
C      1  0.5429300000000  0.5088640000000  0.4523900000000 1.0
C      1  0.5570510000000  0.4935990000000  0.4718230000000 1.0
C      1  0.5114560000000  0.5142740000000  0.4879540000000 1.0
C      1  0.4817490000000  0.4475400000000  0.4736390000000 1.0
C      1  0.4541930000000  0.5221300000000  0.5354260000000 1.0
C      1  0.5537860000000  0.5149170000000  0.4281100000000 1.0
C      1  0.4932050000000  0.5570830000000  0.5026910000000 1.0
C      1  0.5473180000000  0.4608620000000  0.5076910000000 1.0
C      1  0.4928830000000  0.5188140000000  0.4447070000000 1.0
C      1  0.5034850000000  0.4486950000000  0.5331470000000 1.0
C      1  0.4755790000000  0.5222160000000  0.5540900000000 1.0
C      1  0.4812260000000  0.4744440000000  0.4802560000000 1.0
C      1  0.5276930000000  0.4492860000000  0.5217710000000 1.0
C      1  0.4577210000000  0.4736460000000  0.5333430000000 1.0
C      1  0.4784820000000  0.4572220000000  0.5373620000000 1.0
C      1  0.4601220000000  0.4923520000000  0.4723900000000 1.0
C      1  0.4679950000000  0.5096210000000  0.4511700000000 1.0
C      1  0.5588040000000  0.4850610000000  0.4987510000000 1.0
END
