TITL C-612604-1799-242 6.05346562698426e-05 125000 -397.786592132009 0 0 65 (C1) n - 1
REM
REM in /home/nfs/bkarasulu/CARBON/AIRSS/Generating-Clusters/TERSOFF/Only-C1/FIRE-HFTN
REM
REM
REM
REM
REM
REM ./C.cell (11c1c37f851c82e70ff6c80c92926a4b)
REM AIRSS Version 0.9.1 bugfix July 2018 build 013d7b7c2542+ Fri, 06 Jul 2018 19:26:36 +0100
REM compiler GCC version 9.2.1 20190827 (Red Hat 9.2.1-1)
REM options -cpp -mtune=generic -march=x86-64 -g -O0 -fpre-include=/usr/include/finclude/math-vector-fortran.h
REM seed -903281035 991864872 -37750579 -1130634091 -298630034 1622557099 -1918172806 2056664260 315621380 -981435990 -2098344657 2138599188 1493123064 -1283343029 -1306607633 -220665229 -306352879 -286842477 -1529071883 -101986596 -117766395 591418895 1959835366 2134523337 392722572 920483328 198178245 -322877308 1075113501 -585934672 1890738621 -1943836909 -783861970
REM
CELL 1.54180   50.00000   50.00000   50.00000   90.00000   90.00000   90.00000
LATT -1
SFAC C  
C      1  0.4482740000000  0.5562100000000  0.5382120000000 1.0
C      1  0.4565470000000  0.3779000000000  0.4928870000000 1.0
C      1  0.4674840000000  0.5380500000000  0.5292380000000 1.0
C      1  0.5165630000000  0.4492600000000  0.4760220000000 1.0
C      1  0.4928270000000  0.4637240000000  0.4827920000000 1.0
C      1  0.4499960000000  0.4761520000000  0.5589450000000 1.0
C      1  0.5382650000000  0.5772570000000  0.5193450000000 1.0
C      1  0.5123420000000  0.4999700000000  0.5146500000000 1.0
C      1  0.5286170000000  0.5553890000000  0.4776800000000 1.0
C      1  0.4871810000000  0.5283200000000  0.5462980000000 1.0
C      1  0.5490080000000  0.5764890000000  0.5452340000000 1.0
C      1  0.4807000000000  0.4647630000000  0.4184040000000 1.0
C      1  0.5176190000000  0.4734930000000  0.5848590000000 1.0
C      1  0.4912570000000  0.4724370000000  0.5893950000000 1.0
C      1  0.4348210000000  0.5790940000000  0.5350110000000 1.0
C      1  0.5427740000000  0.4901780000000  0.4744360000000 1.0
C      1  0.4349420000000  0.4973480000000  0.4884490000000 1.0
C      1  0.4899820000000  0.4270140000000  0.5299700000000 1.0
C      1  0.4664290000000  0.4758190000000  0.5801030000000 1.0
C      1  0.5454590000000  0.5561950000000  0.5008520000000 1.0
C      1  0.5847690000000  0.5185740000000  0.4358890000000 1.0
C      1  0.4497280000000  0.4669110000000  0.5322440000000 1.0
C      1  0.5228950000000  0.4292580000000  0.4948080000000 1.0
C      1  0.5480810000000  0.4985710000000  0.4044370000000 1.0
C      1  0.4350510000000  0.4808430000000  0.5118700000000 1.0
C      1  0.5018720000000  0.5557850000000  0.4675790000000 1.0
C      1  0.4308110000000  0.5963530000000  0.5147870000000 1.0
C      1  0.4823140000000  0.5745660000000  0.4781950000000 1.0
C      1  0.4692700000000  0.3818530000000  0.5159740000000 1.0
C      1  0.5554150000000  0.5550860000000  0.5601810000000 1.0
C      1  0.5369710000000  0.4654840000000  0.4650670000000 1.0
C      1  0.5243460000000  0.4873140000000  0.4005070000000 1.0
C      1  0.4390460000000  0.5942000000000  0.4891740000000 1.0
C      1  0.5309870000000  0.5116740000000  0.5587830000000 1.0
C      1  0.4528640000000  0.5720680000000  0.4776190000000 1.0
C      1  0.5499570000000  0.4706730000000  0.5457370000000 1.0
C      1  0.4749990000000  0.5171470000000  0.4771770000000 1.0
C      1  0.4588140000000  0.4942630000000  0.4725390000000 1.0
C      1  0.4940890000000  0.5927010000000  0.4967700000000 1.0
C      1  0.4535680000000  0.4316390000000  0.4420200000000 1.0
C      1  0.4485810000000  0.3879500000000  0.4695540000000 1.0
C      1  0.4251940000000  0.5243860000000  0.4841210000000 1.0
C      1  0.4715620000000  0.4702490000000  0.4654080000000 1.0
C      1  0.5374160000000  0.4467850000000  0.5369990000000 1.0
C      1  0.4474780000000  0.4076540000000  0.4517190000000 1.0
C      1  0.5692940000000  0.5090940000000  0.4164770000000 1.0
C      1  0.4361450000000  0.5483100000000  0.4759640000000 1.0
C      1  0.4822350000000  0.3999090000000  0.5307660000000 1.0
C      1  0.5098390000000  0.5135320000000  0.5398780000000 1.0
C      1  0.5174970000000  0.4325530000000  0.5226530000000 1.0
C      1  0.4950070000000  0.4792630000000  0.5067100000000 1.0
C      1  0.4673620000000  0.4559400000000  0.4413830000000 1.0
C      1  0.5664580000000  0.5362660000000  0.5063210000000 1.0
C      1  0.5853340000000  0.5323780000000  0.4858080000000 1.0
C      1  0.4911480000000  0.5311410000000  0.4592790000000 1.0
C      1  0.5322740000000  0.5041510000000  0.4949950000000 1.0
C      1  0.5666080000000  0.5181330000000  0.5293170000000 1.0
C      1  0.4708570000000  0.5295330000000  0.5026670000000 1.0
C      1  0.5909990000000  0.5264950000000  0.4604920000000 1.0
C      1  0.5160000000000  0.5931770000000  0.5123890000000 1.0
C      1  0.5533420000000  0.5281940000000  0.5529530000000 1.0
C      1  0.5008850000000  0.4757130000000  0.4050450000000 1.0
C      1  0.5672710000000  0.4887420000000  0.5303570000000 1.0
C      1  0.4684420000000  0.4457350000000  0.5278280000000 1.0
C      1  0.5358410000000  0.4846910000000  0.5667800000000 1.0
END
