TITL C-612604-1799-911 0.00228552078764444 125000 -702.023524211375 0 0 116 (C1) n - 1
REM
REM in /home/nfs/bkarasulu/CARBON/AIRSS/Generating-Clusters/TERSOFF/Only-C1/FIRE-HFTN
REM
REM
REM
REM
REM
REM ./C.cell (11c1c37f851c82e70ff6c80c92926a4b)
REM AIRSS Version 0.9.1 bugfix July 2018 build 013d7b7c2542+ Fri, 06 Jul 2018 19:26:36 +0100
REM compiler GCC version 9.2.1 20190827 (Red Hat 9.2.1-1)
REM options -cpp -mtune=generic -march=x86-64 -g -O0 -fpre-include=/usr/include/finclude/math-vector-fortran.h
REM seed 2145406299 1478165105 1372781038 -271052912 1146778697 -478718579 -270594353 -2049548910 134603657 370931169 -1101056572 -1232619125 -694887459 -1614200656 -978449439 -630467705 -949618584 1113115955 -1495201812 -1085208476 -119649053 633086851 -1687482818 1278225600 -1248210996 -48778776 645992898 -791574882 -1790391902 -946307206 731121602 744594658 1045195915
REM
CELL 1.54180   50.00000   50.00000   50.00000   90.00000   90.00000   90.00000
LATT -1
SFAC C  
C      1  0.4458470000000  0.4248690000000  0.5043880000000 1.0
C      1  0.4576330000000  0.4965260000000  0.3866640000000 1.0
C      1  0.4993340000000  0.4723160000000  0.4896870000000 1.0
C      1  0.5541340000000  0.5442190000000  0.5016740000000 1.0
C      1  0.3869950000000  0.5773680000000  0.5324990000000 1.0
C      1  0.4758820000000  0.4084110000000  0.4347230000000 1.0
C      1  0.4233320000000  0.4407160000000  0.4980260000000 1.0
C      1  0.5415190000000  0.4864180000000  0.5168800000000 1.0
C      1  0.5795100000000  0.5208630000000  0.5441390000000 1.0
C      1  0.5008670000000  0.3972190000000  0.4412150000000 1.0
C      1  0.5513820000000  0.5881580000000  0.4968680000000 1.0
C      1  0.5879350000000  0.4764830000000  0.5272470000000 1.0
C      1  0.4252920000000  0.4689860000000  0.4959480000000 1.0
C      1  0.4957510000000  0.4789460000000  0.5551670000000 1.0
C      1  0.4618290000000  0.5421990000000  0.4124200000000 1.0
C      1  0.4933060000000  0.4685090000000  0.5825540000000 1.0
C      1  0.4115730000000  0.5506530000000  0.4753370000000 1.0
C      1  0.5204670000000  0.4581370000000  0.5860490000000 1.0
C      1  0.4645760000000  0.4670130000000  0.5843220000000 1.0
C      1  0.4256080000000  0.5497420000000  0.5401950000000 1.0
C      1  0.4893300000000  0.5135780000000  0.5264250000000 1.0
C      1  0.4587460000000  0.5588730000000  0.5747980000000 1.0
C      1  0.4616320000000  0.4267190000000  0.4216200000000 1.0
C      1  0.5166310000000  0.4032870000000  0.5387400000000 1.0
C      1  0.5116770000000  0.6148390000000  0.5583160000000 1.0
C      1  0.5401530000000  0.4780180000000  0.5938950000000 1.0
C      1  0.5115690000000  0.4048630000000  0.4927070000000 1.0
C      1  0.4431570000000  0.5374950000000  0.4342880000000 1.0
C      1  0.5378120000000  0.4921240000000  0.4062280000000 1.0
C      1  0.4833250000000  0.5726430000000  0.4967410000000 1.0
C      1  0.5124120000000  0.5365930000000  0.4800730000000 1.0
C      1  0.4577280000000  0.4959750000000  0.5892110000000 1.0
C      1  0.5712050000000  0.4394640000000  0.4892480000000 1.0
C      1  0.4098940000000  0.5657140000000  0.5229460000000 1.0
C      1  0.5316750000000  0.4160300000000  0.4049600000000 1.0
C      1  0.5719310000000  0.4678760000000  0.5521930000000 1.0
C      1  0.4496770000000  0.4138340000000  0.5301060000000 1.0
C      1  0.5493770000000  0.4508450000000  0.5456220000000 1.0
C      1  0.5532740000000  0.5828970000000  0.4679920000000 1.0
C      1  0.4162000000000  0.4793720000000  0.5425890000000 1.0
C      1  0.4596220000000  0.5226050000000  0.3919610000000 1.0
C      1  0.4531800000000  0.4468550000000  0.5658050000000 1.0
C      1  0.5392210000000  0.4598930000000  0.4492420000000 1.0
C      1  0.5034910000000  0.5980500000000  0.5395100000000 1.0
C      1  0.5926060000000  0.4823290000000  0.4344640000000 1.0
C      1  0.5396460000000  0.4549650000000  0.5169310000000 1.0
C      1  0.5199960000000  0.6305300000000  0.5773980000000 1.0
C      1  0.4957520000000  0.5659570000000  0.6085030000000 1.0
C      1  0.4559750000000  0.4706760000000  0.3928350000000 1.0
C      1  0.5373310000000  0.5187000000000  0.4009680000000 1.0
C      1  0.5633940000000  0.5556640000000  0.4597730000000 1.0
C      1  0.5251840000000  0.4456360000000  0.5599630000000 1.0
C      1  0.5027570000000  0.5134300000000  0.4397110000000 1.0
C      1  0.5434130000000  0.5423470000000  0.4421920000000 1.0
C      1  0.5438810000000  0.5004810000000  0.4927950000000 1.0
C      1  0.4114270000000  0.4850870000000  0.5147610000000 1.0
C      1  0.5468030000000  0.4655320000000  0.4187850000000 1.0
C      1  0.5845130000000  0.4937020000000  0.4572790000000 1.0
C      1  0.4925900000000  0.4986960000000  0.5025520000000 1.0
C      1  0.5064720000000  0.5028970000000  0.5460490000000 1.0
C      1  0.4968550000000  0.5824430000000  0.5191290000000 1.0
C      1  0.5335730000000  0.5268370000000  0.4954100000000 1.0
C      1  0.5052590000000  0.5164780000000  0.6109910000000 1.0
C      1  0.5502420000000  0.5675250000000  0.5173330000000 1.0
C      1  0.5140960000000  0.5644070000000  0.4130850000000 1.0
C      1  0.5085250000000  0.3929050000000  0.4678800000000 1.0
C      1  0.5342610000000  0.5045340000000  0.5397060000000 1.0
C      1  0.4485260000000  0.4792500000000  0.4824080000000 1.0
C      1  0.4657920000000  0.4225520000000  0.5525390000000 1.0
C      1  0.5517330000000  0.5270500000000  0.5470880000000 1.0
C      1  0.5183570000000  0.5323430000000  0.4532570000000 1.0
C      1  0.4560280000000  0.4476650000000  0.4061950000000 1.0
C      1  0.5772030000000  0.4681450000000  0.4176220000000 1.0
C      1  0.4926820000000  0.4099550000000  0.5517940000000 1.0
C      1  0.4707740000000  0.4614400000000  0.4830370000000 1.0
C      1  0.5457840000000  0.5555680000000  0.5433760000000 1.0
C      1  0.4952950000000  0.4269210000000  0.5000530000000 1.0
C      1  0.5356530000000  0.5439850000000  0.4138520000000 1.0
C      1  0.5380430000000  0.4418310000000  0.4030400000000 1.0
C      1  0.4648360000000  0.5278380000000  0.4840130000000 1.0
C      1  0.5200510000000  0.3979140000000  0.4207260000000 1.0
C      1  0.4628270000000  0.5888120000000  0.4865890000000 1.0
C      1  0.5600020000000  0.4463840000000  0.4639840000000 1.0
C      1  0.4484910000000  0.5378250000000  0.5565440000000 1.0
C      1  0.3992170000000  0.5271050000000  0.4850640000000 1.0
C      1  0.4693040000000  0.4337720000000  0.4912670000000 1.0
C      1  0.5092690000000  0.4517780000000  0.5121890000000 1.0
C      1  0.4174140000000  0.5700440000000  0.4956170000000 1.0
C      1  0.4782870000000  0.5085820000000  0.6051170000000 1.0
C      1  0.5632140000000  0.4954080000000  0.4733150000000 1.0
C      1  0.4362850000000  0.5896950000000  0.4892000000000 1.0
C      1  0.4753120000000  0.5706290000000  0.5919490000000 1.0
C      1  0.3986340000000  0.5075380000000  0.5034690000000 1.0
C      1  0.5217710000000  0.5883940000000  0.4268390000000 1.0
C      1  0.5504650000000  0.4286280000000  0.5060280000000 1.0
C      1  0.5025280000000  0.4547840000000  0.5413250000000 1.0
C      1  0.4243310000000  0.5526670000000  0.4495240000000 1.0
C      1  0.5002110000000  0.4869940000000  0.4425110000000 1.0
C      1  0.4866300000000  0.5460900000000  0.4871030000000 1.0
C      1  0.5323090000000  0.4065200000000  0.5130180000000 1.0
C      1  0.5652720000000  0.4782060000000  0.5788820000000 1.0
C      1  0.5942170000000  0.5224900000000  0.4977110000000 1.0
C      1  0.4689890000000  0.5299070000000  0.5360230000000 1.0
C      1  0.5762520000000  0.5417470000000  0.4833100000000 1.0
C      1  0.5912130000000  0.5058840000000  0.5225090000000 1.0
C      1  0.4404390000000  0.5123100000000  0.5720210000000 1.0
C      1  0.4519810000000  0.5054790000000  0.4716570000000 1.0
C      1  0.4169880000000  0.5002920000000  0.5613920000000 1.0
C      1  0.5887990000000  0.4572150000000  0.5048590000000 1.0
C      1  0.4448270000000  0.5109920000000  0.4450000000000 1.0
C      1  0.5282360000000  0.5000840000000  0.6073160000000 1.0
C      1  0.4861240000000  0.5575210000000  0.4120010000000 1.0
C      1  0.5369450000000  0.5953190000000  0.4482070000000 1.0
C      1  0.4293930000000  0.4560780000000  0.5522290000000 1.0
C      1  0.5086480000000  0.5438860000000  0.6165200000000 1.0
C      1  0.5141780000000  0.4705430000000  0.4610020000000 1.0
END
