TITL C-612605-9286-106 0.0079569112779359 125000 -575.005093555402 0 0 96 (C1) n - 1
REM
REM in /home/nfs/bkarasulu/CARBON/AIRSS/Generating-Clusters/TERSOFF/Only-C1/FIRE-HFTN
REM
REM
REM
REM
REM
REM ./C.cell (11c1c37f851c82e70ff6c80c92926a4b)
REM AIRSS Version 0.9.1 bugfix July 2018 build 013d7b7c2542+ Fri, 06 Jul 2018 19:26:36 +0100
REM compiler GCC version 9.2.1 20190827 (Red Hat 9.2.1-1)
REM options -cpp -mtune=generic -march=x86-64 -g -O0 -fpre-include=/usr/include/finclude/math-vector-fortran.h
REM seed 554368566 -954285769 -1008999667 697660928 -196313945 -890195421 -754106627 605084123 -1121129597 637197438 1133739390 19616860 905319382 1252827251 324431835 1846486448 -1313388456 -2080928928 -1956261973 -1895885146 -161294657 -179714027 679881417 -22102534 -1602060927 -2093637535 1590591451 -438802547 -342919185 -157533030 -1007923094 -831785872 1207489987
REM
CELL 1.54180   50.00000   50.00000   50.00000   90.00000   90.00000   90.00000
LATT -1
SFAC C  
C      1  0.4709110000000  0.3983750000000  0.4759460000000 1.0
C      1  0.5531640000000  0.4525770000000  0.5313390000000 1.0
C      1  0.4702600000000  0.5146890000000  0.5356350000000 1.0
C      1  0.4653210000000  0.4477450000000  0.4993580000000 1.0
C      1  0.5668920000000  0.5639840000000  0.4536490000000 1.0
C      1  0.6187360000000  0.5872740000000  0.5040280000000 1.0
C      1  0.6196800000000  0.4873480000000  0.4583060000000 1.0
C      1  0.6232520000000  0.5727330000000  0.5719700000000 1.0
C      1  0.5320910000000  0.5035420000000  0.5287230000000 1.0
C      1  0.4738240000000  0.5727990000000  0.4704260000000 1.0
C      1  0.4348920000000  0.4829410000000  0.4867510000000 1.0
C      1  0.4695630000000  0.5458940000000  0.4807210000000 1.0
C      1  0.5817370000000  0.5421690000000  0.5716370000000 1.0
C      1  0.4930850000000  0.5406060000000  0.4978570000000 1.0
C      1  0.4936100000000  0.5084890000000  0.5944840000000 1.0
C      1  0.5535860000000  0.5217020000000  0.5357280000000 1.0
C      1  0.4802030000000  0.4017380000000  0.5032270000000 1.0
C      1  0.5159430000000  0.5578980000000  0.5731050000000 1.0
C      1  0.4267270000000  0.5188990000000  0.5529300000000 1.0
C      1  0.4783700000000  0.5311960000000  0.5582190000000 1.0
C      1  0.4045230000000  0.4615440000000  0.5158440000000 1.0
C      1  0.4402200000000  0.4487560000000  0.4560970000000 1.0
C      1  0.4955090000000  0.4072540000000  0.4612030000000 1.0
C      1  0.4246570000000  0.4843230000000  0.4271720000000 1.0
C      1  0.4661780000000  0.4227120000000  0.5168820000000 1.0
C      1  0.4991480000000  0.4761290000000  0.5557500000000 1.0
C      1  0.4171630000000  0.4387030000000  0.5005510000000 1.0
C      1  0.5188620000000  0.5114750000000  0.5795200000000 1.0
C      1  0.3925000000000  0.4854060000000  0.4679150000000 1.0
C      1  0.4419250000000  0.3996100000000  0.4757810000000 1.0
C      1  0.4411600000000  0.5021360000000  0.5731700000000 1.0
C      1  0.4062580000000  0.5116870000000  0.5104150000000 1.0
C      1  0.4999480000000  0.4251890000000  0.5518060000000 1.0
C      1  0.6341200000000  0.5873190000000  0.5525130000000 1.0
C      1  0.4930210000000  0.5555830000000  0.5564930000000 1.0
C      1  0.4778210000000  0.4861690000000  0.5370100000000 1.0
C      1  0.5306490000000  0.5379660000000  0.4692300000000 1.0
C      1  0.3768140000000  0.4870150000000  0.4216170000000 1.0
C      1  0.4095420000000  0.4750000000000  0.5426800000000 1.0
C      1  0.4292000000000  0.4751690000000  0.5658630000000 1.0
C      1  0.5930300000000  0.5294860000000  0.4333840000000 1.0
C      1  0.4682810000000  0.4879160000000  0.4536090000000 1.0
C      1  0.6036620000000  0.5557410000000  0.5778460000000 1.0
C      1  0.4722970000000  0.4245070000000  0.5446640000000 1.0
C      1  0.4483640000000  0.5277280000000  0.4829450000000 1.0
C      1  0.4443620000000  0.5256930000000  0.5306130000000 1.0
C      1  0.5116870000000  0.4498440000000  0.5606520000000 1.0
C      1  0.4683200000000  0.5143370000000  0.5810810000000 1.0
C      1  0.4510970000000  0.5067630000000  0.3929060000000 1.0
C      1  0.5189600000000  0.4750440000000  0.4751860000000 1.0
C      1  0.5888260000000  0.5562380000000  0.4717290000000 1.0
C      1  0.5078390000000  0.4586150000000  0.5171670000000 1.0
C      1  0.4800690000000  0.5992370000000  0.5403260000000 1.0
C      1  0.4587070000000  0.5858800000000  0.4520590000000 1.0
C      1  0.4212650000000  0.4117070000000  0.4901330000000 1.0
C      1  0.5233700000000  0.5003070000000  0.4995160000000 1.0
C      1  0.6034340000000  0.5077630000000  0.4189750000000 1.0
C      1  0.4825600000000  0.4483660000000  0.4742500000000 1.0
C      1  0.5572430000000  0.5342730000000  0.5612120000000 1.0
C      1  0.5161570000000  0.4089480000000  0.5335830000000 1.0
C      1  0.5226900000000  0.5849140000000  0.4699680000000 1.0
C      1  0.5782340000000  0.4637290000000  0.5259510000000 1.0
C      1  0.6164310000000  0.4873960000000  0.4313540000000 1.0
C      1  0.4080190000000  0.4951480000000  0.3554770000000 1.0
C      1  0.4397340000000  0.4536020000000  0.4864790000000 1.0
C      1  0.5148380000000  0.5251860000000  0.4884780000000 1.0
C      1  0.4979670000000  0.5833880000000  0.4839870000000 1.0
C      1  0.4052040000000  0.5046210000000  0.5388910000000 1.0
C      1  0.6089430000000  0.5029770000000  0.5037880000000 1.0
C      1  0.5332630000000  0.5359940000000  0.5769650000000 1.0
C      1  0.6224880000000  0.5196960000000  0.5207400000000 1.0
C      1  0.3801540000000  0.4908410000000  0.3951150000000 1.0
C      1  0.4904870000000  0.5744290000000  0.5352280000000 1.0
C      1  0.5172940000000  0.4188380000000  0.4791450000000 1.0
C      1  0.5950630000000  0.4808310000000  0.5142970000000 1.0
C      1  0.4983310000000  0.5673300000000  0.5090560000000 1.0
C      1  0.5403550000000  0.5638140000000  0.4629130000000 1.0
C      1  0.6016570000000  0.5738880000000  0.4887940000000 1.0
C      1  0.5996630000000  0.5308780000000  0.4625350000000 1.0
C      1  0.4522370000000  0.5014240000000  0.4737400000000 1.0
C      1  0.4054790000000  0.4860630000000  0.4946120000000 1.0
C      1  0.4919690000000  0.4733850000000  0.4630790000000 1.0
C      1  0.4306430000000  0.5281090000000  0.5055530000000 1.0
C      1  0.5742150000000  0.5506380000000  0.4288260000000 1.0
C      1  0.5342180000000  0.4505540000000  0.5104590000000 1.0
C      1  0.4470780000000  0.4716440000000  0.4398390000000 1.0
C      1  0.6317340000000  0.5927380000000  0.5265520000000 1.0
C      1  0.5094310000000  0.4054580000000  0.5059610000000 1.0
C      1  0.5303100000000  0.4467120000000  0.4817620000000 1.0
C      1  0.3982030000000  0.4852430000000  0.4401190000000 1.0
C      1  0.4052840000000  0.4938290000000  0.3825770000000 1.0
C      1  0.6098270000000  0.5076030000000  0.4757740000000 1.0
C      1  0.5407300000000  0.4501660000000  0.5571620000000 1.0
C      1  0.5190440000000  0.4965150000000  0.5548260000000 1.0
C      1  0.4805830000000  0.4673150000000  0.5160100000000 1.0
C      1  0.4275960000000  0.4949640000000  0.4005990000000 1.0
END
