TITL C-612600-6631-1392 -0.0069568165955592 125000 -1227.70678638048 0 0 198 (C1) n - 1
REM
REM in /home/nfs/bkarasulu/CARBON/AIRSS/Generating-Clusters/TERSOFF/Only-C1/FIRE-HFTN
REM
REM
REM
REM
REM
REM ./C.cell (11c1c37f851c82e70ff6c80c92926a4b)
REM AIRSS Version 0.9.1 bugfix July 2018 build 013d7b7c2542+ Fri, 06 Jul 2018 19:26:36 +0100
REM compiler GCC version 9.2.1 20190827 (Red Hat 9.2.1-1)
REM options -cpp -mtune=generic -march=x86-64 -g -O0 -fpre-include=/usr/include/finclude/math-vector-fortran.h
REM seed 2051681216 -1949655507 -2023055829 854434150 312522426 -1558669305 1940913466 78028365 -1554496745 448846689 -157060500 1834308867 2125739198 -313370117 1675818162 1261734532 -1775424214 -1513242024 -1987876062 -821817797 1193857831 836185904 970484705 1747618266 -160150692 -2088208203 -796850460 -1464969292 1294266978 1234640989 -1049539327 -1082362849 -125706536
REM
CELL 1.54180   50.00000   50.00000   50.00000   90.00000   90.00000   90.00000
LATT -1
SFAC C  
C      1  0.5291790000000  0.6051430000000  0.4881180000000 1.0
C      1  0.3977940000000  0.4983320000000  0.5076430000000 1.0
C      1  0.5321880000000  0.4787170000000  0.5547730000000 1.0
C      1  0.5474130000000  0.5626170000000  0.3528080000000 1.0
C      1  0.4171420000000  0.5652110000000  0.5579610000000 1.0
C      1  0.4706450000000  0.4481610000000  0.5545260000000 1.0
C      1  0.5113260000000  0.4084720000000  0.4608310000000 1.0
C      1  0.5594530000000  0.4179600000000  0.4940190000000 1.0
C      1  0.3491100000000  0.5001770000000  0.5819440000000 1.0
C      1  0.4365220000000  0.4150890000000  0.5029050000000 1.0
C      1  0.5590890000000  0.5071690000000  0.5924300000000 1.0
C      1  0.4280350000000  0.4753770000000  0.3870760000000 1.0
C      1  0.5103490000000  0.6227720000000  0.4428510000000 1.0
C      1  0.5607280000000  0.5407970000000  0.4250730000000 1.0
C      1  0.5353110000000  0.4678390000000  0.4008760000000 1.0
C      1  0.4575380000000  0.5509040000000  0.4984710000000 1.0
C      1  0.5009080000000  0.3938200000000  0.4391460000000 1.0
C      1  0.5072350000000  0.4902260000000  0.5453340000000 1.0
C      1  0.5910040000000  0.5256190000000  0.5195020000000 1.0
C      1  0.4242670000000  0.5240030000000  0.4004390000000 1.0
C      1  0.5574690000000  0.4504390000000  0.5285590000000 1.0
C      1  0.4255480000000  0.4783330000000  0.5720340000000 1.0
C      1  0.5218000000000  0.5390500000000  0.5205940000000 1.0
C      1  0.5053470000000  0.5428400000000  0.5950850000000 1.0
C      1  0.5530050000000  0.5572550000000  0.4711550000000 1.0
C      1  0.6305050000000  0.6313150000000  0.5566610000000 1.0
C      1  0.5705230000000  0.5559790000000  0.4479720000000 1.0
C      1  0.4393900000000  0.5981840000000  0.5008310000000 1.0
C      1  0.6136560000000  0.6157780000000  0.5433760000000 1.0
C      1  0.4531520000000  0.5437430000000  0.4720380000000 1.0
C      1  0.5077590000000  0.4265980000000  0.3996270000000 1.0
C      1  0.6080310000000  0.5491270000000  0.4793180000000 1.0
C      1  0.4909510000000  0.3732330000000  0.5624030000000 1.0
C      1  0.5500200000000  0.5298500000000  0.4813760000000 1.0
C      1  0.4757740000000  0.5729130000000  0.5779550000000 1.0
C      1  0.6165410000000  0.5640560000000  0.4338240000000 1.0
C      1  0.5330730000000  0.5771660000000  0.4802550000000 1.0
C      1  0.4885830000000  0.5973750000000  0.5821580000000 1.0
C      1  0.4961390000000  0.4097330000000  0.5283110000000 1.0
C      1  0.4772010000000  0.5524300000000  0.5981590000000 1.0
C      1  0.4125510000000  0.5010780000000  0.4567500000000 1.0
C      1  0.5506800000000  0.3916880000000  0.4909150000000 1.0
C      1  0.5964570000000  0.4505510000000  0.4446910000000 1.0
C      1  0.4500240000000  0.4596150000000  0.6109800000000 1.0
C      1  0.4667120000000  0.5021350000000  0.5153270000000 1.0
C      1  0.3782820000000  0.5108320000000  0.4306040000000 1.0
C      1  0.4544840000000  0.4851260000000  0.4403470000000 1.0
C      1  0.4513310000000  0.4322300000000  0.5687160000000 1.0
C      1  0.5056380000000  0.4038930000000  0.4134620000000 1.0
C      1  0.5300430000000  0.5342480000000  0.5469230000000 1.0
C      1  0.4897520000000  0.5711280000000  0.5324490000000 1.0
C      1  0.5490650000000  0.4859380000000  0.4632230000000 1.0
C      1  0.5179430000000  0.5518360000000  0.3967070000000 1.0
C      1  0.4986480000000  0.4975590000000  0.6182550000000 1.0
C      1  0.5575720000000  0.4532630000000  0.5940140000000 1.0
C      1  0.5705130000000  0.4264050000000  0.5198420000000 1.0
C      1  0.5987860000000  0.5563800000000  0.4531920000000 1.0
C      1  0.4399380000000  0.5484290000000  0.4096850000000 1.0
C      1  0.4628880000000  0.4628120000000  0.4205330000000 1.0
C      1  0.5802790000000  0.4609380000000  0.5746820000000 1.0
C      1  0.5108800000000  0.5003510000000  0.4941350000000 1.0
C      1  0.5107020000000  0.3587700000000  0.4975580000000 1.0
C      1  0.4280230000000  0.5521580000000  0.4587340000000 1.0
C      1  0.4253270000000  0.5906540000000  0.5454980000000 1.0
C      1  0.4980190000000  0.6110880000000  0.4222910000000 1.0
C      1  0.5360780000000  0.6098270000000  0.5644200000000 1.0
C      1  0.6021180000000  0.5245680000000  0.4929690000000 1.0
C      1  0.4578860000000  0.3803160000000  0.4626620000000 1.0
C      1  0.5758500000000  0.5192140000000  0.4138950000000 1.0
C      1  0.4883010000000  0.4588800000000  0.5095740000000 1.0
C      1  0.4244250000000  0.4273580000000  0.5261300000000 1.0
C      1  0.4580440000000  0.5376660000000  0.5445310000000 1.0
C      1  0.5581160000000  0.4755700000000  0.5120890000000 1.0
C      1  0.5102440000000  0.4215230000000  0.4840320000000 1.0
C      1  0.4084020000000  0.5620460000000  0.4797830000000 1.0
C      1  0.4383830000000  0.5249490000000  0.5609100000000 1.0
C      1  0.5267590000000  0.4167800000000  0.5838850000000 1.0
C      1  0.4019130000000  0.5483910000000  0.5290550000000 1.0
C      1  0.5226690000000  0.6221710000000  0.4665610000000 1.0
C      1  0.4640350000000  0.4578260000000  0.5282730000000 1.0
C      1  0.4688970000000  0.5457570000000  0.4061200000000 1.0
C      1  0.5306530000000  0.5380730000000  0.4210150000000 1.0
C      1  0.4723060000000  0.5617070000000  0.5519990000000 1.0
C      1  0.3940770000000  0.5089400000000  0.5538050000000 1.0
C      1  0.5648140000000  0.4414820000000  0.4781040000000 1.0
C      1  0.4663550000000  0.4391180000000  0.4383970000000 1.0
C      1  0.5038220000000  0.4855290000000  0.4696840000000 1.0
C      1  0.4756690000000  0.5188040000000  0.4130910000000 1.0
C      1  0.4530080000000  0.3921090000000  0.5383150000000 1.0
C      1  0.5089580000000  0.4546650000000  0.3993450000000 1.0
C      1  0.5200730000000  0.4334400000000  0.5611870000000 1.0
C      1  0.3966660000000  0.5185530000000  0.4106050000000 1.0
C      1  0.5741740000000  0.5842960000000  0.5908540000000 1.0
C      1  0.4838000000000  0.4710440000000  0.4009710000000 1.0
C      1  0.4903170000000  0.5055030000000  0.3679540000000 1.0
C      1  0.6100000000000  0.4284070000000  0.4922600000000 1.0
C      1  0.5952300000000  0.5984470000000  0.5315340000000 1.0
C      1  0.6469590000000  0.6464730000000  0.5700440000000 1.0
C      1  0.5416350000000  0.6105270000000  0.5362270000000 1.0
C      1  0.5425930000000  0.5138400000000  0.6143630000000 1.0
C      1  0.4915080000000  0.4908910000000  0.5909880000000 1.0
C      1  0.4853120000000  0.4633260000000  0.4785140000000 1.0
C      1  0.5380420000000  0.4515700000000  0.5484900000000 1.0
C      1  0.5101480000000  0.5310240000000  0.5688110000000 1.0
C      1  0.4604460000000  0.3727530000000  0.4905320000000 1.0
C      1  0.4958310000000  0.4891840000000  0.5174290000000 1.0
C      1  0.5045780000000  0.4648020000000  0.5890960000000 1.0
C      1  0.5681080000000  0.3691040000000  0.4018350000000 1.0
C      1  0.6037150000000  0.5730140000000  0.5224690000000 1.0
C      1  0.4173960000000  0.5912430000000  0.5172440000000 1.0
C      1  0.4962200000000  0.5058330000000  0.5668080000000 1.0
C      1  0.4104100000000  0.4515520000000  0.5231030000000 1.0
C      1  0.5072430000000  0.5640930000000  0.4852340000000 1.0
C      1  0.4130190000000  0.4539780000000  0.4464910000000 1.0
C      1  0.4314750000000  0.5659830000000  0.4316270000000 1.0
C      1  0.4587140000000  0.5793270000000  0.4997260000000 1.0
C      1  0.4199190000000  0.5260690000000  0.4497530000000 1.0
C      1  0.4437190000000  0.4043950000000  0.4575360000000 1.0
C      1  0.5269650000000  0.4909570000000  0.6215900000000 1.0
C      1  0.4839240000000  0.3585170000000  0.4972190000000 1.0
C      1  0.4470130000000  0.5139490000000  0.6138570000000 1.0
C      1  0.6148860000000  0.5701380000000  0.4968230000000 1.0
C      1  0.5727970000000  0.3942910000000  0.4066540000000 1.0
C      1  0.5270130000000  0.5381290000000  0.6131200000000 1.0
C      1  0.5764280000000  0.4198520000000  0.4125950000000 1.0
C      1  0.4748340000000  0.5317000000000  0.4593120000000 1.0
C      1  0.5529300000000  0.5169770000000  0.5469420000000 1.0
C      1  0.3798620000000  0.4899540000000  0.4848760000000 1.0
C      1  0.5006220000000  0.4303580000000  0.5092440000000 1.0
C      1  0.5520310000000  0.4667190000000  0.4841310000000 1.0
C      1  0.5513760000000  0.4247600000000  0.5954990000000 1.0
C      1  0.4911470000000  0.5630370000000  0.4009570000000 1.0
C      1  0.4607600000000  0.5297540000000  0.5177140000000 1.0
C      1  0.5318610000000  0.4669920000000  0.6038320000000 1.0
C      1  0.3764260000000  0.4616300000000  0.4813600000000 1.0
C      1  0.4361560000000  0.4557170000000  0.4052450000000 1.0
C      1  0.3708090000000  0.5045370000000  0.5681900000000 1.0
C      1  0.4988780000000  0.3781960000000  0.5876220000000 1.0
C      1  0.5890000000000  0.5630760000000  0.5845340000000 1.0
C      1  0.4479870000000  0.6083800000000  0.5492050000000 1.0
C      1  0.5326080000000  0.5570980000000  0.3735300000000 1.0
C      1  0.4466580000000  0.3885100000000  0.5101290000000 1.0
C      1  0.3839920000000  0.5013120000000  0.4580480000000 1.0
C      1  0.5921380000000  0.5015000000000  0.4800420000000 1.0
C      1  0.4477210000000  0.4245790000000  0.4789340000000 1.0
C      1  0.5999040000000  0.4754270000000  0.4923940000000 1.0
C      1  0.4438920000000  0.4196740000000  0.4335230000000 1.0
C      1  0.5506770000000  0.4976850000000  0.5671880000000 1.0
C      1  0.5103480000000  0.6111500000000  0.5753140000000 1.0
C      1  0.5253650000000  0.5079520000000  0.4236850000000 1.0
C      1  0.5788560000000  0.4459990000000  0.4222490000000 1.0
C      1  0.5214890000000  0.6127020000000  0.5156560000000 1.0
C      1  0.4309130000000  0.5472100000000  0.5787580000000 1.0
C      1  0.5952810000000  0.4488050000000  0.4748670000000 1.0
C      1  0.5634760000000  0.4668410000000  0.4097840000000 1.0
C      1  0.4718430000000  0.4989910000000  0.3904290000000 1.0
C      1  0.4961380000000  0.4482980000000  0.5672200000000 1.0
C      1  0.4901200000000  0.5904330000000  0.4073800000000 1.0
C      1  0.3912910000000  0.4476050000000  0.4633940000000 1.0
C      1  0.5240710000000  0.4914100000000  0.4488970000000 1.0
C      1  0.4203550000000  0.5032990000000  0.5629960000000 1.0
C      1  0.4981340000000  0.5480050000000  0.4635100000000 1.0
C      1  0.4044390000000  0.5671800000000  0.5078100000000 1.0
C      1  0.6026950000000  0.4718860000000  0.5239220000000 1.0
C      1  0.5988160000000  0.4216590000000  0.5167290000000 1.0
C      1  0.4267610000000  0.5926850000000  0.4283870000000 1.0
C      1  0.5973060000000  0.5484640000000  0.5638220000000 1.0
C      1  0.5950840000000  0.4670120000000  0.5510860000000 1.0
C      1  0.3948350000000  0.5203250000000  0.5274980000000 1.0
C      1  0.4279680000000  0.4789270000000  0.4508350000000 1.0
C      1  0.4468350000000  0.4865110000000  0.6158510000000 1.0
C      1  0.5655310000000  0.5078250000000  0.4700180000000 1.0
C      1  0.4186650000000  0.4779920000000  0.5156530000000 1.0
C      1  0.4470420000000  0.4809860000000  0.5196380000000 1.0
C      1  0.4573100000000  0.4347560000000  0.5974740000000 1.0
C      1  0.5977280000000  0.5482390000000  0.5358740000000 1.0
C      1  0.4232650000000  0.4381400000000  0.4247680000000 1.0
C      1  0.4798310000000  0.3759110000000  0.4451670000000 1.0
C      1  0.5038330000000  0.4044480000000  0.5968640000000 1.0
C      1  0.4697230000000  0.5104540000000  0.4398880000000 1.0
C      1  0.4706950000000  0.6186110000000  0.5374620000000 1.0
C      1  0.4944790000000  0.6195780000000  0.5238870000000 1.0
C      1  0.5566220000000  0.6022900000000  0.5821160000000 1.0
C      1  0.4400880000000  0.5012810000000  0.3877780000000 1.0
C      1  0.4376990000000  0.4150810000000  0.5499840000000 1.0
C      1  0.4809860000000  0.3907110000000  0.5429860000000 1.0
C      1  0.5278680000000  0.4953620000000  0.3980520000000 1.0
C      1  0.4502020000000  0.5405740000000  0.6019790000000 1.0
C      1  0.4675080000000  0.4439330000000  0.4671050000000 1.0
C      1  0.5048050000000  0.5594500000000  0.5127540000000 1.0
C      1  0.5287120000000  0.5219370000000  0.4988300000000 1.0
C      1  0.5685060000000  0.5074660000000  0.5250740000000 1.0
C      1  0.4804590000000  0.4191770000000  0.6057700000000 1.0
C      1  0.5764670000000  0.4926660000000  0.4091090000000 1.0
C      1  0.5151500000000  0.5503240000000  0.4422180000000 1.0
C      1  0.5344080000000  0.3707870000000  0.4946130000000 1.0
C      1  0.5684500000000  0.6062500000000  0.5287820000000 1.0
C      1  0.5169870000000  0.5041700000000  0.3735110000000 1.0
END
