TITL C-612605-9286-264 -0.00645950961360974 125000 -358.754452862824 0 0 60 (C1) n - 1
REM
REM in /home/nfs/bkarasulu/CARBON/AIRSS/Generating-Clusters/TERSOFF/Only-C1/FIRE-HFTN
REM
REM
REM
REM
REM
REM ./C.cell (11c1c37f851c82e70ff6c80c92926a4b)
REM AIRSS Version 0.9.1 bugfix July 2018 build 013d7b7c2542+ Fri, 06 Jul 2018 19:26:36 +0100
REM compiler GCC version 9.2.1 20190827 (Red Hat 9.2.1-1)
REM options -cpp -mtune=generic -march=x86-64 -g -O0 -fpre-include=/usr/include/finclude/math-vector-fortran.h
REM seed -55411958 555632572 -1001680615 -909486332 1527503043 -1157289692 1256924528 -642434278 -887400143 257541469 -485981298 168213502 -314813958 -116224586 53298521 1258751783 1017219043 -1768890312 -338888308 603999952 608864638 1347888077 -1535953923 1500159666 -168510371 -1989104618 1532836779 -1751956611 -1177997815 -1405977789 -333183419 890836072 299342530
REM
CELL 1.54180   50.00000   50.00000   50.00000   90.00000   90.00000   90.00000
LATT -1
SFAC C  
C      1  0.4576080000000  0.4326510000000  0.4746570000000 1.0
C      1  0.5504440000000  0.4643340000000  0.5265360000000 1.0
C      1  0.5535580000000  0.5021130000000  0.4550000000000 1.0
C      1  0.5403300000000  0.5478000000000  0.4464590000000 1.0
C      1  0.4693070000000  0.4343780000000  0.5289950000000 1.0
C      1  0.4857980000000  0.5016290000000  0.4950360000000 1.0
C      1  0.4826210000000  0.4490050000000  0.4811180000000 1.0
C      1  0.4310380000000  0.4336750000000  0.4775070000000 1.0
C      1  0.4506310000000  0.5921110000000  0.5722440000000 1.0
C      1  0.4824090000000  0.4154460000000  0.5467350000000 1.0
C      1  0.5164140000000  0.5768940000000  0.4168640000000 1.0
C      1  0.4715690000000  0.5547030000000  0.4701670000000 1.0
C      1  0.5164680000000  0.4303220000000  0.5187880000000 1.0
C      1  0.5528540000000  0.4893610000000  0.4804520000000 1.0
C      1  0.5587140000000  0.5298420000000  0.4581320000000 1.0
C      1  0.4465120000000  0.4496430000000  0.5363380000000 1.0
C      1  0.4943120000000  0.5945350000000  0.5456850000000 1.0
C      1  0.4727270000000  0.5097490000000  0.5187830000000 1.0
C      1  0.5078230000000  0.5818220000000  0.5267250000000 1.0
C      1  0.4314290000000  0.5738630000000  0.5689830000000 1.0
C      1  0.4744610000000  0.5992820000000  0.5627160000000 1.0
C      1  0.4542250000000  0.5310780000000  0.5151190000000 1.0
C      1  0.5322880000000  0.4968170000000  0.4985330000000 1.0
C      1  0.5093780000000  0.4134780000000  0.5410890000000 1.0
C      1  0.4238910000000  0.4527220000000  0.5198730000000 1.0
C      1  0.4207700000000  0.4909310000000  0.4585510000000 1.0
C      1  0.4097090000000  0.4762280000000  0.4782010000000 1.0
C      1  0.5748230000000  0.4731920000000  0.4842130000000 1.0
C      1  0.5112330000000  0.5143300000000  0.4927160000000 1.0
C      1  0.5870120000000  0.4998230000000  0.5198420000000 1.0
C      1  0.5865120000000  0.5192990000000  0.5007810000000 1.0
C      1  0.4347200000000  0.5373370000000  0.5340120000000 1.0
C      1  0.5491270000000  0.5747570000000  0.5024810000000 1.0
C      1  0.4880100000000  0.4664530000000  0.4368420000000 1.0
C      1  0.5163230000000  0.5606340000000  0.4389490000000 1.0
C      1  0.5254140000000  0.5037380000000  0.5685790000000 1.0
C      1  0.4577400000000  0.5467390000000  0.4917030000000 1.0
C      1  0.5145260000000  0.5416120000000  0.4991230000000 1.0
C      1  0.5526120000000  0.4556610000000  0.4388060000000 1.0
C      1  0.4703880000000  0.4849090000000  0.4505420000000 1.0
C      1  0.5527220000000  0.4825950000000  0.4345020000000 1.0
C      1  0.5510140000000  0.4332510000000  0.4858010000000 1.0
C      1  0.4172280000000  0.4531740000000  0.4925630000000 1.0
C      1  0.4442820000000  0.4938660000000  0.4457720000000 1.0
C      1  0.4973350000000  0.4465940000000  0.4542200000000 1.0
C      1  0.5748540000000  0.5373650000000  0.4815700000000 1.0
C      1  0.5763090000000  0.4765910000000  0.5298680000000 1.0
C      1  0.5705730000000  0.5636700000000  0.4909250000000 1.0
C      1  0.5232500000000  0.5663440000000  0.5094470000000 1.0
C      1  0.4501680000000  0.4672100000000  0.5580420000000 1.0
C      1  0.4849280000000  0.4994840000000  0.5426100000000 1.0
C      1  0.5305070000000  0.4850090000000  0.5245150000000 1.0
C      1  0.5135380000000  0.4957350000000  0.5450640000000 1.0
C      1  0.4675690000000  0.4873790000000  0.5611210000000 1.0
C      1  0.5420170000000  0.4403610000000  0.5119370000000 1.0
C      1  0.4906550000000  0.4404750000000  0.5085640000000 1.0
C      1  0.5523300000000  0.4378160000000  0.4591850000000 1.0
C      1  0.4770120000000  0.4801740000000  0.4792090000000 1.0
C      1  0.4257700000000  0.5526200000000  0.5538750000000 1.0
C      1  0.4922140000000  0.5573880000000  0.4533360000000 1.0
END
