TITL C-612602-9376-844 -4863.51118524488 125000 -802.234425254135 0 0 131 (C1) n - 1
REM
REM in /home/nfs/bkarasulu/CARBON/AIRSS/Generating-Clusters/TERSOFF/Only-C1/FIRE-HFTN
REM
REM
REM
REM
REM
REM ./C.cell (11c1c37f851c82e70ff6c80c92926a4b)
REM AIRSS Version 0.9.1 bugfix July 2018 build 013d7b7c2542+ Fri, 06 Jul 2018 19:26:36 +0100
REM compiler GCC version 9.2.1 20190827 (Red Hat 9.2.1-1)
REM options -cpp -mtune=generic -march=x86-64 -g -O0 -fpre-include=/usr/include/finclude/math-vector-fortran.h
REM seed -1095508049 984815575 644471347 -781131323 -1007423788 464830963 -742009525 -122176636 -287056402 -617336082 -715232490 1083773291 -423556897 53878446 -84055273 1587738998 1871476810 -242566581 -201454076 139356601 2128899221 -768097762 -1576005768 392548451 -659774587 -1210106835 1156842067 -1109501391 -17833625 924268088 1950964189 -1131094782 709438562
REM
CELL 1.54180   50.00000   50.00000   50.00000   90.00000   90.00000   90.00000
LATT -1
SFAC C  
C      1  0.5816790000000  0.3836970000000  0.5364110000000 1.0
C      1  0.3954780000000  0.4813470000000  0.4791960000000 1.0
C      1  0.5558580000000  0.5556560000000  0.4475270000000 1.0
C      1  0.4532780000000  0.5524220000000  0.5429750000000 1.0
C      1  0.3953040000000  0.5035580000000  0.5233260000000 1.0
C      1  0.4254160000000  0.4577020000000  0.5388620000000 1.0
C      1  0.3955410000000  0.5841900000000  0.5171020000000 1.0
C      1  0.4387170000000  0.6098080000000  0.6077170000000 1.0
C      1  0.5625050000000  0.5235240000000  0.4098680000000 1.0
C      1  0.4644740000000  0.4362920000000  0.5263630000000 1.0
C      1  0.4462430000000  0.5245990000000  0.4091640000000 1.0
C      1  0.4072770000000  0.4578110000000  0.4668790000000 1.0
C      1  0.4564940000000  0.5974470000000  0.5924610000000 1.0
C      1  0.5157610000000  0.5905070000000  0.5213170000000 1.0
C      1  0.4038160000000  0.5027550000000  0.4602020000000 1.0
C      1  0.5209820000000  0.5410430000000  0.5357810000000 1.0
C      1  0.5134620000000  0.4561120000000  0.4628330000000 1.0
C      1  0.5206520000000  0.4478380000000  0.4159220000000 1.0
C      1  0.5213660000000  0.4105200000000  0.4850820000000 1.0
C      1  0.4745020000000  0.5837800000000  0.5761020000000 1.0
C      1  0.4817440000000  0.4998080000000  0.4438590000000 1.0
C      1  0.4830310000000  0.5125810000000  0.5013120000000 1.0
C      1  0.5812110000000  0.5201360000000  0.6193360000000 1.0
C      1  0.5419230000000  0.5501010000000  0.4712420000000 1.0
C      1  0.4383000000000  0.5354560000000  0.4604330000000 1.0
C      1  0.5941940000000  0.5148120000000  0.4487050000000 1.0
C      1  0.5384150000000  0.4715350000000  0.4701110000000 1.0
C      1  0.4241720000000  0.4069600000000  0.5096640000000 1.0
C      1  0.5648330000000  0.4541260000000  0.4315380000000 1.0
C      1  0.4380360000000  0.5272550000000  0.5403650000000 1.0
C      1  0.5989160000000  0.5388110000000  0.4647560000000 1.0
C      1  0.4989560000000  0.5712250000000  0.4732990000000 1.0
C      1  0.5628900000000  0.4746110000000  0.4511440000000 1.0
C      1  0.5237800000000  0.4635660000000  0.3927500000000 1.0
C      1  0.5515100000000  0.5069150000000  0.3900670000000 1.0
C      1  0.4587980000000  0.4327980000000  0.4089940000000 1.0
C      1  0.5163800000000  0.6001770000000  0.5483100000000 1.0
C      1  0.6079490000000  0.5044550000000  0.5321980000000 1.0
C      1  0.5845340000000  0.4907070000000  0.4617930000000 1.0
C      1  0.4682580000000  0.5572410000000  0.5672030000000 1.0
C      1  0.5712130000000  0.4075130000000  0.5446470000000 1.0
C      1  0.4761770000000  0.5561390000000  0.4737550000000 1.0
C      1  0.5942190000000  0.4645130000000  0.5838700000000 1.0
C      1  0.5868360000000  0.4312630000000  0.5452480000000 1.0
C      1  0.5762500000000  0.5461180000000  0.5037270000000 1.0
C      1  0.5189740000000  0.5569830000000  0.4862970000000 1.0
C      1  0.4039760000000  0.4546120000000  0.5192490000000 1.0
C      1  0.5519580000000  0.4532880000000  0.4915400000000 1.0
C      1  0.5476880000000  0.4246240000000  0.4875170000000 1.0
C      1  0.5433570000000  0.5026100000000  0.5946630000000 1.0
C      1  0.5906240000000  0.4854670000000  0.4897180000000 1.0
C      1  0.4103640000000  0.5679460000000  0.5010370000000 1.0
C      1  0.4611350000000  0.4608910000000  0.4111500000000 1.0
C      1  0.4968370000000  0.5167210000000  0.5887550000000 1.0
C      1  0.4285230000000  0.4080580000000  0.5385340000000 1.0
C      1  0.4594060000000  0.4097960000000  0.4225640000000 1.0
C      1  0.5466790000000  0.5867970000000  0.5059340000000 1.0
C      1  0.4973130000000  0.4222410000000  0.4944370000000 1.0
C      1  0.4432200000000  0.4784210000000  0.3979040000000 1.0
C      1  0.4798250000000  0.5357450000000  0.5812130000000 1.0
C      1  0.5098390000000  0.4705720000000  0.5814660000000 1.0
C      1  0.5540290000000  0.5593890000000  0.5722100000000 1.0
C      1  0.6034440000000  0.5066490000000  0.5045800000000 1.0
C      1  0.5451400000000  0.5394040000000  0.4261850000000 1.0
C      1  0.5333120000000  0.5149710000000  0.4960710000000 1.0
C      1  0.4728960000000  0.4153640000000  0.5082740000000 1.0
C      1  0.4445760000000  0.4778290000000  0.5303470000000 1.0
C      1  0.4867110000000  0.5818900000000  0.5168720000000 1.0
C      1  0.4794060000000  0.5079280000000  0.5272100000000 1.0
C      1  0.4334200000000  0.4997530000000  0.4143740000000 1.0
C      1  0.5362280000000  0.5474760000000  0.5565640000000 1.0
C      1  0.6003710000000  0.5330820000000  0.4938580000000 1.0
C      1  0.5948850000000  0.4418640000000  0.5698710000000 1.0
C      1  0.4951120000000  0.4482630000000  0.4826390000000 1.0
C      1  0.4763250000000  0.4705700000000  0.4356050000000 1.0
C      1  0.5165540000000  0.4967670000000  0.5887290000000 1.0
C      1  0.4619080000000  0.5165910000000  0.4578590000000 1.0
C      1  0.4695940000000  0.4607680000000  0.4848380000000 1.0
C      1  0.4686660000000  0.3960630000000  0.4452520000000 1.0
C      1  0.5896520000000  0.4051830000000  0.4657890000000 1.0
C      1  0.4112750000000  0.5289830000000  0.4671190000000 1.0
C      1  0.5174230000000  0.5369610000000  0.5083900000000 1.0
C      1  0.3851930000000  0.6462590000000  0.6538430000000 1.0
C      1  0.4963960000000  0.3910100000000  0.4468340000000 1.0
C      1  0.3676540000000  0.6581440000000  0.6690340000000 1.0
C      1  0.4412880000000  0.4328330000000  0.5443670000000 1.0
C      1  0.4568320000000  0.4630680000000  0.4589620000000 1.0
C      1  0.5030100000000  0.4566440000000  0.4364660000000 1.0
C      1  0.5364700000000  0.4855790000000  0.3842760000000 1.0
C      1  0.4615140000000  0.4621680000000  0.5121390000000 1.0
C      1  0.6002980000000  0.5038840000000  0.5577270000000 1.0
C      1  0.4701450000000  0.5369840000000  0.4070520000000 1.0
C      1  0.5816600000000  0.5630100000000  0.4588270000000 1.0
C      1  0.4963110000000  0.5390550000000  0.4132460000000 1.0
C      1  0.4783840000000  0.5278450000000  0.4790730000000 1.0
C      1  0.4537990000000  0.5033860000000  0.5373440000000 1.0
C      1  0.4494260000000  0.4028670000000  0.4952090000000 1.0
C      1  0.5445410000000  0.4099790000000  0.5529330000000 1.0
C      1  0.5908800000000  0.5335620000000  0.6394710000000 1.0
C      1  0.4483290000000  0.5604290000000  0.4732410000000 1.0
C      1  0.5772730000000  0.4629000000000  0.5020600000000 1.0
C      1  0.5123860000000  0.4457420000000  0.5724690000000 1.0
C      1  0.5713820000000  0.5742900000000  0.5847210000000 1.0
C      1  0.5711040000000  0.5051730000000  0.5980090000000 1.0
C      1  0.4591080000000  0.5699990000000  0.5200480000000 1.0
C      1  0.5891180000000  0.4918900000000  0.5805270000000 1.0
C      1  0.5441140000000  0.4117020000000  0.4433590000000 1.0
C      1  0.5637880000000  0.4132100000000  0.4655110000000 1.0
C      1  0.4049740000000  0.4288020000000  0.5054290000000 1.0
C      1  0.5018930000000  0.5950850000000  0.4606530000000 1.0
C      1  0.5559010000000  0.5308710000000  0.4892340000000 1.0
C      1  0.5887210000000  0.4475810000000  0.5225230000000 1.0
C      1  0.4529500000000  0.3941340000000  0.4686730000000 1.0
C      1  0.5256290000000  0.4993350000000  0.4728420000000 1.0
C      1  0.5242370000000  0.4241490000000  0.5625540000000 1.0
C      1  0.4986780000000  0.5960320000000  0.5682080000000 1.0
C      1  0.3944440000000  0.4798340000000  0.5076550000000 1.0
C      1  0.4105710000000  0.5224840000000  0.5352040000000 1.0
C      1  0.5204430000000  0.4009280000000  0.4569510000000 1.0
C      1  0.4208660000000  0.6220150000000  0.6230310000000 1.0
C      1  0.4208020000000  0.4909990000000  0.4386480000000 1.0
C      1  0.5179180000000  0.5295480000000  0.4292760000000 1.0
C      1  0.4358890000000  0.4754780000000  0.3718150000000 1.0
C      1  0.3989340000000  0.5475920000000  0.4845220000000 1.0
C      1  0.5443970000000  0.4346710000000  0.4259730000000 1.0
C      1  0.5710710000000  0.5726580000000  0.4940540000000 1.0
C      1  0.5876970000000  0.5180820000000  0.4213980000000 1.0
C      1  0.5100880000000  0.5087380000000  0.4484410000000 1.0
C      1  0.4296870000000  0.4653670000000  0.4511800000000 1.0
C      1  0.4030280000000  0.6341560000000  0.6384140000000 1.0
C      1  0.4388030000000  0.5698960000000  0.4985420000000 1.0
END
