TITL C-612602-9376-672 20799.9397405451 125000 -571.555966750438 0 0 96 (C1) n - 1
REM
REM in /home/nfs/bkarasulu/CARBON/AIRSS/Generating-Clusters/TERSOFF/Only-C1/FIRE-HFTN
REM
REM
REM
REM
REM
REM ./C.cell (11c1c37f851c82e70ff6c80c92926a4b)
REM AIRSS Version 0.9.1 bugfix July 2018 build 013d7b7c2542+ Fri, 06 Jul 2018 19:26:36 +0100
REM compiler GCC version 9.2.1 20190827 (Red Hat 9.2.1-1)
REM options -cpp -mtune=generic -march=x86-64 -g -O0 -fpre-include=/usr/include/finclude/math-vector-fortran.h
REM seed -1701052767 329828368 1455689730 1433860361 387570452 -804177872 261342584 -769727015 523007129 119427973 326266632 352082899 -1078301260 -1806926907 511912383 1218479389 1970535807 1362191823 1639045004 -1420714596 1914984981 -574555990 1484145450 -2020351354 -875192652 1643893153 -333982708 592482541 2009016847 -425902523 349290052 1171904337 1603349634
REM
CELL 1.54180   50.00000   50.00000   50.00000   90.00000   90.00000   90.00000
LATT -1
SFAC C  
C      1  0.5841060000000  0.5190410000000  0.5336770000000 1.0
C      1  0.5048460000000  0.5937030000000  0.4780220000000 1.0
C      1  0.4365270000000  0.5529500000000  0.5026620000000 1.0
C      1  0.5484540000000  0.4603510000000  0.5572940000000 1.0
C      1  0.4195370000000  0.4636330000000  0.5430410000000 1.0
C      1  0.5046160000000  0.5850660000000  0.4502440000000 1.0
C      1  0.4504840000000  0.4315030000000  0.5564200000000 1.0
C      1  0.4953210000000  0.5324540000000  0.5094250000000 1.0
C      1  0.5596920000000  0.4605360000000  0.4452140000000 1.0
C      1  0.5852280000000  0.4641280000000  0.5178630000000 1.0
C      1  0.5122640000000  0.4739960000000  0.4256580000000 1.0
C      1  0.5277100000000  0.5098940000000  0.4529610000000 1.0
C      1  0.5100880000000  0.6053200000000  0.4314410000000 1.0
C      1  0.4502190000000  0.4479930000000  0.4499410000000 1.0
C      1  0.5882500000000  0.5080650000000  0.4615880000000 1.0
C      1  0.4965110000000  0.5627280000000  0.5476500000000 1.0
C      1  0.5736390000000  0.4906250000000  0.4778230000000 1.0
C      1  0.4567430000000  0.4582960000000  0.5049770000000 1.0
C      1  0.4588970000000  0.5639900000000  0.5163780000000 1.0
C      1  0.4882790000000  0.4550470000000  0.5060260000000 1.0
C      1  0.4088600000000  0.5573790000000  0.5089590000000 1.0
C      1  0.5665520000000  0.4805320000000  0.5656330000000 1.0
C      1  0.5497520000000  0.5732960000000  0.5360130000000 1.0
C      1  0.4810060000000  0.5481870000000  0.5276480000000 1.0
C      1  0.5989560000000  0.5377850000000  0.5189550000000 1.0
C      1  0.4350890000000  0.5036830000000  0.4764700000000 1.0
C      1  0.5309460000000  0.4915310000000  0.5024370000000 1.0
C      1  0.3906020000000  0.5385030000000  0.4980070000000 1.0
C      1  0.4402220000000  0.5324190000000  0.4833690000000 1.0
C      1  0.4336200000000  0.4862430000000  0.5556800000000 1.0
C      1  0.5419930000000  0.5493850000000  0.4868860000000 1.0
C      1  0.5111390000000  0.4679660000000  0.5239220000000 1.0
C      1  0.4909000000000  0.4931140000000  0.4780100000000 1.0
C      1  0.4932550000000  0.4574980000000  0.5551770000000 1.0
C      1  0.4452720000000  0.4839940000000  0.4985050000000 1.0
C      1  0.5137600000000  0.6248740000000  0.4139480000000 1.0
C      1  0.4547730000000  0.4784290000000  0.5734780000000 1.0
C      1  0.5678380000000  0.5561150000000  0.4858210000000 1.0
C      1  0.4433870000000  0.4327200000000  0.5086850000000 1.0
C      1  0.4665310000000  0.4547580000000  0.5633750000000 1.0
C      1  0.5641370000000  0.5067320000000  0.5722590000000 1.0
C      1  0.5703800000000  0.4630520000000  0.4709640000000 1.0
C      1  0.5104100000000  0.4411010000000  0.5710730000000 1.0
C      1  0.5183640000000  0.5424750000000  0.4971510000000 1.0
C      1  0.5352210000000  0.4561850000000  0.4321020000000 1.0
C      1  0.4348830000000  0.4709900000000  0.4439360000000 1.0
C      1  0.4882670000000  0.5900690000000  0.5412990000000 1.0
C      1  0.5168100000000  0.6442120000000  0.3967320000000 1.0
C      1  0.4893730000000  0.4098170000000  0.4959570000000 1.0
C      1  0.4791430000000  0.4459460000000  0.4022740000000 1.0
C      1  0.5099910000000  0.4143080000000  0.5632620000000 1.0
C      1  0.4916460000000  0.4618520000000  0.4763540000000 1.0
C      1  0.5095880000000  0.5274700000000  0.5791970000000 1.0
C      1  0.5283920000000  0.5962420000000  0.4939830000000 1.0
C      1  0.4422100000000  0.5075570000000  0.5391180000000 1.0
C      1  0.5761430000000  0.5231870000000  0.4428800000000 1.0
C      1  0.5202250000000  0.4816730000000  0.5931610000000 1.0
C      1  0.4991480000000  0.5349370000000  0.4259960000000 1.0
C      1  0.4820100000000  0.5089050000000  0.5025150000000 1.0
C      1  0.4693230000000  0.4360740000000  0.3802480000000 1.0
C      1  0.4995050000000  0.5590260000000  0.4390620000000 1.0
C      1  0.4641280000000  0.4069260000000  0.5548000000000 1.0
C      1  0.4895650000000  0.4565430000000  0.4258130000000 1.0
C      1  0.5446720000000  0.4360450000000  0.5063050000000 1.0
C      1  0.5785290000000  0.4928970000000  0.5223950000000 1.0
C      1  0.4730260000000  0.4953560000000  0.5873090000000 1.0
C      1  0.4593050000000  0.4111460000000  0.4929130000000 1.0
C      1  0.4708400000000  0.5909670000000  0.5171980000000 1.0
C      1  0.5913650000000  0.5532000000000  0.4982970000000 1.0
C      1  0.5173180000000  0.5477010000000  0.5609770000000 1.0
C      1  0.5586540000000  0.4963390000000  0.5020310000000 1.0
C      1  0.5647700000000  0.5283120000000  0.5537360000000 1.0
C      1  0.5283960000000  0.4284860000000  0.4360120000000 1.0
C      1  0.5273420000000  0.4141800000000  0.4587960000000 1.0
C      1  0.4005250000000  0.5783130000000  0.5243440000000 1.0
C      1  0.3881100000000  0.5161060000000  0.4831750000000 1.0
C      1  0.4502680000000  0.4953270000000  0.4508550000000 1.0
C      1  0.4055540000000  0.4980470000000  0.4705940000000 1.0
C      1  0.5449710000000  0.5497050000000  0.5514030000000 1.0
C      1  0.5698420000000  0.4482780000000  0.4965020000000 1.0
C      1  0.4075250000000  0.4765290000000  0.4513520000000 1.0
C      1  0.4786820000000  0.4507830000000  0.4519410000000 1.0
C      1  0.5042390000000  0.5051510000000  0.4337790000000 1.0
C      1  0.5359980000000  0.4511160000000  0.5305900000000 1.0
C      1  0.4810980000000  0.5999050000000  0.4924140000000 1.0
C      1  0.4783130000000  0.5002030000000  0.4513990000000 1.0
C      1  0.5421130000000  0.5902800000000  0.5164700000000 1.0
C      1  0.4313080000000  0.4375320000000  0.5356960000000 1.0
C      1  0.4912110000000  0.4240480000000  0.5195450000000 1.0
C      1  0.5198420000000  0.4988920000000  0.4781360000000 1.0
C      1  0.4580050000000  0.5028090000000  0.5165320000000 1.0
C      1  0.5493700000000  0.5234430000000  0.4413330000000 1.0
C      1  0.4902080000000  0.4088510000000  0.5438570000000 1.0
C      1  0.5302310000000  0.4582660000000  0.5801800000000 1.0
C      1  0.5228330000000  0.4165170000000  0.4859790000000 1.0
C      1  0.5008110000000  0.5022620000000  0.5885360000000 1.0
END
