TITL C-612602-9376-1111 -98.8383476125315 125000 -820.140214910845 0 0 134 (C1) n - 1
REM
REM in /home/nfs/bkarasulu/CARBON/AIRSS/Generating-Clusters/TERSOFF/Only-C1/FIRE-HFTN
REM
REM
REM
REM
REM
REM ./C.cell (11c1c37f851c82e70ff6c80c92926a4b)
REM AIRSS Version 0.9.1 bugfix July 2018 build 013d7b7c2542+ Fri, 06 Jul 2018 19:26:36 +0100
REM compiler GCC version 9.2.1 20190827 (Red Hat 9.2.1-1)
REM options -cpp -mtune=generic -march=x86-64 -g -O0 -fpre-include=/usr/include/finclude/math-vector-fortran.h
REM seed -1437956254 -2048171656 -1107927266 -193319875 -2001697976 -97870021 -1147442850 -550445698 1023091074 1897766706 1245668116 479119643 -1274428307 1395932226 -539494542 -284209940 -1177523585 -1854373197 1722430379 -1321512483 -684594977 -1081801219 1884701860 -182980943 -521849906 -1194532488 -137990039 -1975715911 -1799795936 103386724 2099516713 -408826640 -823471556
REM
CELL 1.54180   50.00000   50.00000   50.00000   90.00000   90.00000   90.00000
LATT -1
SFAC C  
C      1  0.5526430000000  0.4098690000000  0.4871750000000 1.0
C      1  0.4512210000000  0.4305840000000  0.5409210000000 1.0
C      1  0.4372950000000  0.4970530000000  0.5521260000000 1.0
C      1  0.4932500000000  0.4491440000000  0.4604080000000 1.0
C      1  0.5002610000000  0.3885930000000  0.5390950000000 1.0
C      1  0.4897520000000  0.5229700000000  0.5797900000000 1.0
C      1  0.5737450000000  0.5251710000000  0.5310640000000 1.0
C      1  0.5012100000000  0.5913340000000  0.5281540000000 1.0
C      1  0.4944570000000  0.4745270000000  0.5628750000000 1.0
C      1  0.5028340000000  0.4936500000000  0.4343070000000 1.0
C      1  0.4767180000000  0.4887820000000  0.3958660000000 1.0
C      1  0.4427910000000  0.4467940000000  0.4471740000000 1.0
C      1  0.5692260000000  0.4101190000000  0.5324740000000 1.0
C      1  0.4041550000000  0.5425140000000  0.4696220000000 1.0
C      1  0.4409080000000  0.5985420000000  0.6640750000000 1.0
C      1  0.4597850000000  0.5553560000000  0.5497330000000 1.0
C      1  0.4627930000000  0.5594510000000  0.5984150000000 1.0
C      1  0.5570250000000  0.5251640000000  0.4838360000000 1.0
C      1  0.4514940000000  0.4954590000000  0.5758260000000 1.0
C      1  0.4260900000000  0.4995770000000  0.4565810000000 1.0
C      1  0.4048310000000  0.5050570000000  0.5190030000000 1.0
C      1  0.5543280000000  0.5537270000000  0.4927560000000 1.0
C      1  0.4791790000000  0.5703700000000  0.5323110000000 1.0
C      1  0.6176500000000  0.4967190000000  0.5085940000000 1.0
C      1  0.4473900000000  0.4669210000000  0.4281060000000 1.0
C      1  0.5498810000000  0.5930270000000  0.5467060000000 1.0
C      1  0.5059180000000  0.4417750000000  0.4870070000000 1.0
C      1  0.4881190000000  0.5502030000000  0.5136290000000 1.0
C      1  0.4348120000000  0.5439840000000  0.5363850000000 1.0
C      1  0.5297010000000  0.5863050000000  0.4548070000000 1.0
C      1  0.5970530000000  0.4594670000000  0.4849760000000 1.0
C      1  0.5851750000000  0.4776300000000  0.4424720000000 1.0
C      1  0.4574300000000  0.4810110000000  0.5059980000000 1.0
C      1  0.5078450000000  0.5078860000000  0.5060140000000 1.0
C      1  0.5164170000000  0.4564890000000  0.4148980000000 1.0
C      1  0.5195360000000  0.5379030000000  0.5459620000000 1.0
C      1  0.4819540000000  0.5315440000000  0.4421820000000 1.0
C      1  0.4066100000000  0.4803660000000  0.5031480000000 1.0
C      1  0.5445750000000  0.4237300000000  0.4361440000000 1.0
C      1  0.4415450000000  0.5281060000000  0.4057680000000 1.0
C      1  0.4710150000000  0.5455560000000  0.5753270000000 1.0
C      1  0.5063400000000  0.5302860000000  0.5229300000000 1.0
C      1  0.5647980000000  0.4700300000000  0.4244440000000 1.0
C      1  0.5333800000000  0.4478640000000  0.5722790000000 1.0
C      1  0.5927760000000  0.5011720000000  0.4604460000000 1.0
C      1  0.5165220000000  0.4149350000000  0.4366510000000 1.0
C      1  0.5363620000000  0.5120970000000  0.4666280000000 1.0
C      1  0.5164330000000  0.5234270000000  0.5902290000000 1.0
C      1  0.4269060000000  0.4391730000000  0.5323970000000 1.0
C      1  0.5621740000000  0.5108320000000  0.5096380000000 1.0
C      1  0.4346450000000  0.5427990000000  0.4300850000000 1.0
C      1  0.4321510000000  0.5478530000000  0.5075790000000 1.0
C      1  0.5082520000000  0.5967270000000  0.4992770000000 1.0
C      1  0.4971970000000  0.5563840000000  0.3980420000000 1.0
C      1  0.5449020000000  0.4499650000000  0.4212320000000 1.0
C      1  0.4793840000000  0.4328310000000  0.5443160000000 1.0
C      1  0.4491590000000  0.4814160000000  0.5322090000000 1.0
C      1  0.4348260000000  0.3794170000000  0.4955410000000 1.0
C      1  0.4212320000000  0.5174540000000  0.5404770000000 1.0
C      1  0.5026680000000  0.4401400000000  0.4348170000000 1.0
C      1  0.5577540000000  0.4148950000000  0.4595690000000 1.0
C      1  0.4191450000000  0.5274730000000  0.4506710000000 1.0
C      1  0.5030630000000  0.4594370000000  0.6096210000000 1.0
C      1  0.5667890000000  0.4648800000000  0.5227680000000 1.0
C      1  0.5007730000000  0.4097610000000  0.4847280000000 1.0
C      1  0.4668520000000  0.4129160000000  0.4805780000000 1.0
C      1  0.5020220000000  0.4802250000000  0.4088500000000 1.0
C      1  0.4144430000000  0.5606580000000  0.4894120000000 1.0
C      1  0.5070020000000  0.4593310000000  0.5118690000000 1.0
C      1  0.4337400000000  0.6113550000000  0.6856180000000 1.0
C      1  0.4191960000000  0.4488820000000  0.4648970000000 1.0
C      1  0.5271280000000  0.4225940000000  0.5602200000000 1.0
C      1  0.5221450000000  0.4837370000000  0.5097000000000 1.0
C      1  0.4591370000000  0.4581360000000  0.4912650000000 1.0
C      1  0.4829050000000  0.3678660000000  0.5390940000000 1.0
C      1  0.4136350000000  0.4775460000000  0.4741290000000 1.0
C      1  0.5749260000000  0.5540560000000  0.4514390000000 1.0
C      1  0.5801580000000  0.5272660000000  0.4632440000000 1.0
C      1  0.4506390000000  0.4914170000000  0.4430240000000 1.0
C      1  0.5411380000000  0.5522860000000  0.4205360000000 1.0
C      1  0.4962500000000  0.4593800000000  0.6347720000000 1.0
C      1  0.4481960000000  0.5855130000000  0.6421730000000 1.0
C      1  0.5558700000000  0.4661330000000  0.5704930000000 1.0
C      1  0.5193170000000  0.5613050000000  0.5595990000000 1.0
C      1  0.5529420000000  0.4907880000000  0.5847980000000 1.0
C      1  0.4906910000000  0.5834240000000  0.4800640000000 1.0
C      1  0.5268840000000  0.4000160000000  0.4986110000000 1.0
C      1  0.5500480000000  0.4854640000000  0.5134410000000 1.0
C      1  0.4471930000000  0.5696210000000  0.4371180000000 1.0
C      1  0.4679080000000  0.5174850000000  0.3987580000000 1.0
C      1  0.4627670000000  0.5050400000000  0.4935620000000 1.0
C      1  0.4134360000000  0.6095360000000  0.4929080000000 1.0
C      1  0.5442170000000  0.5177660000000  0.5861100000000 1.0
C      1  0.4852220000000  0.5364420000000  0.4133750000000 1.0
C      1  0.5038990000000  0.5743430000000  0.3797170000000 1.0
C      1  0.5617000000000  0.5377930000000  0.5754580000000 1.0
C      1  0.4308130000000  0.5864940000000  0.4534430000000 1.0
C      1  0.4649320000000  0.4416440000000  0.4669020000000 1.0
C      1  0.5322290000000  0.5996550000000  0.4820440000000 1.0
C      1  0.5064410000000  0.3980730000000  0.4566410000000 1.0
C      1  0.5222080000000  0.5870850000000  0.5478770000000 1.0
C      1  0.4194130000000  0.4232380000000  0.4791310000000 1.0
C      1  0.4750910000000  0.5795320000000  0.4354450000000 1.0
C      1  0.6175320000000  0.4899430000000  0.5347260000000 1.0
C      1  0.5499840000000  0.5682020000000  0.4426390000000 1.0
C      1  0.5707020000000  0.5464020000000  0.5498960000000 1.0
C      1  0.4886560000000  0.5356000000000  0.4692670000000 1.0
C      1  0.5102070000000  0.4609730000000  0.5827980000000 1.0
C      1  0.4888420000000  0.5111520000000  0.4852050000000 1.0
C      1  0.4103310000000  0.4562410000000  0.5191420000000 1.0
C      1  0.5439620000000  0.4055140000000  0.5436110000000 1.0
C      1  0.5108740000000  0.5924970000000  0.3623610000000 1.0
C      1  0.4558630000000  0.4695550000000  0.4013040000000 1.0
C      1  0.4554820000000  0.5724870000000  0.6202770000000 1.0
C      1  0.4921590000000  0.4580210000000  0.5380080000000 1.0
C      1  0.5715550000000  0.4206120000000  0.5061660000000 1.0
C      1  0.5755550000000  0.4663300000000  0.5499290000000 1.0
C      1  0.5256180000000  0.3911550000000  0.5256820000000 1.0
C      1  0.5673460000000  0.5706770000000  0.5090430000000 1.0
C      1  0.5362310000000  0.5257960000000  0.4208220000000 1.0
C      1  0.6043700000000  0.4881750000000  0.4853060000000 1.0
C      1  0.4986830000000  0.4137940000000  0.5536210000000 1.0
C      1  0.4855330000000  0.5569660000000  0.4867000000000 1.0
C      1  0.5953780000000  0.4544290000000  0.4570080000000 1.0
C      1  0.4456370000000  0.5266340000000  0.4947860000000 1.0
C      1  0.5800530000000  0.4476190000000  0.5042790000000 1.0
C      1  0.4796230000000  0.4970010000000  0.5734410000000 1.0
C      1  0.4192410000000  0.5867520000000  0.4792220000000 1.0
C      1  0.4985840000000  0.5854980000000  0.4516920000000 1.0
C      1  0.5673570000000  0.5724920000000  0.5372890000000 1.0
C      1  0.5263280000000  0.5082320000000  0.4407080000000 1.0
C      1  0.6018100000000  0.4767830000000  0.5523550000000 1.0
C      1  0.4768310000000  0.5025900000000  0.4425000000000 1.0
C      1  0.4406910000000  0.4041610000000  0.4856180000000 1.0
END
