TITL C-612605-9286-80 1.65931877698101 125000 -150.509784871577 0 0 27 (C1) n - 1
REM
REM in /home/nfs/bkarasulu/CARBON/AIRSS/Generating-Clusters/TERSOFF/Only-C1/FIRE-HFTN
REM
REM
REM
REM
REM
REM ./C.cell (11c1c37f851c82e70ff6c80c92926a4b)
REM AIRSS Version 0.9.1 bugfix July 2018 build 013d7b7c2542+ Fri, 06 Jul 2018 19:26:36 +0100
REM compiler GCC version 9.2.1 20190827 (Red Hat 9.2.1-1)
REM options -cpp -mtune=generic -march=x86-64 -g -O0 -fpre-include=/usr/include/finclude/math-vector-fortran.h
REM seed 1146687973 -1875429312 -291964448 -273535159 558524250 247595010 1299927185 -1883077111 -1761844242 1432642703 1059423932 54619578 428884569 1830645641 1278836114 2010788265 743423264 2129289676 -646115008 1694048079 1693644291 -470965585 -1391961314 1703623963 1019924444 -2035671137 -1878158658 -1022859722 1598185733 -2089529706 1818224577 -1771939900 -1439382323
REM
CELL 1.54180   50.00000   50.00000   50.00000   90.00000   90.00000   90.00000
LATT -1
SFAC C  
C      1  0.4812950000000  0.4692830000000  0.5320610000000 1.0
C      1  0.5524320000000  0.4753090000000  0.4914690000000 1.0
C      1  0.4227370000000  0.6052380000000  0.4333610000000 1.0
C      1  0.4581850000000  0.5490170000000  0.4769600000000 1.0
C      1  0.4113240000000  0.6229040000000  0.3899350000000 1.0
C      1  0.5386600000000  0.4718790000000  0.5147060000000 1.0
C      1  0.5380340000000  0.4473820000000  0.5300580000000 1.0
C      1  0.5349910000000  0.4693890000000  0.5969380000000 1.0
C      1  0.5292220000000  0.4957520000000  0.5551320000000 1.0
C      1  0.4463650000000  0.5677640000000  0.4624330000000 1.0
C      1  0.3973980000000  0.6458350000000  0.4297360000000 1.0
C      1  0.4818400000000  0.5115400000000  0.5060020000000 1.0
C      1  0.5954030000000  0.4317880000000  0.5499190000000 1.0
C      1  0.5853420000000  0.3914990000000  0.5212810000000 1.0
C      1  0.4928920000000  0.4495860000000  0.5469410000000 1.0
C      1  0.4103410000000  0.6248950000000  0.4178130000000 1.0
C      1  0.5639630000000  0.3831670000000  0.5056480000000 1.0
C      1  0.5439660000000  0.4023830000000  0.5068050000000 1.0
C      1  0.5523680000000  0.4243800000000  0.5238780000000 1.0
C      1  0.4945600000000  0.4920360000000  0.5210620000000 1.0
C      1  0.5794980000000  0.4172980000000  0.5334150000000 1.0
C      1  0.4700060000000  0.5302700000000  0.4914870000000 1.0
C      1  0.5287990000000  0.4716020000000  0.5706020000000 1.0
C      1  0.5207690000000  0.4497600000000  0.5532780000000 1.0
C      1  0.5227280000000  0.4926380000000  0.5272060000000 1.0
C      1  0.4345450000000  0.5865110000000  0.4479050000000 1.0
C      1  0.4123370000000  0.6208950000000  0.3639700000000 1.0
END
