TITL C-612606-7351-1169 0.00257601195945311 125000 -371.514945773166 0 0 60 (C1) n - 1
REM
REM in /home/nfs/bkarasulu/CARBON/AIRSS/Generating-Clusters/TERSOFF/Only-C1/FIRE-HFTN
REM
REM
REM
REM
REM
REM ./C.cell (11c1c37f851c82e70ff6c80c92926a4b)
REM AIRSS Version 0.9.1 bugfix July 2018 build 013d7b7c2542+ Fri, 06 Jul 2018 19:26:36 +0100
REM compiler GCC version 9.2.1 20190827 (Red Hat 9.2.1-1)
REM options -cpp -mtune=generic -march=x86-64 -g -O0 -fpre-include=/usr/include/finclude/math-vector-fortran.h
REM seed -1021247827 1746081822 458119261 -1709089666 1883320825 -1271869886 573298771 1997593238 1770016915 748432133 -362595543 -2024645424 1949486952 -1182971859 -972075299 1977825392 926442885 -511656372 -1482850447 1678541235 -1960092012 1231591870 -415772069 -469282269 665827731 -1181455164 -1130698464 -1709638647 1795208539 -3109298 -1105051894 113128960 287518762
REM
CELL 1.54180   50.00000   50.00000   50.00000   90.00000   90.00000   90.00000
LATT -1
SFAC C  
C      1  0.5405010000000  0.4708900000000  0.5711240000000 1.0
C      1  0.5034740000000  0.5181060000000  0.5806170000000 1.0
C      1  0.5157490000000  0.4786960000000  0.3988500000000 1.0
C      1  0.5051080000000  0.5780020000000  0.5389690000000 1.0
C      1  0.5291010000000  0.5198070000000  0.5691840000000 1.0
C      1  0.5146340000000  0.5502940000000  0.4831460000000 1.0
C      1  0.4155480000000  0.4795060000000  0.5898890000000 1.0
C      1  0.4418240000000  0.4511810000000  0.4845680000000 1.0
C      1  0.5324400000000  0.5533380000000  0.5057030000000 1.0
C      1  0.4383090000000  0.4836640000000  0.5753640000000 1.0
C      1  0.4223610000000  0.5382390000000  0.4909590000000 1.0
C      1  0.4969200000000  0.4559320000000  0.5435890000000 1.0
C      1  0.4695930000000  0.4570640000000  0.5494440000000 1.0
C      1  0.5074230000000  0.4476060000000  0.4470670000000 1.0
C      1  0.5477270000000  0.4982090000000  0.5675860000000 1.0
C      1  0.5761530000000  0.5033920000000  0.5257580000000 1.0
C      1  0.5466930000000  0.4979180000000  0.4856500000000 1.0
C      1  0.5245110000000  0.5367750000000  0.4596170000000 1.0
C      1  0.5157950000000  0.4503350000000  0.3989580000000 1.0
C      1  0.4649600000000  0.4650750000000  0.4321180000000 1.0
C      1  0.5264050000000  0.4657700000000  0.4579460000000 1.0
C      1  0.4784950000000  0.5763570000000  0.5300740000000 1.0
C      1  0.5538060000000  0.4406300000000  0.5199120000000 1.0
C      1  0.5323020000000  0.4534580000000  0.5071080000000 1.0
C      1  0.4759190000000  0.5233490000000  0.5786040000000 1.0
C      1  0.5589290000000  0.5013110000000  0.4026760000000 1.0
C      1  0.5604680000000  0.4511280000000  0.5672770000000 1.0
C      1  0.5372170000000  0.5114030000000  0.4612170000000 1.0
C      1  0.4670120000000  0.5477610000000  0.5678800000000 1.0
C      1  0.5366910000000  0.4906350000000  0.4143330000000 1.0
C      1  0.4868210000000  0.5568750000000  0.4834600000000 1.0
C      1  0.4690310000000  0.4805950000000  0.4106150000000 1.0
C      1  0.5255390000000  0.5597280000000  0.5328030000000 1.0
C      1  0.5165200000000  0.5462450000000  0.4343260000000 1.0
C      1  0.5137070000000  0.4359470000000  0.4218940000000 1.0
C      1  0.4265040000000  0.4656400000000  0.5305470000000 1.0
C      1  0.4909940000000  0.4932350000000  0.3982280000000 1.0
C      1  0.4925240000000  0.5212870000000  0.3971760000000 1.0
C      1  0.5329620000000  0.4898780000000  0.4423350000000 1.0
C      1  0.4864270000000  0.4407930000000  0.4987110000000 1.0
C      1  0.5364330000000  0.4705840000000  0.4850030000000 1.0
C      1  0.4674400000000  0.5418190000000  0.4696500000000 1.0
C      1  0.5626800000000  0.5130250000000  0.5032710000000 1.0
C      1  0.5340390000000  0.5427460000000  0.5535350000000 1.0
C      1  0.4440460000000  0.4681990000000  0.5522590000000 1.0
C      1  0.5655970000000  0.4385720000000  0.5439390000000 1.0
C      1  0.4587270000000  0.5634050000000  0.5460680000000 1.0
C      1  0.4794220000000  0.4517760000000  0.4523520000000 1.0
C      1  0.4329320000000  0.5596030000000  0.5355640000000 1.0
C      1  0.4569830000000  0.5031980000000  0.5828850000000 1.0
C      1  0.4766960000000  0.5755230000000  0.5020160000000 1.0
C      1  0.5033010000000  0.5410210000000  0.4117100000000 1.0
C      1  0.5709710000000  0.5021920000000  0.5520080000000 1.0
C      1  0.4192010000000  0.5488030000000  0.5153400000000 1.0
C      1  0.5576330000000  0.5408380000000  0.5026290000000 1.0
C      1  0.5056920000000  0.4494880000000  0.5171210000000 1.0
C      1  0.4417540000000  0.5348740000000  0.4727920000000 1.0
C      1  0.4260850000000  0.4589020000000  0.5047070000000 1.0
C      1  0.5146520000000  0.4629100000000  0.5640240000000 1.0
C      1  0.4686200000000  0.4464660000000  0.4778440000000 1.0
END
