TITL C-612603-7354-1363 -0.00307821649289871 125000 -453.254980418582 0 0 74 (C1) n - 1
REM
REM in /home/nfs/bkarasulu/CARBON/AIRSS/Generating-Clusters/TERSOFF/Only-C1/FIRE-HFTN
REM
REM
REM
REM
REM
REM ./C.cell (11c1c37f851c82e70ff6c80c92926a4b)
REM AIRSS Version 0.9.1 bugfix July 2018 build 013d7b7c2542+ Fri, 06 Jul 2018 19:26:36 +0100
REM compiler GCC version 9.2.1 20190827 (Red Hat 9.2.1-1)
REM options -cpp -mtune=generic -march=x86-64 -g -O0 -fpre-include=/usr/include/finclude/math-vector-fortran.h
REM seed 1056223965 -1670327281 400583187 -630177106 -433273116 1352130319 -758990256 1662004550 -925223709 263507178 2068477955 -1972572006 -204155876 423778540 1902673950 747927689 381107728 -1325257669 1916466844 -203329591 -2061562942 -207414442 -214201416 -915954721 -520027900 -400456183 69960839 -56974425 -754402055 927302238 597271461 -844822815 -733632055
REM
CELL 1.54180   50.00000   50.00000   50.00000   90.00000   90.00000   90.00000
LATT -1
SFAC C  
C      1  0.5690300000000  0.5175820000000  0.5313790000000 1.0
C      1  0.4997120000000  0.4711130000000  0.5895410000000 1.0
C      1  0.5580890000000  0.5139900000000  0.4520180000000 1.0
C      1  0.5662510000000  0.4737200000000  0.4328770000000 1.0
C      1  0.5369450000000  0.4521940000000  0.4705370000000 1.0
C      1  0.4382830000000  0.4530670000000  0.5196570000000 1.0
C      1  0.4643590000000  0.4559190000000  0.5596700000000 1.0
C      1  0.5528860000000  0.5663850000000  0.4795770000000 1.0
C      1  0.4237250000000  0.5502060000000  0.5785900000000 1.0
C      1  0.5358600000000  0.5091640000000  0.4691580000000 1.0
C      1  0.5353740000000  0.5013950000000  0.5772500000000 1.0
C      1  0.5040270000000  0.4857590000000  0.4151560000000 1.0
C      1  0.4555980000000  0.5178530000000  0.4897370000000 1.0
C      1  0.5238760000000  0.4843650000000  0.5075790000000 1.0
C      1  0.5481690000000  0.5339570000000  0.5414930000000 1.0
C      1  0.4652250000000  0.4315930000000  0.4570020000000 1.0
C      1  0.4917330000000  0.5960460000000  0.4850900000000 1.0
C      1  0.5550640000000  0.5681600000000  0.5067150000000 1.0
C      1  0.4738720000000  0.5261090000000  0.4210130000000 1.0
C      1  0.4986210000000  0.4813010000000  0.5196460000000 1.0
C      1  0.3975280000000  0.5429590000000  0.5794190000000 1.0
C      1  0.5020320000000  0.5799210000000  0.4370180000000 1.0
C      1  0.4535880000000  0.4826470000000  0.5624660000000 1.0
C      1  0.5829620000000  0.4769560000000  0.4744550000000 1.0
C      1  0.4993980000000  0.5154830000000  0.4156140000000 1.0
C      1  0.4271000000000  0.4646280000000  0.4496370000000 1.0
C      1  0.5783870000000  0.4933050000000  0.4523590000000 1.0
C      1  0.5200400000000  0.5572560000000  0.4385550000000 1.0
C      1  0.5479360000000  0.5174610000000  0.4243610000000 1.0
C      1  0.5009020000000  0.5754150000000  0.5026200000000 1.0
C      1  0.5582720000000  0.4538410000000  0.4515320000000 1.0
C      1  0.4787180000000  0.4694440000000  0.5039190000000 1.0
C      1  0.5516020000000  0.4895670000000  0.4132730000000 1.0
C      1  0.4584830000000  0.5350810000000  0.4409360000000 1.0
C      1  0.4250740000000  0.4862090000000  0.4655910000000 1.0
C      1  0.4533080000000  0.5346350000000  0.4671650000000 1.0
C      1  0.4929740000000  0.5505870000000  0.5467410000000 1.0
C      1  0.4381950000000  0.5066070000000  0.5616980000000 1.0
C      1  0.4922860000000  0.5953440000000  0.4575950000000 1.0
C      1  0.4760590000000  0.4244150000000  0.5205220000000 1.0
C      1  0.5112440000000  0.3999660000000  0.4986340000000 1.0
C      1  0.4886100000000  0.5059640000000  0.5308360000000 1.0
C      1  0.5698600000000  0.4753880000000  0.4990360000000 1.0
C      1  0.3903420000000  0.5187190000000  0.5693800000000 1.0
C      1  0.5289750000000  0.5202040000000  0.5576400000000 1.0
C      1  0.4430560000000  0.4431970000000  0.4476550000000 1.0
C      1  0.5038790000000  0.4744020000000  0.4424290000000 1.0
C      1  0.5293710000000  0.5579270000000  0.4661690000000 1.0
C      1  0.5132220000000  0.4970360000000  0.4566660000000 1.0
C      1  0.5033730000000  0.4267460000000  0.5736140000000 1.0
C      1  0.4448730000000  0.5354530000000  0.5658310000000 1.0
C      1  0.4574850000000  0.4399400000000  0.5363790000000 1.0
C      1  0.5426620000000  0.4522760000000  0.5835090000000 1.0
C      1  0.4864620000000  0.4495620000000  0.5761130000000 1.0
C      1  0.4787200000000  0.5199880000000  0.5065930000000 1.0
C      1  0.5097290000000  0.4509490000000  0.4595350000000 1.0
C      1  0.4920300000000  0.4196860000000  0.4968750000000 1.0
C      1  0.5036320000000  0.5283120000000  0.4952050000000 1.0
C      1  0.4406000000000  0.4934370000000  0.4880110000000 1.0
C      1  0.5304070000000  0.4287170000000  0.5770610000000 1.0
C      1  0.5229090000000  0.5325180000000  0.4225060000000 1.0
C      1  0.5023800000000  0.5232800000000  0.5486540000000 1.0
C      1  0.4505400000000  0.4717330000000  0.5026670000000 1.0
C      1  0.5425220000000  0.4657090000000  0.4963930000000 1.0
C      1  0.4663530000000  0.5513840000000  0.5560450000000 1.0
C      1  0.5756550000000  0.4945090000000  0.5191830000000 1.0
C      1  0.5394590000000  0.5588820000000  0.5289920000000 1.0
C      1  0.5083410000000  0.5535250000000  0.4851590000000 1.0
C      1  0.5280690000000  0.4792610000000  0.4010680000000 1.0
C      1  0.5264270000000  0.5107420000000  0.4956980000000 1.0
C      1  0.4895890000000  0.4335000000000  0.4711590000000 1.0
C      1  0.5276620000000  0.4763130000000  0.5866710000000 1.0
C      1  0.5102650000000  0.5670160000000  0.5294370000000 1.0
C      1  0.4097550000000  0.5021260000000  0.5600370000000 1.0
END
