TITL C-612605-9286-1463 0.0033905500867729 125000 -546.762297339243 0 0 90 (C1) n - 1
REM
REM in /home/nfs/bkarasulu/CARBON/AIRSS/Generating-Clusters/TERSOFF/Only-C1/FIRE-HFTN
REM
REM
REM
REM
REM
REM ./C.cell (11c1c37f851c82e70ff6c80c92926a4b)
REM AIRSS Version 0.9.1 bugfix July 2018 build 013d7b7c2542+ Fri, 06 Jul 2018 19:26:36 +0100
REM compiler GCC version 9.2.1 20190827 (Red Hat 9.2.1-1)
REM options -cpp -mtune=generic -march=x86-64 -g -O0 -fpre-include=/usr/include/finclude/math-vector-fortran.h
REM seed -121763944 -1112981891 -643364000 -926750806 1942735363 255178178 -1398508234 1937932347 -1179155749 -132778269 1023219729 328529797 -11922806 -563736557 -1805097607 1303994021 -1773237567 -543165751 -197114270 487084426 1711044492 -163367591 -740598124 -1095860365 -1512273014 -1187151900 -2067828653 -1383155531 1527120089 2004044154 -1040746084 1004472553 184786908
REM
CELL 1.54180   50.00000   50.00000   50.00000   90.00000   90.00000   90.00000
LATT -1
SFAC C  
C      1  0.5751850000000  0.4644190000000  0.5406160000000 1.0
C      1  0.5663470000000  0.4949520000000  0.4192940000000 1.0
C      1  0.4945860000000  0.3983240000000  0.4959180000000 1.0
C      1  0.5505400000000  0.5285740000000  0.5539340000000 1.0
C      1  0.4772620000000  0.5406750000000  0.5214100000000 1.0
C      1  0.5012840000000  0.5988250000000  0.5190990000000 1.0
C      1  0.4477930000000  0.4413780000000  0.5855660000000 1.0
C      1  0.4654280000000  0.5551660000000  0.5004180000000 1.0
C      1  0.5308080000000  0.5357830000000  0.4200350000000 1.0
C      1  0.5028240000000  0.5324140000000  0.4159600000000 1.0
C      1  0.4901920000000  0.4948340000000  0.5752460000000 1.0
C      1  0.4620710000000  0.5538310000000  0.5913760000000 1.0
C      1  0.4097780000000  0.4691740000000  0.5279890000000 1.0
C      1  0.5244510000000  0.5518530000000  0.5040740000000 1.0
C      1  0.4399550000000  0.4486230000000  0.5595740000000 1.0
C      1  0.5665020000000  0.5446580000000  0.4793630000000 1.0
C      1  0.4656250000000  0.5108410000000  0.5678180000000 1.0
C      1  0.4282620000000  0.5197850000000  0.4744190000000 1.0
C      1  0.5513140000000  0.5554010000000  0.5477950000000 1.0
C      1  0.5759860000000  0.5266590000000  0.4976280000000 1.0
C      1  0.5784080000000  0.5068960000000  0.5182620000000 1.0
C      1  0.4858530000000  0.5104370000000  0.4056480000000 1.0
C      1  0.4947710000000  0.4841390000000  0.4007530000000 1.0
C      1  0.5111350000000  0.4990310000000  0.5344240000000 1.0
C      1  0.4173670000000  0.4525180000000  0.4781710000000 1.0
C      1  0.5501130000000  0.5169210000000  0.4117830000000 1.0
C      1  0.4875950000000  0.6237140000000  0.4506820000000 1.0
C      1  0.4441380000000  0.5380930000000  0.4595990000000 1.0
C      1  0.5191170000000  0.5021390000000  0.5810300000000 1.0
C      1  0.5262970000000  0.4761320000000  0.4366000000000 1.0
C      1  0.5658230000000  0.4839540000000  0.5605160000000 1.0
C      1  0.5640200000000  0.4665690000000  0.4913660000000 1.0
C      1  0.5460960000000  0.5606810000000  0.4656820000000 1.0
C      1  0.4509560000000  0.4330600000000  0.5385030000000 1.0
C      1  0.5792090000000  0.4776450000000  0.5138270000000 1.0
C      1  0.4279130000000  0.5128850000000  0.5007040000000 1.0
C      1  0.5441760000000  0.4848610000000  0.5814540000000 1.0
C      1  0.4735790000000  0.4675710000000  0.5071640000000 1.0
C      1  0.5719110000000  0.4367340000000  0.5429110000000 1.0
C      1  0.4579960000000  0.5348690000000  0.4352830000000 1.0
C      1  0.4543790000000  0.4271340000000  0.4914110000000 1.0
C      1  0.4920820000000  0.4711930000000  0.4646250000000 1.0
C      1  0.4931650000000  0.4588410000000  0.4892000000000 1.0
C      1  0.5912680000000  0.4909710000000  0.4089950000000 1.0
C      1  0.4984870000000  0.6103870000000  0.4708190000000 1.0
C      1  0.5364150000000  0.4078310000000  0.5204010000000 1.0
C      1  0.4436760000000  0.4983650000000  0.5499470000000 1.0
C      1  0.5013210000000  0.4510140000000  0.5577180000000 1.0
C      1  0.5367480000000  0.5623780000000  0.5268030000000 1.0
C      1  0.4930780000000  0.5152340000000  0.5158490000000 1.0
C      1  0.5157210000000  0.4163810000000  0.5032950000000 1.0
C      1  0.4365110000000  0.5009670000000  0.4056460000000 1.0
C      1  0.4837690000000  0.5481050000000  0.4314780000000 1.0
C      1  0.4690920000000  0.5402420000000  0.5685520000000 1.0
C      1  0.4560400000000  0.4467790000000  0.5136010000000 1.0
C      1  0.5398350000000  0.5551320000000  0.4387710000000 1.0
C      1  0.5252980000000  0.5713240000000  0.4832870000000 1.0
C      1  0.4569550000000  0.4450550000000  0.4459560000000 1.0
C      1  0.5057660000000  0.6252710000000  0.5278760000000 1.0
C      1  0.5299280000000  0.4823200000000  0.5192150000000 1.0
C      1  0.4456580000000  0.5045810000000  0.5211330000000 1.0
C      1  0.5666590000000  0.4695620000000  0.4632030000000 1.0
C      1  0.5376850000000  0.4617110000000  0.5017420000000 1.0
C      1  0.4796100000000  0.5547750000000  0.5457750000000 1.0
C      1  0.5086890000000  0.5936270000000  0.4907720000000 1.0
C      1  0.5101060000000  0.6498280000000  0.5354420000000 1.0
C      1  0.4409830000000  0.4387050000000  0.4690760000000 1.0
C      1  0.5545530000000  0.4772270000000  0.4383100000000 1.0
C      1  0.4905090000000  0.5807970000000  0.5393940000000 1.0
C      1  0.5027330000000  0.4660730000000  0.4211290000000 1.0
C      1  0.4817230000000  0.4581730000000  0.4409870000000 1.0
C      1  0.5701600000000  0.5099300000000  0.5465490000000 1.0
C      1  0.4723560000000  0.4325680000000  0.5926660000000 1.0
C      1  0.4593860000000  0.4060280000000  0.5318530000000 1.0
C      1  0.5571550000000  0.4158610000000  0.5351890000000 1.0
C      1  0.4678640000000  0.4041700000000  0.5036530000000 1.0
C      1  0.5247990000000  0.5169880000000  0.5560250000000 1.0
C      1  0.5134470000000  0.5265640000000  0.4967940000000 1.0
C      1  0.4073600000000  0.4617750000000  0.5018510000000 1.0
C      1  0.4959290000000  0.4778740000000  0.5519130000000 1.0
C      1  0.4707630000000  0.4953550000000  0.5111510000000 1.0
C      1  0.5180730000000  0.5121900000000  0.4733470000000 1.0
C      1  0.4583230000000  0.5142710000000  0.4149630000000 1.0
C      1  0.5001300000000  0.3759130000000  0.4812070000000 1.0
C      1  0.4766110000000  0.6360960000000  0.4305420000000 1.0
C      1  0.5130870000000  0.4893550000000  0.4588440000000 1.0
C      1  0.4279070000000  0.4731420000000  0.5505510000000 1.0
C      1  0.5162730000000  0.4440100000000  0.4960170000000 1.0
C      1  0.4950080000000  0.4345730000000  0.5781090000000 1.0
C      1  0.4542640000000  0.5583390000000  0.4764740000000 1.0
END
