TITL C-612607-4507-840 -0.281297652574224 125000 -547.0575494448 0 0 91 (C1) n - 1
REM
REM in /home/nfs/bkarasulu/CARBON/AIRSS/Generating-Clusters/TERSOFF/Only-C1/FIRE-HFTN
REM
REM
REM
REM
REM
REM ./C.cell (11c1c37f851c82e70ff6c80c92926a4b)
REM AIRSS Version 0.9.1 bugfix July 2018 build 013d7b7c2542+ Fri, 06 Jul 2018 19:26:36 +0100
REM compiler GCC version 9.2.1 20190827 (Red Hat 9.2.1-1)
REM options -cpp -mtune=generic -march=x86-64 -g -O0 -fpre-include=/usr/include/finclude/math-vector-fortran.h
REM seed 1520463410 -213330557 -1513359136 76814367 -1237417131 -729251682 -1056146845 -960390817 1760176263 -581691760 -781783750 -525069432 1052941540 2013133530 -291414291 -1044931958 -474090502 -1449263791 -2109205259 726510747 -1178507485 1363497333 394178031 1804613259 120184282 -902453404 -1971834373 -164306440 -448918279 -2068417629 -503409438 787790766 -1149884778
REM
CELL 1.54180   50.00000   50.00000   50.00000   90.00000   90.00000   90.00000
LATT -1
SFAC C  
C      1  0.4521170000000  0.5551060000000  0.4531830000000 1.0
C      1  0.5816770000000  0.5268720000000  0.4327700000000 1.0
C      1  0.4947210000000  0.5013930000000  0.5674130000000 1.0
C      1  0.4967860000000  0.5259050000000  0.5230350000000 1.0
C      1  0.6461630000000  0.2606510000000  0.5360060000000 1.0
C      1  0.4891920000000  0.5103150000000  0.4670680000000 1.0
C      1  0.4046480000000  0.5531110000000  0.5471860000000 1.0
C      1  0.5078630000000  0.5101390000000  0.4215970000000 1.0
C      1  0.4987700000000  0.5924960000000  0.5000300000000 1.0
C      1  0.5230300000000  0.4704240000000  0.5921710000000 1.0
C      1  0.6149850000000  0.3278380000000  0.5083150000000 1.0
C      1  0.4746290000000  0.4490640000000  0.5429850000000 1.0
C      1  0.5292150000000  0.6110250000000  0.4618070000000 1.0
C      1  0.4449750000000  0.4912470000000  0.4678670000000 1.0
C      1  0.4844060000000  0.5198640000000  0.6108910000000 1.0
C      1  0.4931760000000  0.5525640000000  0.3706470000000 1.0
C      1  0.6358840000000  0.2828020000000  0.5268770000000 1.0
C      1  0.5116090000000  0.5453650000000  0.5807940000000 1.0
C      1  0.5235160000000  0.5933510000000  0.3916820000000 1.0
C      1  0.5026040000000  0.5951790000000  0.5723120000000 1.0
C      1  0.6071710000000  0.4609410000000  0.6551840000000 1.0
C      1  0.4538300000000  0.6088520000000  0.5652390000000 1.0
C      1  0.3929190000000  0.5432820000000  0.5013110000000 1.0
C      1  0.6254330000000  0.3053230000000  0.5175950000000 1.0
C      1  0.4855950000000  0.5717270000000  0.5101220000000 1.0
C      1  0.5009720000000  0.4478130000000  0.4554120000000 1.0
C      1  0.6045370000000  0.3503540000000  0.4990340000000 1.0
C      1  0.4970890000000  0.5221970000000  0.5867140000000 1.0
C      1  0.4243390000000  0.4710830000000  0.5473020000000 1.0
C      1  0.5312190000000  0.5484170000000  0.3984560000000 1.0
C      1  0.5511580000000  0.4732970000000  0.5412810000000 1.0
C      1  0.5602720000000  0.5031060000000  0.4878780000000 1.0
C      1  0.5622150000000  0.4405320000000  0.4628990000000 1.0
C      1  0.5836400000000  0.3953850000000  0.4804750000000 1.0
C      1  0.4888620000000  0.4419720000000  0.5182700000000 1.0
C      1  0.5130990000000  0.4734550000000  0.4924470000000 1.0
C      1  0.4307720000000  0.5961130000000  0.5618770000000 1.0
C      1  0.5163020000000  0.4838790000000  0.4269710000000 1.0
C      1  0.5184730000000  0.5173290000000  0.5064010000000 1.0
C      1  0.5175800000000  0.5229730000000  0.3984560000000 1.0
C      1  0.4775660000000  0.4338880000000  0.5885360000000 1.0
C      1  0.4498020000000  0.4653320000000  0.5333700000000 1.0
C      1  0.4151120000000  0.5541610000000  0.4878510000000 1.0
C      1  0.4446380000000  0.4502080000000  0.5071090000000 1.0
C      1  0.4801960000000  0.6090300000000  0.5686240000000 1.0
C      1  0.5731450000000  0.4179130000000  0.4712820000000 1.0
C      1  0.5940890000000  0.3728690000000  0.4897540000000 1.0
C      1  0.4701840000000  0.4415980000000  0.4958880000000 1.0
C      1  0.4895720000000  0.5223320000000  0.4404850000000 1.0
C      1  0.4581760000000  0.5340170000000  0.4939030000000 1.0
C      1  0.4566010000000  0.4672210000000  0.4584020000000 1.0
C      1  0.4200130000000  0.4427930000000  0.4982220000000 1.0
C      1  0.5437660000000  0.4677700000000  0.6084320000000 1.0
C      1  0.5144640000000  0.6059950000000  0.4833510000000 1.0
C      1  0.4680910000000  0.5573730000000  0.3823910000000 1.0
C      1  0.5462500000000  0.5119180000000  0.5110400000000 1.0
C      1  0.4617950000000  0.5492330000000  0.4072060000000 1.0
C      1  0.3455620000000  0.5395630000000  0.4756470000000 1.0
C      1  0.4628760000000  0.4926660000000  0.5317290000000 1.0
C      1  0.4045980000000  0.4891760000000  0.5464050000000 1.0
C      1  0.4631350000000  0.5101690000000  0.4788800000000 1.0
C      1  0.5490800000000  0.4645420000000  0.4571310000000 1.0
C      1  0.5139090000000  0.4538890000000  0.5128940000000 1.0
C      1  0.4181690000000  0.4957900000000  0.4656860000000 1.0
C      1  0.5624000000000  0.4894400000000  0.4631720000000 1.0
C      1  0.4146770000000  0.5755650000000  0.5571070000000 1.0
C      1  0.4757360000000  0.4489130000000  0.4686970000000 1.0
C      1  0.4842860000000  0.4521230000000  0.5692480000000 1.0
C      1  0.5355930000000  0.4540440000000  0.5307250000000 1.0
C      1  0.5771010000000  0.5029430000000  0.4434760000000 1.0
C      1  0.3683230000000  0.5415620000000  0.4881810000000 1.0
C      1  0.5716840000000  0.5504530000000  0.4255630000000 1.0
C      1  0.4851040000000  0.5072740000000  0.5413180000000 1.0
C      1  0.4686100000000  0.5422770000000  0.4336730000000 1.0
C      1  0.5649700000000  0.4654630000000  0.6241540000000 1.0
C      1  0.5088240000000  0.5003740000000  0.4850760000000 1.0
C      1  0.5495220000000  0.5630930000000  0.4148410000000 1.0
C      1  0.5862450000000  0.4631830000000  0.6397980000000 1.0
C      1  0.4786010000000  0.5446640000000  0.5111410000000 1.0
C      1  0.5541330000000  0.4994020000000  0.5351030000000 1.0
C      1  0.5410990000000  0.5909410000000  0.4147200000000 1.0
C      1  0.3597770000000  0.5028400000000  0.5366690000000 1.0
C      1  0.3953030000000  0.5345110000000  0.5284590000000 1.0
C      1  0.5139060000000  0.5714400000000  0.5762840000000 1.0
C      1  0.5394570000000  0.6064490000000  0.4376830000000 1.0
C      1  0.4413920000000  0.5514200000000  0.4789960000000 1.0
C      1  0.5006790000000  0.4746260000000  0.5757750000000 1.0
C      1  0.5155360000000  0.5677970000000  0.3812790000000 1.0
C      1  0.5015370000000  0.5247280000000  0.3742640000000 1.0
C      1  0.3865870000000  0.5086670000000  0.5370190000000 1.0
C      1  0.5226870000000  0.4636220000000  0.4453990000000 1.0
END
