TITL C-612607-4507-372 -0.000726850024020799 125000 -1019.55648443995 0 0 169 (C1) n - 1
REM
REM in /home/nfs/bkarasulu/CARBON/AIRSS/Generating-Clusters/TERSOFF/Only-C1/FIRE-HFTN
REM
REM
REM
REM
REM
REM ./C.cell (11c1c37f851c82e70ff6c80c92926a4b)
REM AIRSS Version 0.9.1 bugfix July 2018 build 013d7b7c2542+ Fri, 06 Jul 2018 19:26:36 +0100
REM compiler GCC version 9.2.1 20190827 (Red Hat 9.2.1-1)
REM options -cpp -mtune=generic -march=x86-64 -g -O0 -fpre-include=/usr/include/finclude/math-vector-fortran.h
REM seed 504789416 -817099823 1713254985 1162530167 -1955083071 -2115691477 1287876646 -276758434 -69566496 487549474 -424300608 -112216725 1722381516 514229833 1015824295 1573682201 2064881036 -2083251431 -725364561 713080041 -1284644163 -651984031 581239449 1275307885 -1027086882 1943221366 349613278 1502658136 -353169993 -584384540 1032981008 -1423584633 649416443
REM
CELL 1.54180   50.00000   50.00000   50.00000   90.00000   90.00000   90.00000
LATT -1
SFAC C  
C      1  0.4316430000000  0.5387050000000  0.4398740000000 1.0
C      1  0.4737420000000  0.4647360000000  0.5379160000000 1.0
C      1  0.5042920000000  0.3952730000000  0.5632580000000 1.0
C      1  0.4889550000000  0.5176710000000  0.3774020000000 1.0
C      1  0.4895020000000  0.5862040000000  0.4396320000000 1.0
C      1  0.4772320000000  0.4940200000000  0.3713600000000 1.0
C      1  0.4635450000000  0.4848260000000  0.4984470000000 1.0
C      1  0.5325760000000  0.6055970000000  0.4953520000000 1.0
C      1  0.4822590000000  0.5511330000000  0.5534870000000 1.0
C      1  0.4997290000000  0.5127130000000  0.6128160000000 1.0
C      1  0.4360270000000  0.4339930000000  0.4034270000000 1.0
C      1  0.5573640000000  0.4590900000000  0.4953560000000 1.0
C      1  0.4714610000000  0.5203500000000  0.6153510000000 1.0
C      1  0.4193340000000  0.4359210000000  0.4270570000000 1.0
C      1  0.5727410000000  0.5864690000000  0.4478950000000 1.0
C      1  0.4006320000000  0.4078410000000  0.5649140000000 1.0
C      1  0.5756190000000  0.5624490000000  0.5216720000000 1.0
C      1  0.5845750000000  0.5808130000000  0.4738410000000 1.0
C      1  0.4236740000000  0.4877890000000  0.5270650000000 1.0
C      1  0.4545190000000  0.3948400000000  0.4262640000000 1.0
C      1  0.4222250000000  0.5169070000000  0.5954200000000 1.0
C      1  0.4935850000000  0.3929470000000  0.4607070000000 1.0
C      1  0.6166620000000  0.4730410000000  0.4630680000000 1.0
C      1  0.4291820000000  0.4295390000000  0.4907230000000 1.0
C      1  0.5781390000000  0.5949670000000  0.4975980000000 1.0
C      1  0.4538800000000  0.4429300000000  0.4861020000000 1.0
C      1  0.4771760000000  0.5236070000000  0.5536610000000 1.0
C      1  0.5688600000000  0.5406590000000  0.4402970000000 1.0
C      1  0.5964270000000  0.5299340000000  0.5577310000000 1.0
C      1  0.4526550000000  0.4109160000000  0.4029510000000 1.0
C      1  0.4066220000000  0.4682390000000  0.5377030000000 1.0
C      1  0.5318680000000  0.4888260000000  0.4534400000000 1.0
C      1  0.4762630000000  0.4113590000000  0.3878260000000 1.0
C      1  0.5756420000000  0.4953290000000  0.5931010000000 1.0
C      1  0.5507320000000  0.5740050000000  0.5274410000000 1.0
C      1  0.4458780000000  0.5467100000000  0.4929540000000 1.0
C      1  0.4981900000000  0.5655950000000  0.5332830000000 1.0
C      1  0.5503830000000  0.4728210000000  0.3899040000000 1.0
C      1  0.4547650000000  0.5910200000000  0.5528780000000 1.0
C      1  0.5930980000000  0.5090860000000  0.5772930000000 1.0
C      1  0.4390030000000  0.4793850000000  0.4168280000000 1.0
C      1  0.5459490000000  0.4326520000000  0.4959890000000 1.0
C      1  0.6031020000000  0.4225370000000  0.5530930000000 1.0
C      1  0.4951640000000  0.5397830000000  0.3948220000000 1.0
C      1  0.5133110000000  0.4547090000000  0.5229180000000 1.0
C      1  0.4665010000000  0.4482620000000  0.5919960000000 1.0
C      1  0.5120560000000  0.5020920000000  0.4353450000000 1.0
C      1  0.3959110000000  0.4672370000000  0.4880040000000 1.0
C      1  0.4317520000000  0.5437180000000  0.5967640000000 1.0
C      1  0.4466370000000  0.4165260000000  0.5518820000000 1.0
C      1  0.5523720000000  0.4832910000000  0.6002410000000 1.0
C      1  0.4442920000000  0.4610030000000  0.3953100000000 1.0
C      1  0.4582100000000  0.4938120000000  0.6158510000000 1.0
C      1  0.5428580000000  0.5373320000000  0.4507620000000 1.0
C      1  0.4050940000000  0.4722950000000  0.4605430000000 1.0
C      1  0.5616080000000  0.4942090000000  0.4507330000000 1.0
C      1  0.4068480000000  0.4413190000000  0.5303810000000 1.0
C      1  0.5254210000000  0.4741290000000  0.5968060000000 1.0
C      1  0.5387770000000  0.5736010000000  0.5905580000000 1.0
C      1  0.6091710000000  0.4658120000000  0.4377260000000 1.0
C      1  0.5270000000000  0.4593870000000  0.3975510000000 1.0
C      1  0.5023410000000  0.4832950000000  0.6107620000000 1.0
C      1  0.5566980000000  0.5815910000000  0.4261040000000 1.0
C      1  0.5517720000000  0.5131190000000  0.4933860000000 1.0
C      1  0.3944090000000  0.5252970000000  0.5125660000000 1.0
C      1  0.3843240000000  0.3944760000000  0.5802280000000 1.0
C      1  0.4271710000000  0.5071380000000  0.4779050000000 1.0
C      1  0.5762770000000  0.4594870000000  0.3950720000000 1.0
C      1  0.5680450000000  0.4867640000000  0.5448150000000 1.0
C      1  0.5138170000000  0.4758700000000  0.4723320000000 1.0
C      1  0.5273740000000  0.5576940000000  0.5348180000000 1.0
C      1  0.5844310000000  0.5548740000000  0.5669660000000 1.0
C      1  0.4511300000000  0.5292940000000  0.4182270000000 1.0
C      1  0.5249310000000  0.5845210000000  0.4805320000000 1.0
C      1  0.4710290000000  0.3898850000000  0.4467730000000 1.0
C      1  0.6055320000000  0.4930410000000  0.4804080000000 1.0
C      1  0.4995670000000  0.4212460000000  0.3964260000000 1.0
C      1  0.5831200000000  0.4397100000000  0.5459650000000 1.0
C      1  0.4453320000000  0.5292840000000  0.4675380000000 1.0
C      1  0.4562270000000  0.5010830000000  0.4199760000000 1.0
C      1  0.5034370000000  0.4336620000000  0.5366120000000 1.0
C      1  0.4803090000000  0.4948410000000  0.4373640000000 1.0
C      1  0.4512540000000  0.5849260000000  0.5241780000000 1.0
C      1  0.5467060000000  0.4168530000000  0.5204820000000 1.0
C      1  0.5168940000000  0.5297030000000  0.4420090000000 1.0
C      1  0.5008750000000  0.5432080000000  0.4857500000000 1.0
C      1  0.4066830000000  0.5212630000000  0.4391360000000 1.0
C      1  0.4061460000000  0.4422640000000  0.5014770000000 1.0
C      1  0.5376950000000  0.4436890000000  0.5617680000000 1.0
C      1  0.4267640000000  0.4591410000000  0.4441290000000 1.0
C      1  0.4246600000000  0.5017190000000  0.5734710000000 1.0
C      1  0.4805460000000  0.3825320000000  0.5263990000000 1.0
C      1  0.5848380000000  0.5065040000000  0.4659940000000 1.0
C      1  0.4313260000000  0.5656480000000  0.5102880000000 1.0
C      1  0.4662840000000  0.4583600000000  0.5090610000000 1.0
C      1  0.5187300000000  0.5947260000000  0.5889410000000 1.0
C      1  0.5317960000000  0.5739680000000  0.4129220000000 1.0
C      1  0.4824230000000  0.5933900000000  0.4882120000000 1.0
C      1  0.5946420000000  0.5536070000000  0.4794610000000 1.0
C      1  0.5129100000000  0.4483730000000  0.4637860000000 1.0
C      1  0.5075580000000  0.3834710000000  0.5369630000000 1.0
C      1  0.5182280000000  0.5191110000000  0.5694450000000 1.0
C      1  0.5156830000000  0.5092830000000  0.5214540000000 1.0
C      1  0.4796950000000  0.5821410000000  0.5142540000000 1.0
C      1  0.3879740000000  0.4985870000000  0.5031760000000 1.0
C      1  0.5001020000000  0.5186780000000  0.5002370000000 1.0
C      1  0.5239130000000  0.5478980000000  0.3991680000000 1.0
C      1  0.5310760000000  0.5268410000000  0.5424800000000 1.0
C      1  0.5565980000000  0.5110320000000  0.5438510000000 1.0
C      1  0.5540100000000  0.5995080000000  0.5120700000000 1.0
C      1  0.4063790000000  0.5569850000000  0.5524010000000 1.0
C      1  0.5560160000000  0.4311110000000  0.5440570000000 1.0
C      1  0.5200320000000  0.4001190000000  0.4672390000000 1.0
C      1  0.5937410000000  0.5466600000000  0.5077780000000 1.0
C      1  0.4344350000000  0.5034390000000  0.5474280000000 1.0
C      1  0.4580650000000  0.3960060000000  0.5345130000000 1.0
C      1  0.4738910000000  0.5465240000000  0.4138040000000 1.0
C      1  0.4806400000000  0.6025560000000  0.4613140000000 1.0
C      1  0.4757460000000  0.5699790000000  0.6052730000000 1.0
C      1  0.4721670000000  0.6059580000000  0.5708560000000 1.0
C      1  0.5310850000000  0.3928140000000  0.5236140000000 1.0
C      1  0.5280290000000  0.6205910000000  0.5862560000000 1.0
C      1  0.6035120000000  0.5247460000000  0.5232950000000 1.0
C      1  0.4083750000000  0.5508180000000  0.5240610000000 1.0
C      1  0.5539810000000  0.5000910000000  0.4009620000000 1.0
C      1  0.5250230000000  0.5573390000000  0.4867650000000 1.0
C      1  0.4539490000000  0.4547880000000  0.4586940000000 1.0
C      1  0.5567130000000  0.4862940000000  0.4966430000000 1.0
C      1  0.4764850000000  0.4646120000000  0.4431870000000 1.0
C      1  0.4183900000000  0.4222490000000  0.5486350000000 1.0
C      1  0.5304600000000  0.5506720000000  0.6044980000000 1.0
C      1  0.4596840000000  0.5647870000000  0.5627180000000 1.0
C      1  0.4700490000000  0.6272970000000  0.4561900000000 1.0
C      1  0.5897920000000  0.4713580000000  0.4178210000000 1.0
C      1  0.5184240000000  0.4624120000000  0.5713410000000 1.0
C      1  0.4933580000000  0.4213200000000  0.5607010000000 1.0
C      1  0.4894950000000  0.5911650000000  0.5902100000000 1.0
C      1  0.6095950000000  0.4993870000000  0.5090420000000 1.0
C      1  0.4073090000000  0.5006000000000  0.4582240000000 1.0
C      1  0.6101020000000  0.4765580000000  0.5259910000000 1.0
C      1  0.5404800000000  0.3813390000000  0.4639530000000 1.0
C      1  0.4941810000000  0.4754480000000  0.5582310000000 1.0
C      1  0.4252620000000  0.5679270000000  0.4391220000000 1.0
C      1  0.5892330000000  0.5341600000000  0.4593420000000 1.0
C      1  0.4592660000000  0.5459520000000  0.6077850000000 1.0
C      1  0.4168200000000  0.5592450000000  0.5775410000000 1.0
C      1  0.5264590000000  0.4266280000000  0.4756380000000 1.0
C      1  0.5096870000000  0.4424070000000  0.4118300000000 1.0
C      1  0.5879100000000  0.4671240000000  0.5404900000000 1.0
C      1  0.4615320000000  0.4722840000000  0.3757150000000 1.0
C      1  0.5600740000000  0.3643080000000  0.4616870000000 1.0
C      1  0.5101840000000  0.5912400000000  0.4210110000000 1.0
C      1  0.5426330000000  0.5256850000000  0.3956040000000 1.0
C      1  0.4750040000000  0.4710490000000  0.6078950000000 1.0
C      1  0.4945250000000  0.5039630000000  0.5624500000000 1.0
C      1  0.4737750000000  0.5144750000000  0.4613680000000 1.0
C      1  0.4668600000000  0.4287570000000  0.5701880000000 1.0
C      1  0.5180270000000  0.5273060000000  0.5966630000000 1.0
C      1  0.5188720000000  0.4809570000000  0.5220300000000 1.0
C      1  0.5645390000000  0.5701630000000  0.5779230000000 1.0
C      1  0.4572120000000  0.5299070000000  0.5131760000000 1.0
C      1  0.5712010000000  0.4935130000000  0.4236590000000 1.0
C      1  0.4555750000000  0.5182670000000  0.5382160000000 1.0
C      1  0.4813230000000  0.5593850000000  0.4383540000000 1.0
C      1  0.5442630000000  0.5373050000000  0.4799970000000 1.0
C      1  0.4360800000000  0.4928810000000  0.5007250000000 1.0
C      1  0.4922210000000  0.5394800000000  0.4574320000000 1.0
C      1  0.4994600000000  0.4477410000000  0.4381360000000 1.0
C      1  0.4864480000000  0.4973050000000  0.4844170000000 1.0
END
