TITL C-612602-9376-5 2.66017367268761 125000 -680.250613698576 0 0 113 (C1) n - 1
REM
REM in /home/nfs/bkarasulu/CARBON/AIRSS/Generating-Clusters/TERSOFF/Only-C1/FIRE-HFTN
REM
REM
REM
REM
REM
REM ./C.cell (11c1c37f851c82e70ff6c80c92926a4b)
REM AIRSS Version 0.9.1 bugfix July 2018 build 013d7b7c2542+ Fri, 06 Jul 2018 19:26:36 +0100
REM compiler GCC version 9.2.1 20190827 (Red Hat 9.2.1-1)
REM options -cpp -mtune=generic -march=x86-64 -g -O0 -fpre-include=/usr/include/finclude/math-vector-fortran.h
REM seed -118637609 922945905 -851840720 784153069 1656940929 1575825981 1141528610 1224570877 -1010043598 -1186562463 1488653883 1947544460 -1215109282 -1095215140 -1660913392 47516365 -646713200 -901236971 -966594951 1957159960 175094566 -2077388711 -1214717126 -314794883 -1225353566 -1047518690 -442540890 -139563464 919743233 1964670568 801520305 -872797603 -1872022364
REM
CELL 1.54180   50.00000   50.00000   50.00000   90.00000   90.00000   90.00000
LATT -1
SFAC C  
C      1  0.5069860000000  0.5365670000000  0.5011990000000 1.0
C      1  0.4521310000000  0.5721740000000  0.5918510000000 1.0
C      1  0.5718610000000  0.5054960000000  0.5118020000000 1.0
C      1  0.5450990000000  0.4941920000000  0.5204970000000 1.0
C      1  0.5692870000000  0.5468940000000  0.5484730000000 1.0
C      1  0.4282610000000  0.5124540000000  0.4599940000000 1.0
C      1  0.5323540000000  0.5599820000000  0.5853930000000 1.0
C      1  0.5394760000000  0.5152360000000  0.5655460000000 1.0
C      1  0.4888800000000  0.5123370000000  0.3912760000000 1.0
C      1  0.4875340000000  0.5512710000000  0.4867080000000 1.0
C      1  0.5171840000000  0.5251060000000  0.4522590000000 1.0
C      1  0.4646830000000  0.4365510000000  0.5910890000000 1.0
C      1  0.5493360000000  0.5734190000000  0.4218950000000 1.0
C      1  0.5730340000000  0.4869630000000  0.4601240000000 1.0
C      1  0.4670620000000  0.5535940000000  0.6069590000000 1.0
C      1  0.5702460000000  0.5060550000000  0.4811580000000 1.0
C      1  0.5012500000000  0.5458680000000  0.5464120000000 1.0
C      1  0.5011790000000  0.6467340000000  0.5606050000000 1.0
C      1  0.5443850000000  0.4136860000000  0.4375910000000 1.0
C      1  0.5996490000000  0.4281380000000  0.4783280000000 1.0
C      1  0.5087650000000  0.4909700000000  0.3954420000000 1.0
C      1  0.4834510000000  0.4478770000000  0.6061190000000 1.0
C      1  0.4953360000000  0.5992970000000  0.5795630000000 1.0
C      1  0.4226180000000  0.4970270000000  0.4834210000000 1.0
C      1  0.4422520000000  0.4529210000000  0.4258110000000 1.0
C      1  0.4519150000000  0.4039730000000  0.4792540000000 1.0
C      1  0.5892350000000  0.4012640000000  0.5394560000000 1.0
C      1  0.5308040000000  0.5101930000000  0.5387050000000 1.0
C      1  0.6758400000000  0.4389800000000  0.5461860000000 1.0
C      1  0.5053400000000  0.4625640000000  0.6094260000000 1.0
C      1  0.4399010000000  0.5622160000000  0.5465360000000 1.0
C      1  0.4848600000000  0.5338450000000  0.5666740000000 1.0
C      1  0.5641030000000  0.4030430000000  0.4520020000000 1.0
C      1  0.5073070000000  0.4776970000000  0.4208150000000 1.0
C      1  0.4572790000000  0.4480210000000  0.4488510000000 1.0
C      1  0.4731590000000  0.6164710000000  0.5061450000000 1.0
C      1  0.4002910000000  0.4809760000000  0.4876430000000 1.0
C      1  0.4963720000000  0.6518880000000  0.5347810000000 1.0
C      1  0.4300610000000  0.4583420000000  0.4034250000000 1.0
C      1  0.6156940000000  0.4762720000000  0.4390870000000 1.0
C      1  0.4939960000000  0.5771750000000  0.4764400000000 1.0
C      1  0.3928220000000  0.4385930000000  0.5151450000000 1.0
C      1  0.4486520000000  0.5370340000000  0.5355240000000 1.0
C      1  0.6139680000000  0.3946220000000  0.5443310000000 1.0
C      1  0.3937630000000  0.5166360000000  0.4183750000000 1.0
C      1  0.4566590000000  0.5863990000000  0.5471570000000 1.0
C      1  0.5015010000000  0.5353480000000  0.4051530000000 1.0
C      1  0.6960290000000  0.4286810000000  0.5590670000000 1.0
C      1  0.5291460000000  0.4777500000000  0.5043040000000 1.0
C      1  0.4105480000000  0.4214690000000  0.5252390000000 1.0
C      1  0.4735770000000  0.4682880000000  0.4595880000000 1.0
C      1  0.5115610000000  0.4992160000000  0.4638420000000 1.0
C      1  0.5498470000000  0.5423580000000  0.5691480000000 1.0
C      1  0.4580150000000  0.6044970000000  0.5263370000000 1.0
C      1  0.4682660000000  0.5900240000000  0.5743320000000 1.0
C      1  0.3315270000000  0.5145630000000  0.3331260000000 1.0
C      1  0.4310880000000  0.5616120000000  0.5746390000000 1.0
C      1  0.5979990000000  0.4729350000000  0.4596650000000 1.0
C      1  0.6039430000000  0.4556000000000  0.4816050000000 1.0
C      1  0.4610280000000  0.4768510000000  0.5069730000000 1.0
C      1  0.5299480000000  0.5341090000000  0.3964390000000 1.0
C      1  0.5151390000000  0.5456210000000  0.6032580000000 1.0
C      1  0.5523240000000  0.4784440000000  0.4427820000000 1.0
C      1  0.4542380000000  0.5247710000000  0.4596680000000 1.0
C      1  0.5247070000000  0.4789640000000  0.6016100000000 1.0
C      1  0.6337570000000  0.4582460000000  0.5204130000000 1.0
C      1  0.5002060000000  0.6269970000000  0.5786840000000 1.0
C      1  0.5123070000000  0.5285190000000  0.5273960000000 1.0
C      1  0.3468330000000  0.5151930000000  0.3542200000000 1.0
C      1  0.4560150000000  0.4229550000000  0.4611850000000 1.0
C      1  0.5850430000000  0.4087160000000  0.4674670000000 1.0
C      1  0.5221060000000  0.5855740000000  0.5243250000000 1.0
C      1  0.6551220000000  0.4491640000000  0.5331640000000 1.0
C      1  0.4857220000000  0.4182150000000  0.5320250000000 1.0
C      1  0.5325870000000  0.4361390000000  0.4295390000000 1.0
C      1  0.4585800000000  0.4295460000000  0.5377530000000 1.0
C      1  0.5370440000000  0.5826300000000  0.4436680000000 1.0
C      1  0.3623960000000  0.5158320000000  0.3756670000000 1.0
C      1  0.4799990000000  0.6000470000000  0.4846480000000 1.0
C      1  0.4477660000000  0.3414600000000  0.5164380000000 1.0
C      1  0.4372760000000  0.4129640000000  0.5242040000000 1.0
C      1  0.4463520000000  0.3667640000000  0.5103700000000 1.0
C      1  0.4101550000000  0.5155670000000  0.4391500000000 1.0
C      1  0.4738520000000  0.5162270000000  0.4405820000000 1.0
C      1  0.5474150000000  0.5546670000000  0.4029630000000 1.0
C      1  0.5941840000000  0.4864960000000  0.5176900000000 1.0
C      1  0.5172780000000  0.5815080000000  0.4613810000000 1.0
C      1  0.4810900000000  0.4725200000000  0.4872570000000 1.0
C      1  0.4966410000000  0.5340080000000  0.4331830000000 1.0
C      1  0.4506940000000  0.5264630000000  0.5088450000000 1.0
C      1  0.5335350000000  0.5060240000000  0.3898920000000 1.0
C      1  0.5309890000000  0.4640650000000  0.4304370000000 1.0
C      1  0.4886900000000  0.4885660000000  0.4429550000000 1.0
C      1  0.6108630000000  0.4666370000000  0.5069290000000 1.0
C      1  0.5638290000000  0.4066300000000  0.5341320000000 1.0
C      1  0.4509320000000  0.4984160000000  0.5666230000000 1.0
C      1  0.5761090000000  0.5322200000000  0.5263490000000 1.0
C      1  0.3891840000000  0.4602990000000  0.5001660000000 1.0
C      1  0.5378690000000  0.4100460000000  0.5300610000000 1.0
C      1  0.4574670000000  0.4573920000000  0.5266600000000 1.0
C      1  0.5078620000000  0.4831850000000  0.4872220000000 1.0
C      1  0.5370370000000  0.4964170000000  0.5858700000000 1.0
C      1  0.4547240000000  0.4302260000000  0.5672600000000 1.0
C      1  0.4452510000000  0.3939650000000  0.5045390000000 1.0
C      1  0.5169840000000  0.5814480000000  0.5721740000000 1.0
C      1  0.5123700000000  0.5719280000000  0.5457290000000 1.0
C      1  0.4860730000000  0.6405000000000  0.5128110000000 1.0
C      1  0.4886190000000  0.5397370000000  0.5948390000000 1.0
C      1  0.5115490000000  0.4130440000000  0.5293400000000 1.0
C      1  0.3779840000000  0.5164170000000  0.3970880000000 1.0
C      1  0.4623440000000  0.5380730000000  0.4846120000000 1.0
C      1  0.4430170000000  0.4989840000000  0.5036030000000 1.0
C      1  0.4615500000000  0.5212530000000  0.5562390000000 1.0
END
