TITL C-612606-7351-1054 0.0212368025611187 125000 -181.805803954333 0 0 31 (C1) n - 1
REM
REM in /home/nfs/bkarasulu/CARBON/AIRSS/Generating-Clusters/TERSOFF/Only-C1/FIRE-HFTN
REM
REM
REM
REM
REM
REM ./C.cell (11c1c37f851c82e70ff6c80c92926a4b)
REM AIRSS Version 0.9.1 bugfix July 2018 build 013d7b7c2542+ Fri, 06 Jul 2018 19:26:36 +0100
REM compiler GCC version 9.2.1 20190827 (Red Hat 9.2.1-1)
REM options -cpp -mtune=generic -march=x86-64 -g -O0 -fpre-include=/usr/include/finclude/math-vector-fortran.h
REM seed 75631866 1855691181 1803148610 2072309839 -1251232557 2016947077 -756344123 -1802042461 -1493765940 -1272127384 1458045440 1471593087 463456357 839535047 -451709658 -181228509 1109877486 1024817724 942171809 26385141 -1655943718 -508445385 -1948461845 1929182175 1867551021 -417142079 -1772268131 -1919915727 1309379471 -239299139 1828900211 -21598693 1055289416
REM
CELL 1.54180   50.00000   50.00000   50.00000   90.00000   90.00000   90.00000
LATT -1
SFAC C  
C      1  0.4660810000000  0.4525920000000  0.5491820000000 1.0
C      1  0.4887160000000  0.4351810000000  0.5542660000000 1.0
C      1  0.5017820000000  0.4681680000000  0.4291160000000 1.0
C      1  0.5217350000000  0.4963620000000  0.5346840000000 1.0
C      1  0.5076710000000  0.5129570000000  0.5168700000000 1.0
C      1  0.4369800000000  0.4565610000000  0.5075640000000 1.0
C      1  0.4975300000000  0.5102800000000  0.4526980000000 1.0
C      1  0.5629190000000  0.4298170000000  0.5635520000000 1.0
C      1  0.4811070000000  0.5078690000000  0.4758600000000 1.0
C      1  0.4431900000000  0.4721700000000  0.4868660000000 1.0
C      1  0.5132350000000  0.4882440000000  0.4437590000000 1.0
C      1  0.4868170000000  0.5216150000000  0.5002860000000 1.0
C      1  0.5138040000000  0.4496970000000  0.5549530000000 1.0
C      1  0.4690600000000  0.5416480000000  0.5101710000000 1.0
C      1  0.4891480000000  0.5967400000000  0.4656970000000 1.0
C      1  0.4962450000000  0.5848380000000  0.4428580000000 1.0
C      1  0.5071500000000  0.4777990000000  0.5499210000000 1.0
C      1  0.4592700000000  0.4902030000000  0.4757150000000 1.0
C      1  0.5388550000000  0.4390580000000  0.5597260000000 1.0
C      1  0.4447830000000  0.4485530000000  0.5318300000000 1.0
C      1  0.4781920000000  0.4789470000000  0.5516810000000 1.0
C      1  0.5496340000000  0.4954160000000  0.5327100000000 1.0
C      1  0.4469230000000  0.5343700000000  0.5245550000000 1.0
C      1  0.4743940000000  0.5686770000000  0.5052470000000 1.0
C      1  0.4991840000000  0.5601830000000  0.4331500000000 1.0
C      1  0.5739980000000  0.4899960000000  0.4889420000000 1.0
C      1  0.5623720000000  0.4881140000000  0.4650720000000 1.0
C      1  0.5694530000000  0.4928110000000  0.5150590000000 1.0
C      1  0.5405220000000  0.4875730000000  0.4499850000000 1.0
C      1  0.4808740000000  0.5894810000000  0.4900030000000 1.0
C      1  0.4983760000000  0.5340800000000  0.4380210000000 1.0
END
