TITL C-612602-9376-575 0.000329468008769461 125000 -561.645482915129 0 0 92 (C1) n - 1
REM
REM in /home/nfs/bkarasulu/CARBON/AIRSS/Generating-Clusters/TERSOFF/Only-C1/FIRE-HFTN
REM
REM
REM
REM
REM
REM ./C.cell (11c1c37f851c82e70ff6c80c92926a4b)
REM AIRSS Version 0.9.1 bugfix July 2018 build 013d7b7c2542+ Fri, 06 Jul 2018 19:26:36 +0100
REM compiler GCC version 9.2.1 20190827 (Red Hat 9.2.1-1)
REM options -cpp -mtune=generic -march=x86-64 -g -O0 -fpre-include=/usr/include/finclude/math-vector-fortran.h
REM seed -1637380787 -2012389045 -613452493 964959490 -260951952 -209996123 1974590216 1468528683 -900215041 -1584828955 -1804633263 -1790336607 1324051830 -986977789 1430249151 -914879505 -2101588966 -1370828375 -1127810280 -391707128 1945456479 106935868 875637333 163919664 -227404007 -187128478 -262384967 1956077435 -269151251 -290985259 391480704 964257593 483762188
REM
CELL 1.54180   50.00000   50.00000   50.00000   90.00000   90.00000   90.00000
LATT -1
SFAC C  
C      1  0.5772830000000  0.4777130000000  0.4942510000000 1.0
C      1  0.5126940000000  0.4455400000000  0.5854780000000 1.0
C      1  0.5536290000000  0.4730420000000  0.5103730000000 1.0
C      1  0.4824950000000  0.4952480000000  0.4168280000000 1.0
C      1  0.4455090000000  0.4316950000000  0.5154780000000 1.0
C      1  0.4402070000000  0.4420920000000  0.4039900000000 1.0
C      1  0.4729440000000  0.5899330000000  0.4799770000000 1.0
C      1  0.4396150000000  0.5584640000000  0.5535820000000 1.0
C      1  0.5533300000000  0.4945470000000  0.4529050000000 1.0
C      1  0.5027920000000  0.4753680000000  0.5173670000000 1.0
C      1  0.4226640000000  0.4216900000000  0.4029600000000 1.0
C      1  0.5632510000000  0.4300030000000  0.4584660000000 1.0
C      1  0.5392820000000  0.4448750000000  0.4531230000000 1.0
C      1  0.4472420000000  0.4876800000000  0.4938000000000 1.0
C      1  0.4167630000000  0.5178080000000  0.5637750000000 1.0
C      1  0.4891840000000  0.4545030000000  0.5961290000000 1.0
C      1  0.5961420000000  0.5059890000000  0.5284200000000 1.0
C      1  0.5490250000000  0.5990060000000  0.5016710000000 1.0
C      1  0.5074430000000  0.4796840000000  0.4526020000000 1.0
C      1  0.4275120000000  0.5543660000000  0.4809680000000 1.0
C      1  0.3880940000000  0.5110010000000  0.5220170000000 1.0
C      1  0.5063540000000  0.5215050000000  0.5064160000000 1.0
C      1  0.5314260000000  0.4146140000000  0.4883330000000 1.0
C      1  0.5279490000000  0.4175020000000  0.5163820000000 1.0
C      1  0.5512690000000  0.5308930000000  0.5276990000000 1.0
C      1  0.5421680000000  0.4765430000000  0.5603130000000 1.0
C      1  0.4891730000000  0.4997450000000  0.5124160000000 1.0
C      1  0.4446070000000  0.4213820000000  0.4619680000000 1.0
C      1  0.5259190000000  0.5793900000000  0.5404840000000 1.0
C      1  0.4640230000000  0.4953320000000  0.5845040000000 1.0
C      1  0.4398950000000  0.5335720000000  0.5665430000000 1.0
C      1  0.4716460000000  0.4590670000000  0.5527310000000 1.0
C      1  0.4428310000000  0.5290600000000  0.4429870000000 1.0
C      1  0.4471080000000  0.5515490000000  0.4600950000000 1.0
C      1  0.5931710000000  0.5369480000000  0.4793170000000 1.0
C      1  0.4978220000000  0.4623180000000  0.5417610000000 1.0
C      1  0.4318330000000  0.5696080000000  0.5041080000000 1.0
C      1  0.5765440000000  0.4914930000000  0.4691720000000 1.0
C      1  0.5267180000000  0.4693350000000  0.5034470000000 1.0
C      1  0.5312260000000  0.4292870000000  0.5406010000000 1.0
C      1  0.4156530000000  0.4053980000000  0.4232800000000 1.0
C      1  0.4529790000000  0.4446820000000  0.5376280000000 1.0
C      1  0.5497900000000  0.5922150000000  0.4752330000000 1.0
C      1  0.5559860000000  0.4841770000000  0.5367830000000 1.0
C      1  0.5227200000000  0.5268290000000  0.5288170000000 1.0
C      1  0.4625930000000  0.6148810000000  0.4749520000000 1.0
C      1  0.5937300000000  0.3737360000000  0.4975790000000 1.0
C      1  0.5247850000000  0.5676500000000  0.5671700000000 1.0
C      1  0.5952520000000  0.5128470000000  0.4675190000000 1.0
C      1  0.4610380000000  0.4726940000000  0.4763000000000 1.0
C      1  0.4252480000000  0.4059610000000  0.4484200000000 1.0
C      1  0.5471480000000  0.5233040000000  0.5851560000000 1.0
C      1  0.5604640000000  0.5542320000000  0.5146020000000 1.0
C      1  0.3906940000000  0.5213840000000  0.4975860000000 1.0
C      1  0.4574070000000  0.4833250000000  0.4234380000000 1.0
C      1  0.4979420000000  0.5243780000000  0.4554650000000 1.0
C      1  0.5174340000000  0.4281330000000  0.4653340000000 1.0
C      1  0.3978920000000  0.5096400000000  0.5467820000000 1.0
C      1  0.5688960000000  0.5099670000000  0.5357170000000 1.0
C      1  0.5181120000000  0.5618090000000  0.4372680000000 1.0
C      1  0.5043370000000  0.5313320000000  0.4805920000000 1.0
C      1  0.5484610000000  0.5794040000000  0.5225460000000 1.0
C      1  0.4920100000000  0.4273110000000  0.4524970000000 1.0
C      1  0.4889550000000  0.5351220000000  0.5699070000000 1.0
C      1  0.6001660000000  0.4856350000000  0.5103230000000 1.0
C      1  0.4981570000000  0.5611880000000  0.5766340000000 1.0
C      1  0.4992200000000  0.5024640000000  0.4381740000000 1.0
C      1  0.5419730000000  0.5500280000000  0.4477230000000 1.0
C      1  0.5559090000000  0.5655230000000  0.4675110000000 1.0
C      1  0.5770390000000  0.3914440000000  0.4882530000000 1.0
C      1  0.4401900000000  0.5036260000000  0.4338470000000 1.0
C      1  0.5591570000000  0.4103680000000  0.4790580000000 1.0
C      1  0.4865780000000  0.4697710000000  0.4685280000000 1.0
C      1  0.5714000000000  0.5522950000000  0.4879050000000 1.0
C      1  0.5077510000000  0.5228880000000  0.5526480000000 1.0
C      1  0.4703850000000  0.4683840000000  0.5798440000000 1.0
C      1  0.5477980000000  0.5218450000000  0.4445690000000 1.0
C      1  0.4441010000000  0.4237180000000  0.4900240000000 1.0
C      1  0.4050210000000  0.5373990000000  0.4817590000000 1.0
C      1  0.4866350000000  0.5854350000000  0.5043350000000 1.0
C      1  0.5225120000000  0.4530010000000  0.5581060000000 1.0
C      1  0.5441810000000  0.5495900000000  0.5784940000000 1.0
C      1  0.5346560000000  0.4726850000000  0.4510300000000 1.0
C      1  0.4555100000000  0.4541400000000  0.4247950000000 1.0
C      1  0.4358110000000  0.5709470000000  0.5303830000000 1.0
C      1  0.4649230000000  0.4347360000000  0.4457360000000 1.0
C      1  0.4643220000000  0.5221750000000  0.5756970000000 1.0
C      1  0.5014580000000  0.5848460000000  0.5266770000000 1.0
C      1  0.4921110000000  0.5679310000000  0.4415110000000 1.0
C      1  0.5434250000000  0.4966610000000  0.5808440000000 1.0
C      1  0.4701210000000  0.5695750000000  0.4596270000000 1.0
C      1  0.4611830000000  0.5019020000000  0.5119560000000 1.0
END
