TITL C-612605-9286-939 0.211060001313894 125000 -935.831953961088 0 0 153 (C1) n - 1
REM
REM in /home/nfs/bkarasulu/CARBON/AIRSS/Generating-Clusters/TERSOFF/Only-C1/FIRE-HFTN
REM
REM
REM
REM
REM
REM ./C.cell (11c1c37f851c82e70ff6c80c92926a4b)
REM AIRSS Version 0.9.1 bugfix July 2018 build 013d7b7c2542+ Fri, 06 Jul 2018 19:26:36 +0100
REM compiler GCC version 9.2.1 20190827 (Red Hat 9.2.1-1)
REM options -cpp -mtune=generic -march=x86-64 -g -O0 -fpre-include=/usr/include/finclude/math-vector-fortran.h
REM seed 1936781076 -1889634991 -618572363 -960569461 551315492 239048939 -527279841 -1075380081 408634529 71671430 -412746515 46738684 928518220 -1191599125 -1428146949 -407816204 -1773401671 -1918587222 -1505050885 1773745275 179226313 64701456 -694413540 679234724 468070818 -10928769 588742035 -1815744788 -250110618 1870515889 357797312 -1118748076 -1547072508
REM
CELL 1.54180   50.00000   50.00000   50.00000   90.00000   90.00000   90.00000
LATT -1
SFAC C  
C      1  0.4368410000000  0.5492990000000  0.5058430000000 1.0
C      1  0.5738300000000  0.4879710000000  0.4801990000000 1.0
C      1  0.4695090000000  0.4108270000000  0.5858860000000 1.0
C      1  0.6070370000000  0.5707680000000  0.4569680000000 1.0
C      1  0.5762770000000  0.4603680000000  0.4207540000000 1.0
C      1  0.5344150000000  0.4998520000000  0.5326190000000 1.0
C      1  0.5985320000000  0.5561290000000  0.5051720000000 1.0
C      1  0.4522540000000  0.5699270000000  0.4272730000000 1.0
C      1  0.4563280000000  0.4353460000000  0.3476730000000 1.0
C      1  0.5321720000000  0.4994330000000  0.5614490000000 1.0
C      1  0.5744680000000  0.4246100000000  0.2767640000000 1.0
C      1  0.5059700000000  0.3843940000000  0.4512370000000 1.0
C      1  0.4297820000000  0.5919790000000  0.4624460000000 1.0
C      1  0.4783570000000  0.5724620000000  0.5047290000000 1.0
C      1  0.4656810000000  0.3969630000000  0.5114550000000 1.0
C      1  0.5743680000000  0.5167310000000  0.4828960000000 1.0
C      1  0.5758850000000  0.3919500000000  0.5371930000000 1.0
C      1  0.4402180000000  0.5221280000000  0.5019140000000 1.0
C      1  0.3788450000000  0.5630130000000  0.5254840000000 1.0
C      1  0.5233310000000  0.5434520000000  0.3997080000000 1.0
C      1  0.4725280000000  0.4450530000000  0.3662550000000 1.0
C      1  0.5869750000000  0.4865780000000  0.4230710000000 1.0
C      1  0.4741210000000  0.5538610000000  0.4347260000000 1.0
C      1  0.5737100000000  0.5156260000000  0.5474900000000 1.0
C      1  0.4922920000000  0.4615900000000  0.5526560000000 1.0
C      1  0.4837180000000  0.5778730000000  0.5910720000000 1.0
C      1  0.5640430000000  0.5789560000000  0.4374380000000 1.0
C      1  0.5264030000000  0.4337070000000  0.4947970000000 1.0
C      1  0.5665880000000  0.5160730000000  0.3917830000000 1.0
C      1  0.5017580000000  0.5240700000000  0.6189830000000 1.0
C      1  0.4112140000000  0.4831910000000  0.5310160000000 1.0
C      1  0.4833510000000  0.3965040000000  0.5680700000000 1.0
C      1  0.5604940000000  0.4265810000000  0.4595250000000 1.0
C      1  0.3673630000000  0.5038370000000  0.4836120000000 1.0
C      1  0.4133660000000  0.5230290000000  0.5643760000000 1.0
C      1  0.3516420000000  0.5178140000000  0.5511770000000 1.0
C      1  0.4404370000000  0.4257780000000  0.3293550000000 1.0
C      1  0.4575530000000  0.5047290000000  0.5176810000000 1.0
C      1  0.4505660000000  0.6008830000000  0.4770510000000 1.0
C      1  0.5673540000000  0.4307180000000  0.3010900000000 1.0
C      1  0.5403900000000  0.5891300000000  0.4453850000000 1.0
C      1  0.3767090000000  0.5389350000000  0.5117270000000 1.0
C      1  0.4356320000000  0.5670090000000  0.5635170000000 1.0
C      1  0.4584190000000  0.4571340000000  0.6085990000000 1.0
C      1  0.5639100000000  0.4536630000000  0.3964190000000 1.0
C      1  0.4293530000000  0.5706970000000  0.4439560000000 1.0
C      1  0.5838230000000  0.5131380000000  0.4138040000000 1.0
C      1  0.4868310000000  0.5063550000000  0.4379190000000 1.0
C      1  0.3733190000000  0.5137700000000  0.5307500000000 1.0
C      1  0.4388810000000  0.5232320000000  0.4539750000000 1.0
C      1  0.4345080000000  0.4797810000000  0.4881810000000 1.0
C      1  0.5258130000000  0.3820650000000  0.5480470000000 1.0
C      1  0.5188870000000  0.5794870000000  0.5515230000000 1.0
C      1  0.5509210000000  0.5228730000000  0.5292720000000 1.0
C      1  0.4899170000000  0.4550410000000  0.3856810000000 1.0
C      1  0.5296530000000  0.5303760000000  0.6161700000000 1.0
C      1  0.5882890000000  0.5710010000000  0.5271540000000 1.0
C      1  0.4856590000000  0.4888070000000  0.5560610000000 1.0
C      1  0.5528300000000  0.4431330000000  0.3505190000000 1.0
C      1  0.5736390000000  0.4417310000000  0.4417630000000 1.0
C      1  0.5942820000000  0.4076910000000  0.5262950000000 1.0
C      1  0.4000390000000  0.5061550000000  0.5439270000000 1.0
C      1  0.6060860000000  0.4507550000000  0.4993620000000 1.0
C      1  0.4316410000000  0.5149540000000  0.5853240000000 1.0
C      1  0.4115880000000  0.5518290000000  0.5615860000000 1.0
C      1  0.5061740000000  0.5050450000000  0.5693720000000 1.0
C      1  0.5123900000000  0.5861670000000  0.4507480000000 1.0
C      1  0.4424220000000  0.4028710000000  0.4704740000000 1.0
C      1  0.4610970000000  0.4320730000000  0.5997510000000 1.0
C      1  0.4991870000000  0.6020000000000  0.4703420000000 1.0
C      1  0.4570400000000  0.5578120000000  0.5472990000000 1.0
C      1  0.5333910000000  0.4762780000000  0.5186660000000 1.0
C      1  0.5384520000000  0.5556320000000  0.6068630000000 1.0
C      1  0.4829520000000  0.4810380000000  0.4825830000000 1.0
C      1  0.5488180000000  0.4747940000000  0.4745830000000 1.0
C      1  0.4541490000000  0.5108020000000  0.6031840000000 1.0
C      1  0.4797280000000  0.4672940000000  0.4086450000000 1.0
C      1  0.6108160000000  0.5681070000000  0.4832250000000 1.0
C      1  0.5491990000000  0.5721130000000  0.5886280000000 1.0
C      1  0.5128550000000  0.5067450000000  0.4544660000000 1.0
C      1  0.5279170000000  0.4415170000000  0.5874610000000 1.0
C      1  0.4965160000000  0.5319250000000  0.5685840000000 1.0
C      1  0.5515070000000  0.4479210000000  0.5981300000000 1.0
C      1  0.5601210000000  0.4369290000000  0.3258220000000 1.0
C      1  0.4815280000000  0.3925280000000  0.4441040000000 1.0
C      1  0.4680450000000  0.5078790000000  0.5430080000000 1.0
C      1  0.4190860000000  0.5448870000000  0.4508970000000 1.0
C      1  0.5087000000000  0.6277450000000  0.4758260000000 1.0
C      1  0.5191700000000  0.5620710000000  0.5278650000000 1.0
C      1  0.4932950000000  0.4493170000000  0.5275210000000 1.0
C      1  0.4033350000000  0.3975680000000  0.5287700000000 1.0
C      1  0.4614340000000  0.4814690000000  0.5005860000000 1.0
C      1  0.6200370000000  0.5029090000000  0.5364360000000 1.0
C      1  0.5915670000000  0.5281230000000  0.5042040000000 1.0
C      1  0.5447750000000  0.4498170000000  0.3764110000000 1.0
C      1  0.4330900000000  0.5074780000000  0.4774750000000 1.0
C      1  0.5876410000000  0.5631490000000  0.4380850000000 1.0
C      1  0.5003670000000  0.5287990000000  0.4971040000000 1.0
C      1  0.5039540000000  0.4277490000000  0.5124220000000 1.0
C      1  0.4121320000000  0.4403670000000  0.5073900000000 1.0
C      1  0.4719680000000  0.4379950000000  0.4574430000000 1.0
C      1  0.3899730000000  0.5652870000000  0.5497990000000 1.0
C      1  0.4635540000000  0.4115010000000  0.4542020000000 1.0
C      1  0.5907180000000  0.5375160000000  0.4263200000000 1.0
C      1  0.4187020000000  0.4134140000000  0.5117260000000 1.0
C      1  0.5262790000000  0.3934890000000  0.4659310000000 1.0
C      1  0.5317050000000  0.5293380000000  0.4488990000000 1.0
C      1  0.4351890000000  0.5919650000000  0.5759350000000 1.0
C      1  0.5211100000000  0.5457080000000  0.4280300000000 1.0
C      1  0.5689730000000  0.5032780000000  0.6705150000000 1.0
C      1  0.5451890000000  0.5501120000000  0.5269140000000 1.0
C      1  0.4745820000000  0.5305510000000  0.6112510000000 1.0
C      1  0.4788530000000  0.4648970000000  0.4584970000000 1.0
C      1  0.5065920000000  0.4486180000000  0.5732180000000 1.0
C      1  0.5507960000000  0.5114660000000  0.6202980000000 1.0
C      1  0.4916060000000  0.4030600000000  0.5204600000000 1.0
C      1  0.5001270000000  0.5048050000000  0.4819970000000 1.0
C      1  0.5602960000000  0.5073550000000  0.6462820000000 1.0
C      1  0.4794680000000  0.4792030000000  0.4336990000000 1.0
C      1  0.3646860000000  0.4935940000000  0.5091520000000 1.0
C      1  0.3897160000000  0.3826570000000  0.5452430000000 1.0
C      1  0.4723660000000  0.5349070000000  0.5535470000000 1.0
C      1  0.5427040000000  0.5270850000000  0.3881950000000 1.0
C      1  0.5668680000000  0.4694400000000  0.6024440000000 1.0
C      1  0.5521650000000  0.3827780000000  0.5448300000000 1.0
C      1  0.5962390000000  0.5144590000000  0.5298230000000 1.0
C      1  0.4316880000000  0.6158560000000  0.5857580000000 1.0
C      1  0.4718550000000  0.5583110000000  0.6053830000000 1.0
C      1  0.4579560000000  0.4837380000000  0.6108360000000 1.0
C      1  0.3778370000000  0.5307520000000  0.4835780000000 1.0
C      1  0.5957360000000  0.4720290000000  0.4872430000000 1.0
C      1  0.4413670000000  0.4025950000000  0.4985560000000 1.0
C      1  0.5004000000000  0.5549400000000  0.5083080000000 1.0
C      1  0.5007330000000  0.5636040000000  0.4376120000000 1.0
C      1  0.4165500000000  0.4679870000000  0.5073210000000 1.0
C      1  0.4998760000000  0.3921400000000  0.5456420000000 1.0
C      1  0.5177840000000  0.6514920000000  0.4815430000000 1.0
C      1  0.5175780000000  0.4527370000000  0.3822290000000 1.0
C      1  0.4984130000000  0.5854350000000  0.5698400000000 1.0
C      1  0.5592240000000  0.5051110000000  0.5714950000000 1.0
C      1  0.4663800000000  0.5266610000000  0.4418940000000 1.0
C      1  0.5066510000000  0.5577300000000  0.3832770000000 1.0
C      1  0.5386160000000  0.4169760000000  0.4748410000000 1.0
C      1  0.6051090000000  0.4281100000000  0.5132150000000 1.0
C      1  0.3938080000000  0.5414100000000  0.4632090000000 1.0
C      1  0.5627490000000  0.4971150000000  0.5984550000000 1.0
C      1  0.5468470000000  0.5793100000000  0.5615010000000 1.0
C      1  0.5547920000000  0.5302790000000  0.4662660000000 1.0
C      1  0.5636790000000  0.5687170000000  0.5402490000000 1.0
C      1  0.4764620000000  0.5925990000000  0.4848020000000 1.0
C      1  0.5315560000000  0.4829200000000  0.4536900000000 1.0
C      1  0.5368870000000  0.4604460000000  0.4961440000000 1.0
C      1  0.4555620000000  0.5648110000000  0.5197260000000 1.0
END
