TITL C-612606-7351-903 0.0390921961085706 125000 -456.939219441409 0 0 75 (C1) n - 1
REM
REM in /home/nfs/bkarasulu/CARBON/AIRSS/Generating-Clusters/TERSOFF/Only-C1/FIRE-HFTN
REM
REM
REM
REM
REM
REM ./C.cell (11c1c37f851c82e70ff6c80c92926a4b)
REM AIRSS Version 0.9.1 bugfix July 2018 build 013d7b7c2542+ Fri, 06 Jul 2018 19:26:36 +0100
REM compiler GCC version 9.2.1 20190827 (Red Hat 9.2.1-1)
REM options -cpp -mtune=generic -march=x86-64 -g -O0 -fpre-include=/usr/include/finclude/math-vector-fortran.h
REM seed 1561773333 -86048030 -1336491614 -375938955 -2048440707 818576565 -1813415492 936722119 -893908270 -1627625435 2091658006 -1419053471 883644688 127890878 1593681388 1688730585 1742667725 505878670 -653282652 1832779017 -257560255 210490433 -1744154084 -652199678 2087062999 -715665979 353746699 105459010 -161064838 345978802 161905958 -834418425 -1678001741
REM
CELL 1.54180   50.00000   50.00000   50.00000   90.00000   90.00000   90.00000
LATT -1
SFAC C  
C      1  0.5532080000000  0.5711190000000  0.5371560000000 1.0
C      1  0.5088530000000  0.5870760000000  0.4532310000000 1.0
C      1  0.5451150000000  0.4652830000000  0.4162410000000 1.0
C      1  0.5617860000000  0.4782680000000  0.4604450000000 1.0
C      1  0.5598010000000  0.4961940000000  0.4843250000000 1.0
C      1  0.4854010000000  0.5464070000000  0.4454060000000 1.0
C      1  0.4828070000000  0.5303330000000  0.5771650000000 1.0
C      1  0.5324950000000  0.5938980000000  0.4974320000000 1.0
C      1  0.4146710000000  0.5128800000000  0.4806110000000 1.0
C      1  0.4232370000000  0.4540380000000  0.4417550000000 1.0
C      1  0.5307630000000  0.5973500000000  0.4689670000000 1.0
C      1  0.5169140000000  0.5186270000000  0.4288710000000 1.0
C      1  0.5095030000000  0.5627630000000  0.4377780000000 1.0
C      1  0.5246350000000  0.5104430000000  0.5858750000000 1.0
C      1  0.5405820000000  0.5731010000000  0.5624400000000 1.0
C      1  0.4863160000000  0.4960640000000  0.4609250000000 1.0
C      1  0.5283960000000  0.4316970000000  0.5018000000000 1.0
C      1  0.4831460000000  0.4980260000000  0.4895240000000 1.0
C      1  0.4229470000000  0.4880150000000  0.5658470000000 1.0
C      1  0.4637670000000  0.4619610000000  0.5713710000000 1.0
C      1  0.5580390000000  0.5209080000000  0.5422030000000 1.0
C      1  0.5225210000000  0.4061440000000  0.5430840000000 1.0
C      1  0.4666920000000  0.5636520000000  0.4584950000000 1.0
C      1  0.5738140000000  0.5057690000000  0.3973210000000 1.0
C      1  0.5281510000000  0.5451640000000  0.4251870000000 1.0
C      1  0.5351680000000  0.5389030000000  0.5053360000000 1.0
C      1  0.4819430000000  0.5871030000000  0.4666940000000 1.0
C      1  0.4235100000000  0.5371040000000  0.4738210000000 1.0
C      1  0.4722410000000  0.4485210000000  0.4562670000000 1.0
C      1  0.5323670000000  0.4897160000000  0.5683460000000 1.0
C      1  0.5522280000000  0.5483110000000  0.4118080000000 1.0
C      1  0.4091090000000  0.4429400000000  0.6090960000000 1.0
C      1  0.5635840000000  0.4818840000000  0.4031590000000 1.0
C      1  0.5100790000000  0.5344470000000  0.5824870000000 1.0
C      1  0.5256930000000  0.4950800000000  0.5172310000000 1.0
C      1  0.3938120000000  0.4599800000000  0.5949390000000 1.0
C      1  0.5526870000000  0.5916240000000  0.5171530000000 1.0
C      1  0.5132920000000  0.4388900000000  0.4786180000000 1.0
C      1  0.4851810000000  0.5401050000000  0.5124020000000 1.0
C      1  0.4454020000000  0.4506060000000  0.5066140000000 1.0
C      1  0.4564350000000  0.4468450000000  0.5940390000000 1.0
C      1  0.4088030000000  0.4711340000000  0.4565490000000 1.0
C      1  0.4147660000000  0.4848760000000  0.4804660000000 1.0
C      1  0.4923570000000  0.5183180000000  0.4445290000000 1.0
C      1  0.5772250000000  0.4525020000000  0.4962170000000 1.0
C      1  0.5536260000000  0.5444840000000  0.5270060000000 1.0
C      1  0.4844530000000  0.5920840000000  0.4945230000000 1.0
C      1  0.5178090000000  0.4587470000000  0.4571990000000 1.0
C      1  0.4355780000000  0.4383010000000  0.6085090000000 1.0
C      1  0.4836350000000  0.4355270000000  0.4797030000000 1.0
C      1  0.4510800000000  0.4875410000000  0.5678030000000 1.0
C      1  0.5801460000000  0.4564460000000  0.4675480000000 1.0
C      1  0.4648850000000  0.5117800000000  0.5703640000000 1.0
C      1  0.5702450000000  0.5320470000000  0.4005400000000 1.0
C      1  0.5564230000000  0.4350380000000  0.5037360000000 1.0
C      1  0.5097470000000  0.5529010000000  0.5083810000000 1.0
C      1  0.5131010000000  0.4244510000000  0.5250730000000 1.0
C      1  0.5406070000000  0.4689930000000  0.4441540000000 1.0
C      1  0.5319390000000  0.4456960000000  0.4024080000000 1.0
C      1  0.4913340000000  0.4697790000000  0.4512520000000 1.0
C      1  0.5344270000000  0.4637280000000  0.5761520000000 1.0
C      1  0.4482730000000  0.4447460000000  0.4429700000000 1.0
C      1  0.4003260000000  0.4784090000000  0.5764900000000 1.0
C      1  0.4794040000000  0.4497670000000  0.5515760000000 1.0
C      1  0.5010770000000  0.4853030000000  0.5078170000000 1.0
C      1  0.4273810000000  0.4693390000000  0.5003400000000 1.0
C      1  0.5392210000000  0.4987960000000  0.5424800000000 1.0
C      1  0.4706350000000  0.4381810000000  0.5050000000000 1.0
C      1  0.5751690000000  0.4803410000000  0.5045420000000 1.0
C      1  0.4411520000000  0.5553770000000  0.4656840000000 1.0
C      1  0.5237110000000  0.5586540000000  0.5776780000000 1.0
C      1  0.5388780000000  0.5113970000000  0.4963710000000 1.0
C      1  0.4710230000000  0.5204530000000  0.5011030000000 1.0
C      1  0.4872320000000  0.4363190000000  0.5282370000000 1.0
C      1  0.5080410000000  0.5813070000000  0.5061320000000 1.0
END
