TITL C-612606-7351-23 8.21010818300461 125000 -480.145393473284 0 0 80 (C1) n - 1
REM
REM in /home/nfs/bkarasulu/CARBON/AIRSS/Generating-Clusters/TERSOFF/Only-C1/FIRE-HFTN
REM
REM
REM
REM
REM
REM ./C.cell (11c1c37f851c82e70ff6c80c92926a4b)
REM AIRSS Version 0.9.1 bugfix July 2018 build 013d7b7c2542+ Fri, 06 Jul 2018 19:26:36 +0100
REM compiler GCC version 9.2.1 20190827 (Red Hat 9.2.1-1)
REM options -cpp -mtune=generic -march=x86-64 -g -O0 -fpre-include=/usr/include/finclude/math-vector-fortran.h
REM seed 1920002261 -644991171 1659565854 -1955580379 1883028640 1292735634 626023657 -1397151402 -924776149 -1777906088 -1106780284 -431172403 -334240229 -814315395 1806235272 -1743445820 426011575 1601961516 -1383147996 -1049383220 404899288 -541442756 -410923507 86360812 1022649064 -1347019936 -1612652761 1517790426 -909115431 1098198645 1820323226 -249218058 521842117
REM
CELL 1.54180   50.00000   50.00000   50.00000   90.00000   90.00000   90.00000
LATT -1
SFAC C  
C      1  0.5757060000000  0.6106440000000  0.4778470000000 1.0
C      1  0.4651880000000  0.5240710000000  0.4014900000000 1.0
C      1  0.5604060000000  0.5945230000000  0.4618510000000 1.0
C      1  0.5642760000000  0.5983320000000  0.3647260000000 1.0
C      1  0.4171390000000  0.4242340000000  0.6226010000000 1.0
C      1  0.5803780000000  0.5102380000000  0.4755770000000 1.0
C      1  0.4797080000000  0.4593690000000  0.5675620000000 1.0
C      1  0.5626710000000  0.4500230000000  0.5198760000000 1.0
C      1  0.4409880000000  0.4059230000000  0.5364330000000 1.0
C      1  0.5003310000000  0.5329900000000  0.5020720000000 1.0
C      1  0.4117940000000  0.5059960000000  0.5298870000000 1.0
C      1  0.5489870000000  0.4735200000000  0.4591750000000 1.0
C      1  0.4986360000000  0.5363230000000  0.4329020000000 1.0
C      1  0.5729400000000  0.5781650000000  0.4421430000000 1.0
C      1  0.4780180000000  0.5489750000000  0.4486020000000 1.0
C      1  0.5710210000000  0.5852780000000  0.4151920000000 1.0
C      1  0.5783010000000  0.5695420000000  0.5302630000000 1.0
C      1  0.4321050000000  0.5387270000000  0.4656430000000 1.0
C      1  0.5324810000000  0.5944530000000  0.4645160000000 1.0
C      1  0.4050270000000  0.5983430000000  0.5145410000000 1.0
C      1  0.5519670000000  0.5623690000000  0.5234940000000 1.0
C      1  0.5308610000000  0.5797400000000  0.5290930000000 1.0
C      1  0.4248510000000  0.3979550000000  0.5169980000000 1.0
C      1  0.5910520000000  0.5307590000000  0.4596480000000 1.0
C      1  0.5037670000000  0.4711910000000  0.5604670000000 1.0
C      1  0.5152210000000  0.4915460000000  0.4326490000000 1.0
C      1  0.5089720000000  0.4457350000000  0.4447810000000 1.0
C      1  0.5198090000000  0.4604300000000  0.5396910000000 1.0
C      1  0.4089540000000  0.4856000000000  0.5466730000000 1.0
C      1  0.6183550000000  0.5402350000000  0.5259150000000 1.0
C      1  0.5265530000000  0.5313310000000  0.4927470000000 1.0
C      1  0.6110860000000  0.5172000000000  0.5140090000000 1.0
C      1  0.4834180000000  0.4381560000000  0.4441630000000 1.0
C      1  0.3918090000000  0.3767810000000  0.4891950000000 1.0
C      1  0.4854370000000  0.5726990000000  0.4613300000000 1.0
C      1  0.4790290000000  0.5324300000000  0.5177540000000 1.0
C      1  0.5593880000000  0.3973550000000  0.5182330000000 1.0
C      1  0.4023950000000  0.4006650000000  0.6672250000000 1.0
C      1  0.5385900000000  0.5050330000000  0.5617300000000 1.0
C      1  0.4302460000000  0.6008470000000  0.5206520000000 1.0
C      1  0.4556050000000  0.4419160000000  0.4438860000000 1.0
C      1  0.5677250000000  0.5918710000000  0.3897450000000 1.0
C      1  0.4534820000000  0.5294340000000  0.5241160000000 1.0
C      1  0.4447190000000  0.4661270000000  0.4347690000000 1.0
C      1  0.5075810000000  0.5921130000000  0.5317350000000 1.0
C      1  0.4520500000000  0.5366050000000  0.4462360000000 1.0
C      1  0.5259050000000  0.4678330000000  0.4437790000000 1.0
C      1  0.5521250000000  0.4959080000000  0.5383010000000 1.0
C      1  0.4330410000000  0.4476560000000  0.5761700000000 1.0
C      1  0.5348280000000  0.3921330000000  0.5307520000000 1.0
C      1  0.5155490000000  0.4944550000000  0.5716720000000 1.0
C      1  0.5671740000000  0.4241610000000  0.5155930000000 1.0
C      1  0.5327270000000  0.5186810000000  0.4678600000000 1.0
C      1  0.5109880000000  0.3954090000000  0.5419710000000 1.0
C      1  0.6039020000000  0.5620190000000  0.5320970000000 1.0
C      1  0.4243890000000  0.4062890000000  0.4696760000000 1.0
C      1  0.4097060000000  0.4123530000000  0.6450980000000 1.0
C      1  0.4821460000000  0.5994820000000  0.5305900000000 1.0
C      1  0.4873050000000  0.4044620000000  0.5498400000000 1.0
C      1  0.4489380000000  0.5180870000000  0.4241520000000 1.0
C      1  0.5066160000000  0.5883610000000  0.4656030000000 1.0
C      1  0.5860780000000  0.5098220000000  0.5035300000000 1.0
C      1  0.4622180000000  0.4168530000000  0.5509840000000 1.0
C      1  0.4585480000000  0.4411760000000  0.5653660000000 1.0
C      1  0.5455440000000  0.4689090000000  0.5310200000000 1.0
C      1  0.5160700000000  0.5174370000000  0.4444540000000 1.0
C      1  0.4133300000000  0.3934010000000  0.4919120000000 1.0
C      1  0.4407460000000  0.4916980000000  0.4286020000000 1.0
C      1  0.4387510000000  0.4220540000000  0.4539620000000 1.0
C      1  0.5869540000000  0.5550360000000  0.4494980000000 1.0
C      1  0.4246300000000  0.4360230000000  0.6000960000000 1.0
C      1  0.4906380000000  0.5329190000000  0.4056970000000 1.0
C      1  0.4560910000000  0.6019740000000  0.5264280000000 1.0
C      1  0.5751270000000  0.3770640000000  0.5089490000000 1.0
C      1  0.5629550000000  0.5141280000000  0.5198030000000 1.0
C      1  0.5470740000000  0.5367560000000  0.5119690000000 1.0
C      1  0.4215030000000  0.5324400000000  0.4892570000000 1.0
C      1  0.5551320000000  0.4998720000000  0.4677750000000 1.0
C      1  0.4276140000000  0.5235450000000  0.5151030000000 1.0
C      1  0.4166350000000  0.4658130000000  0.5626070000000 1.0
END
