TITL C-612600-6631-231 -784.857094672084 125000 -1045.43696743024 0 0 170 (C1) n - 1
REM
REM in /home/nfs/bkarasulu/CARBON/AIRSS/Generating-Clusters/TERSOFF/Only-C1/FIRE-HFTN
REM
REM
REM
REM
REM
REM ./C.cell (11c1c37f851c82e70ff6c80c92926a4b)
REM AIRSS Version 0.9.1 bugfix July 2018 build 013d7b7c2542+ Fri, 06 Jul 2018 19:26:36 +0100
REM compiler GCC version 9.2.1 20190827 (Red Hat 9.2.1-1)
REM options -cpp -mtune=generic -march=x86-64 -g -O0 -fpre-include=/usr/include/finclude/math-vector-fortran.h
REM seed 335709504 -535966878 462167136 -198303016 641507750 -1300413398 1265041833 -642788167 1511034188 434489191 671789759 564276678 -1338246916 1902704170 176881544 1737124242 -1474598295 -1209912076 -1599741546 646210299 -561647896 1189634376 -814708064 -1480797073 -1415035543 737175158 -391052026 -995742660 483715713 368433166 454571169 1405796806 -1189029495
REM
CELL 1.54180   50.00000   50.00000   50.00000   90.00000   90.00000   90.00000
LATT -1
SFAC C  
C      1  0.5177460000000  0.4353890000000  0.4258690000000 1.0
C      1  0.4751370000000  0.4358630000000  0.5381560000000 1.0
C      1  0.4925570000000  0.4368110000000  0.4135960000000 1.0
C      1  0.5001920000000  0.5829660000000  0.5558570000000 1.0
C      1  0.5971760000000  0.5070200000000  0.5698480000000 1.0
C      1  0.4812790000000  0.5718300000000  0.4735970000000 1.0
C      1  0.5805880000000  0.5172890000000  0.4392180000000 1.0
C      1  0.4200620000000  0.5741370000000  0.4532980000000 1.0
C      1  0.5033530000000  0.5157720000000  0.6222030000000 1.0
C      1  0.5202750000000  0.4981390000000  0.5648330000000 1.0
C      1  0.5333420000000  0.4463710000000  0.4729320000000 1.0
C      1  0.5086430000000  0.4821610000000  0.5006340000000 1.0
C      1  0.5743150000000  0.4575320000000  0.5707330000000 1.0
C      1  0.4385360000000  0.4523980000000  0.5927130000000 1.0
C      1  0.4352430000000  0.5789530000000  0.4983340000000 1.0
C      1  0.4509630000000  0.4290890000000  0.5534750000000 1.0
C      1  0.5237610000000  0.5670120000000  0.5978920000000 1.0
C      1  0.4279810000000  0.5891350000000  0.5250210000000 1.0
C      1  0.4447120000000  0.5121380000000  0.4205370000000 1.0
C      1  0.5019550000000  0.5790690000000  0.4257110000000 1.0
C      1  0.5023560000000  0.5395580000000  0.5579650000000 1.0
C      1  0.5938270000000  0.5421990000000  0.4399770000000 1.0
C      1  0.5319240000000  0.5159380000000  0.6117890000000 1.0
C      1  0.5337610000000  0.4805890000000  0.3946160000000 1.0
C      1  0.3947080000000  0.5182620000000  0.5304270000000 1.0
C      1  0.4884540000000  0.4277070000000  0.5056590000000 1.0
C      1  0.4725750000000  0.4292150000000  0.4314420000000 1.0
C      1  0.4018450000000  0.4134470000000  0.4671020000000 1.0
C      1  0.5726830000000  0.5330510000000  0.5074510000000 1.0
C      1  0.5278570000000  0.4833260000000  0.5194640000000 1.0
C      1  0.5499640000000  0.6047870000000  0.4599280000000 1.0
C      1  0.5778320000000  0.4290190000000  0.5715780000000 1.0
C      1  0.5289430000000  0.5265350000000  0.4406530000000 1.0
C      1  0.6020050000000  0.4907310000000  0.5473150000000 1.0
C      1  0.4991020000000  0.3887650000000  0.4393400000000 1.0
C      1  0.5608910000000  0.4421860000000  0.4817820000000 1.0
C      1  0.5656080000000  0.5413350000000  0.5580860000000 1.0
C      1  0.4543120000000  0.5363750000000  0.5013810000000 1.0
C      1  0.4503450000000  0.5518720000000  0.5469480000000 1.0
C      1  0.5914360000000  0.5673290000000  0.4533000000000 1.0
C      1  0.4850240000000  0.5470170000000  0.5783880000000 1.0
C      1  0.5905510000000  0.4691380000000  0.4336450000000 1.0
C      1  0.4848730000000  0.5055460000000  0.5370530000000 1.0
C      1  0.5465920000000  0.5585930000000  0.4737110000000 1.0
C      1  0.4391180000000  0.5039860000000  0.5350890000000 1.0
C      1  0.5237120000000  0.5744500000000  0.5404550000000 1.0
C      1  0.4456440000000  0.5659120000000  0.5919960000000 1.0
C      1  0.5541960000000  0.5209520000000  0.4289450000000 1.0
C      1  0.6267740000000  0.5508950000000  0.4827900000000 1.0
C      1  0.5896260000000  0.4917960000000  0.4512630000000 1.0
C      1  0.5380310000000  0.4514630000000  0.6024710000000 1.0
C      1  0.5796090000000  0.4243680000000  0.5228230000000 1.0
C      1  0.5038540000000  0.6249330000000  0.4391040000000 1.0
C      1  0.4613480000000  0.5889460000000  0.4869420000000 1.0
C      1  0.5486560000000  0.3903070000000  0.4907050000000 1.0
C      1  0.5375350000000  0.4151150000000  0.4260190000000 1.0
C      1  0.5427560000000  0.5854690000000  0.3910930000000 1.0
C      1  0.4299630000000  0.5956040000000  0.5519590000000 1.0
C      1  0.4738150000000  0.5477810000000  0.4096520000000 1.0
C      1  0.4346990000000  0.5900400000000  0.4370330000000 1.0
C      1  0.5134530000000  0.5260960000000  0.3824540000000 1.0
C      1  0.4955730000000  0.5305520000000  0.5318190000000 1.0
C      1  0.4655060000000  0.3882690000000  0.4819230000000 1.0
C      1  0.4396920000000  0.4455120000000  0.4617750000000 1.0
C      1  0.4507800000000  0.4907210000000  0.4035070000000 1.0
C      1  0.4278240000000  0.4804120000000  0.5503920000000 1.0
C      1  0.4367470000000  0.5030600000000  0.5919300000000 1.0
C      1  0.5586230000000  0.4170570000000  0.5020070000000 1.0
C      1  0.4105360000000  0.4862460000000  0.4633990000000 1.0
C      1  0.5091440000000  0.4045040000000  0.5566250000000 1.0
C      1  0.4137710000000  0.4584240000000  0.4555820000000 1.0
C      1  0.5004720000000  0.5452830000000  0.5084080000000 1.0
C      1  0.4728340000000  0.5732460000000  0.5462200000000 1.0
C      1  0.5719140000000  0.5189200000000  0.5777160000000 1.0
C      1  0.4840910000000  0.4768770000000  0.4873380000000 1.0
C      1  0.4612350000000  0.4797710000000  0.5023470000000 1.0
C      1  0.5544230000000  0.5324150000000  0.4865780000000 1.0
C      1  0.4699450000000  0.5514800000000  0.6023170000000 1.0
C      1  0.5938780000000  0.4852680000000  0.4798100000000 1.0
C      1  0.5032940000000  0.5702910000000  0.4527880000000 1.0
C      1  0.4429940000000  0.5325420000000  0.5272550000000 1.0
C      1  0.4636470000000  0.4939460000000  0.5251270000000 1.0
C      1  0.4598880000000  0.5970800000000  0.4261880000000 1.0
C      1  0.5125940000000  0.4084730000000  0.5848580000000 1.0
C      1  0.5849740000000  0.4532030000000  0.5206750000000 1.0
C      1  0.5339520000000  0.6269070000000  0.5025110000000 1.0
C      1  0.4904290000000  0.3891920000000  0.5393740000000 1.0
C      1  0.4378580000000  0.5911070000000  0.5785450000000 1.0
C      1  0.5079590000000  0.4807720000000  0.4484810000000 1.0
C      1  0.5292400000000  0.3769450000000  0.5073650000000 1.0
C      1  0.5212600000000  0.5045200000000  0.4573360000000 1.0
C      1  0.5548340000000  0.5003010000000  0.5970380000000 1.0
C      1  0.5443190000000  0.3856610000000  0.4630430000000 1.0
C      1  0.4218130000000  0.5231690000000  0.5764600000000 1.0
C      1  0.3895760000000  0.4585820000000  0.4965280000000 1.0
C      1  0.5244320000000  0.4259320000000  0.5428910000000 1.0
C      1  0.5301910000000  0.6188950000000  0.4442900000000 1.0
C      1  0.4365420000000  0.5470030000000  0.5719620000000 1.0
C      1  0.4128410000000  0.4564640000000  0.5404580000000 1.0
C      1  0.5856340000000  0.4677860000000  0.5458430000000 1.0
C      1  0.5190040000000  0.5669180000000  0.5134250000000 1.0
C      1  0.5280320000000  0.3926530000000  0.4409990000000 1.0
C      1  0.4194310000000  0.5188550000000  0.4305750000000 1.0
C      1  0.4530280000000  0.5090510000000  0.6146970000000 1.0
C      1  0.5106150000000  0.6388440000000  0.5077490000000 1.0
C      1  0.5289110000000  0.4771990000000  0.5469980000000 1.0
C      1  0.4752480000000  0.4738950000000  0.5703180000000 1.0
C      1  0.4909100000000  0.4958980000000  0.5632020000000 1.0
C      1  0.4654160000000  0.5292300000000  0.4298450000000 1.0
C      1  0.5137820000000  0.4645940000000  0.3821530000000 1.0
C      1  0.5024710000000  0.3826730000000  0.5138020000000 1.0
C      1  0.4754120000000  0.5266820000000  0.6179580000000 1.0
C      1  0.4106400000000  0.5141120000000  0.4565830000000 1.0
C      1  0.5812440000000  0.4139160000000  0.5491250000000 1.0
C      1  0.4463860000000  0.4290300000000  0.5812190000000 1.0
C      1  0.4848170000000  0.6339020000000  0.5029980000000 1.0
C      1  0.4193350000000  0.5613210000000  0.4793650000000 1.0
C      1  0.4788020000000  0.5431880000000  0.4848310000000 1.0
C      1  0.4892570000000  0.4556920000000  0.3928270000000 1.0
C      1  0.5784600000000  0.5371300000000  0.5329660000000 1.0
C      1  0.5652420000000  0.5784160000000  0.4575700000000 1.0
C      1  0.5171550000000  0.4517650000000  0.5527690000000 1.0
C      1  0.5700050000000  0.4544740000000  0.4211850000000 1.0
C      1  0.4236260000000  0.3986360000000  0.4588810000000 1.0
C      1  0.4903920000000  0.5378050000000  0.3890980000000 1.0
C      1  0.5266650000000  0.4596490000000  0.4405100000000 1.0
C      1  0.5243810000000  0.5263070000000  0.5691120000000 1.0
C      1  0.5248520000000  0.5515750000000  0.4542570000000 1.0
C      1  0.4094740000000  0.5323590000000  0.4804870000000 1.0
C      1  0.5568520000000  0.4704380000000  0.5912270000000 1.0
C      1  0.4889570000000  0.4525700000000  0.5563080000000 1.0
C      1  0.4029430000000  0.5128520000000  0.5032500000000 1.0
C      1  0.5639210000000  0.4261080000000  0.4213010000000 1.0
C      1  0.4774050000000  0.6192570000000  0.4337080000000 1.0
C      1  0.5472110000000  0.5637890000000  0.5542160000000 1.0
C      1  0.4865170000000  0.3997110000000  0.4964200000000 1.0
C      1  0.4740200000000  0.5284210000000  0.4574250000000 1.0
C      1  0.4520080000000  0.3934210000000  0.4577260000000 1.0
C      1  0.5457880000000  0.4701110000000  0.4188210000000 1.0
C      1  0.4663580000000  0.4720200000000  0.3924570000000 1.0
C      1  0.4755260000000  0.5754650000000  0.4156820000000 1.0
C      1  0.6126800000000  0.5011510000000  0.4955780000000 1.0
C      1  0.4376050000000  0.4198490000000  0.5127820000000 1.0
C      1  0.3886150000000  0.4555060000000  0.5251410000000 1.0
C      1  0.5329320000000  0.4261830000000  0.5162270000000 1.0
C      1  0.4648630000000  0.4498130000000  0.4497690000000 1.0
C      1  0.5233310000000  0.5834570000000  0.4083630000000 1.0
C      1  0.5804010000000  0.4623540000000  0.4926410000000 1.0
C      1  0.4282890000000  0.4325890000000  0.5370170000000 1.0
C      1  0.5363310000000  0.5775490000000  0.4946570000000 1.0
C      1  0.4835800000000  0.4703240000000  0.4597140000000 1.0
C      1  0.6152200000000  0.4970440000000  0.5234770000000 1.0
C      1  0.5309350000000  0.5395740000000  0.5943440000000 1.0
C      1  0.4682190000000  0.6155000000000  0.4933240000000 1.0
C      1  0.5424670000000  0.6045910000000  0.4883190000000 1.0
C      1  0.4725790000000  0.4015730000000  0.4389670000000 1.0
C      1  0.4365080000000  0.4677730000000  0.4997090000000 1.0
C      1  0.5085340000000  0.5851810000000  0.5837000000000 1.0
C      1  0.3947410000000  0.4412090000000  0.4720750000000 1.0
C      1  0.5384680000000  0.5094490000000  0.4802410000000 1.0
C      1  0.5148540000000  0.4371510000000  0.4955330000000 1.0
C      1  0.5322540000000  0.5074800000000  0.3865820000000 1.0
C      1  0.4574310000000  0.3944260000000  0.5282070000000 1.0
C      1  0.4093610000000  0.4832760000000  0.4939030000000 1.0
C      1  0.5240300000000  0.4282760000000  0.5998560000000 1.0
C      1  0.4390550000000  0.4399650000000  0.4908370000000 1.0
C      1  0.4442120000000  0.4774990000000  0.5772620000000 1.0
C      1  0.4003030000000  0.5194760000000  0.5572860000000 1.0
C      1  0.6256190000000  0.5242970000000  0.4859640000000 1.0
C      1  0.6127600000000  0.5710550000000  0.4715220000000 1.0
END
