TITL C-612601-4209-840 0.0790440725272255 125000 -1052.61132278049 0 0 173 (C1) n - 1
REM
REM in /home/nfs/bkarasulu/CARBON/AIRSS/Generating-Clusters/TERSOFF/Only-C1/FIRE-HFTN
REM
REM
REM
REM
REM
REM ./C.cell (11c1c37f851c82e70ff6c80c92926a4b)
REM AIRSS Version 0.9.1 bugfix July 2018 build 013d7b7c2542+ Fri, 06 Jul 2018 19:26:36 +0100
REM compiler GCC version 9.2.1 20190827 (Red Hat 9.2.1-1)
REM options -cpp -mtune=generic -march=x86-64 -g -O0 -fpre-include=/usr/include/finclude/math-vector-fortran.h
REM seed 335407778 -456071371 -108113328 -235372498 -1500230220 -606747124 173567576 -834846145 995365823 -95757225 1038113041 -1788174786 780785651 460059325 -319077962 1531852137 -834879317 -1124155674 579888163 240896723 -2006096746 -1609596745 385109227 1075554298 1414137854 -1854944640 -345908939 -1555257928 -1385834759 1489517097 -934887989 742691764 -1492449451
REM
CELL 1.54180   50.00000   50.00000   50.00000   90.00000   90.00000   90.00000
LATT -1
SFAC C  
C      1  0.5465830000000  0.4541810000000  0.6595440000000 1.0
C      1  0.5734750000000  0.5684110000000  0.6518200000000 1.0
C      1  0.5587550000000  0.6181570000000  0.4497300000000 1.0
C      1  0.4065820000000  0.5082220000000  0.5447500000000 1.0
C      1  0.5420980000000  0.5461140000000  0.6138180000000 1.0
C      1  0.5012450000000  0.5806900000000  0.4498850000000 1.0
C      1  0.5014720000000  0.5991190000000  0.4715520000000 1.0
C      1  0.4341310000000  0.5497650000000  0.4752800000000 1.0
C      1  0.4807270000000  0.5764790000000  0.5781510000000 1.0
C      1  0.6024710000000  0.5759520000000  0.4927450000000 1.0
C      1  0.4535750000000  0.4905650000000  0.4167420000000 1.0
C      1  0.5051830000000  0.5605050000000  0.5817350000000 1.0
C      1  0.4892550000000  0.5051190000000  0.6224030000000 1.0
C      1  0.4539430000000  0.5448370000000  0.5558070000000 1.0
C      1  0.5625530000000  0.5141330000000  0.5376700000000 1.0
C      1  0.5705070000000  0.5741030000000  0.5627780000000 1.0
C      1  0.5644130000000  0.4589080000000  0.5676000000000 1.0
C      1  0.5318890000000  0.5637580000000  0.5927150000000 1.0
C      1  0.4289840000000  0.4077130000000  0.4961020000000 1.0
C      1  0.5864380000000  0.4315600000000  0.6309350000000 1.0
C      1  0.4173490000000  0.4250080000000  0.5173810000000 1.0
C      1  0.4969460000000  0.5870020000000  0.4968910000000 1.0
C      1  0.5082460000000  0.4328560000000  0.4660650000000 1.0
C      1  0.5263200000000  0.5022440000000  0.5110470000000 1.0
C      1  0.4466710000000  0.4540950000000  0.4662420000000 1.0
C      1  0.4494550000000  0.4871490000000  0.6439900000000 1.0
C      1  0.5411450000000  0.4229030000000  0.4192520000000 1.0
C      1  0.5526760000000  0.4700410000000  0.3993570000000 1.0
C      1  0.4788450000000  0.5127750000000  0.4754320000000 1.0
C      1  0.5031370000000  0.4929110000000  0.4311010000000 1.0
C      1  0.5264510000000  0.5957080000000  0.4056690000000 1.0
C      1  0.4594440000000  0.5405810000000  0.6031790000000 1.0
C      1  0.5166160000000  0.3918150000000  0.6179800000000 1.0
C      1  0.5045510000000  0.6121700000000  0.3973890000000 1.0
C      1  0.5566320000000  0.4509280000000  0.5406930000000 1.0
C      1  0.4017390000000  0.4402730000000  0.4375010000000 1.0
C      1  0.5382810000000  0.4289260000000  0.5367580000000 1.0
C      1  0.4602400000000  0.5036210000000  0.3924790000000 1.0
C      1  0.4931830000000  0.5341150000000  0.3991210000000 1.0
C      1  0.5268580000000  0.4951880000000  0.4482380000000 1.0
C      1  0.4828020000000  0.4570730000000  0.6257170000000 1.0
C      1  0.4838650000000  0.5100960000000  0.5320890000000 1.0
C      1  0.4736790000000  0.4830420000000  0.6307370000000 1.0
C      1  0.5364930000000  0.6331160000000  0.4583690000000 1.0
C      1  0.5362800000000  0.5176330000000  0.6155680000000 1.0
C      1  0.4164560000000  0.5085850000000  0.4965040000000 1.0
C      1  0.4815700000000  0.5223840000000  0.6014210000000 1.0
C      1  0.3895760000000  0.4578030000000  0.5448000000000 1.0
C      1  0.5656300000000  0.5961030000000  0.4663250000000 1.0
C      1  0.4530210000000  0.5969310000000  0.5433530000000 1.0
C      1  0.4875730000000  0.5326070000000  0.4609220000000 1.0
C      1  0.6163900000000  0.4404620000000  0.5100640000000 1.0
C      1  0.5622590000000  0.4178470000000  0.4372280000000 1.0
C      1  0.5152830000000  0.5094220000000  0.6325240000000 1.0
C      1  0.5199630000000  0.3998400000000  0.5001740000000 1.0
C      1  0.5171010000000  0.4055680000000  0.4173020000000 1.0
C      1  0.5063860000000  0.3873990000000  0.4367900000000 1.0
C      1  0.4377910000000  0.5669020000000  0.4310420000000 1.0
C      1  0.6212500000000  0.4418660000000  0.5363030000000 1.0
C      1  0.5819580000000  0.4094610000000  0.4558570000000 1.0
C      1  0.5942870000000  0.4412280000000  0.4928290000000 1.0
C      1  0.5080780000000  0.4140600000000  0.6046040000000 1.0
C      1  0.4315740000000  0.4723010000000  0.5240650000000 1.0
C      1  0.5821550000000  0.4172030000000  0.4834110000000 1.0
C      1  0.4238330000000  0.5498540000000  0.4490240000000 1.0
C      1  0.4546530000000  0.5545060000000  0.4917770000000 1.0
C      1  0.4266010000000  0.4918100000000  0.6556150000000 1.0
C      1  0.5633550000000  0.5221350000000  0.3935870000000 1.0
C      1  0.4491430000000  0.5533770000000  0.4081010000000 1.0
C      1  0.6119500000000  0.5621160000000  0.4698060000000 1.0
C      1  0.4630710000000  0.4687300000000  0.4846780000000 1.0
C      1  0.5626500000000  0.5494070000000  0.3857360000000 1.0
C      1  0.4465720000000  0.4628440000000  0.5462240000000 1.0
C      1  0.5301610000000  0.5545770000000  0.5104300000000 1.0
C      1  0.5416860000000  0.4740850000000  0.4594830000000 1.0
C      1  0.4776840000000  0.5280910000000  0.5522430000000 1.0
C      1  0.5261580000000  0.5292650000000  0.5032100000000 1.0
C      1  0.4095170000000  0.5273530000000  0.4401200000000 1.0
C      1  0.4348600000000  0.5808110000000  0.5272020000000 1.0
C      1  0.3616030000000  0.5634800000000  0.5607830000000 1.0
C      1  0.5295170000000  0.4496160000000  0.4626880000000 1.0
C      1  0.5656530000000  0.4430110000000  0.6457350000000 1.0
C      1  0.5418660000000  0.4087200000000  0.5159850000000 1.0
C      1  0.4214800000000  0.4989820000000  0.5223080000000 1.0
C      1  0.4764840000000  0.4536520000000  0.5035050000000 1.0
C      1  0.4193830000000  0.4547650000000  0.4765740000000 1.0
C      1  0.5177070000000  0.5812440000000  0.4278890000000 1.0
C      1  0.5767310000000  0.4633670000000  0.4947570000000 1.0
C      1  0.5386200000000  0.5209760000000  0.4508560000000 1.0
C      1  0.4604190000000  0.6101170000000  0.4269420000000 1.0
C      1  0.5582800000000  0.5573730000000  0.6337560000000 1.0
C      1  0.4945680000000  0.4345870000000  0.6180560000000 1.0
C      1  0.4648250000000  0.5326650000000  0.3958630000000 1.0
C      1  0.4189220000000  0.5016550000000  0.4470750000000 1.0
C      1  0.3711520000000  0.4646880000000  0.4704410000000 1.0
C      1  0.4581360000000  0.4955820000000  0.4794200000000 1.0
C      1  0.5455190000000  0.5278340000000  0.5534430000000 1.0
C      1  0.4769100000000  0.4862350000000  0.3761770000000 1.0
C      1  0.5502650000000  0.4779400000000  0.5835720000000 1.0
C      1  0.5489970000000  0.5449740000000  0.4560480000000 1.0
C      1  0.5369560000000  0.4468910000000  0.4023350000000 1.0
C      1  0.4947030000000  0.4645090000000  0.5222430000000 1.0
C      1  0.5924310000000  0.5661560000000  0.4209700000000 1.0
C      1  0.4745030000000  0.5703960000000  0.4999850000000 1.0
C      1  0.5857870000000  0.5977180000000  0.4856530000000 1.0
C      1  0.4518260000000  0.4205890000000  0.4011190000000 1.0
C      1  0.5128320000000  0.4170090000000  0.5771780000000 1.0
C      1  0.4036520000000  0.4304260000000  0.5440070000000 1.0
C      1  0.3935350000000  0.4845120000000  0.5570850000000 1.0
C      1  0.5667000000000  0.4044630000000  0.5032920000000 1.0
C      1  0.4646680000000  0.4507160000000  0.4408110000000 1.0
C      1  0.3954950000000  0.4555500000000  0.4604680000000 1.0
C      1  0.4440130000000  0.5930580000000  0.4431530000000 1.0
C      1  0.4961080000000  0.3793790000000  0.4626500000000 1.0
C      1  0.5144700000000  0.4309040000000  0.5529800000000 1.0
C      1  0.6009830000000  0.5682090000000  0.5197140000000 1.0
C      1  0.5543710000000  0.5554680000000  0.3602600000000 1.0
C      1  0.4942790000000  0.4500220000000  0.5468370000000 1.0
C      1  0.5706000000000  0.5708880000000  0.4031320000000 1.0
C      1  0.4799660000000  0.6156440000000  0.4089190000000 1.0
C      1  0.5058830000000  0.5135900000000  0.4111460000000 1.0
C      1  0.5887290000000  0.4477930000000  0.5778160000000 1.0
C      1  0.4057610000000  0.4131230000000  0.4472560000000 1.0
C      1  0.5552900000000  0.5958980000000  0.4049520000000 1.0
C      1  0.4152890000000  0.4538030000000  0.5059520000000 1.0
C      1  0.5032490000000  0.4202750000000  0.4907250000000 1.0
C      1  0.6029140000000  0.4129300000000  0.6423090000000 1.0
C      1  0.5156970000000  0.3767410000000  0.4839730000000 1.0
C      1  0.4875180000000  0.4335920000000  0.4474130000000 1.0
C      1  0.4135510000000  0.4034580000000  0.4717640000000 1.0
C      1  0.3860100000000  0.4614190000000  0.5156610000000 1.0
C      1  0.5106620000000  0.4446960000000  0.3892720000000 1.0
C      1  0.4067120000000  0.5374280000000  0.5463940000000 1.0
C      1  0.4744020000000  0.4105720000000  0.3909740000000 1.0
C      1  0.4898390000000  0.6220020000000  0.5629910000000 1.0
C      1  0.5627360000000  0.4686460000000  0.5190360000000 1.0
C      1  0.4309110000000  0.5018370000000  0.4734100000000 1.0
C      1  0.5020330000000  0.4916030000000  0.5209760000000 1.0
C      1  0.6066770000000  0.5610970000000  0.4432720000000 1.0
C      1  0.5195430000000  0.5790480000000  0.5114790000000 1.0
C      1  0.4947610000000  0.4655760000000  0.3779960000000 1.0
C      1  0.4358270000000  0.5974220000000  0.4719770000000 1.0
C      1  0.5007360000000  0.4179580000000  0.3962620000000 1.0
C      1  0.4872910000000  0.5571880000000  0.4522140000000 1.0
C      1  0.5545570000000  0.5704230000000  0.4619190000000 1.0
C      1  0.5480480000000  0.6089350000000  0.5869910000000 1.0
C      1  0.5257410000000  0.5177270000000  0.5707240000000 1.0
C      1  0.5658410000000  0.6159510000000  0.4223610000000 1.0
C      1  0.5129120000000  0.6245030000000  0.4680890000000 1.0
C      1  0.5517170000000  0.4942950000000  0.5209430000000 1.0
C      1  0.5883750000000  0.5696710000000  0.5433400000000 1.0
C      1  0.5669690000000  0.4761930000000  0.4716010000000 1.0
C      1  0.6106350000000  0.4446990000000  0.5605760000000 1.0
C      1  0.4303340000000  0.5918350000000  0.4992000000000 1.0
C      1  0.4765340000000  0.4785260000000  0.4313590000000 1.0
C      1  0.4695850000000  0.3860210000000  0.4729810000000 1.0
C      1  0.5603630000000  0.4955620000000  0.3960440000000 1.0
C      1  0.3664570000000  0.4671640000000  0.4968570000000 1.0
C      1  0.4577980000000  0.4050560000000  0.4920030000000 1.0
C      1  0.5377990000000  0.5020900000000  0.5914470000000 1.0
C      1  0.4456790000000  0.4404420000000  0.4195010000000 1.0
C      1  0.4684220000000  0.4524490000000  0.5583000000000 1.0
C      1  0.4986070000000  0.5302780000000  0.5755990000000 1.0
C      1  0.4750430000000  0.5990880000000  0.5615400000000 1.0
C      1  0.5501600000000  0.5823330000000  0.5806050000000 1.0
C      1  0.4768190000000  0.4251130000000  0.5002090000000 1.0
C      1  0.3832910000000  0.5507530000000  0.5539480000000 1.0
C      1  0.6020160000000  0.3929290000000  0.4469620000000 1.0
C      1  0.4210080000000  0.4548220000000  0.4219160000000 1.0
C      1  0.5901300000000  0.4393650000000  0.6043570000000 1.0
C      1  0.4307980000000  0.5534200000000  0.5403030000000 1.0
C      1  0.4577260000000  0.5586450000000  0.5813030000000 1.0
C      1  0.4273240000000  0.4835580000000  0.4263800000000 1.0
END
