TITL C-612605-9286-1253 3.83495111790403 125000 -715.243933317737 0 0 117 (C1) n - 1
REM
REM in /home/nfs/bkarasulu/CARBON/AIRSS/Generating-Clusters/TERSOFF/Only-C1/FIRE-HFTN
REM
REM
REM
REM
REM
REM ./C.cell (11c1c37f851c82e70ff6c80c92926a4b)
REM AIRSS Version 0.9.1 bugfix July 2018 build 013d7b7c2542+ Fri, 06 Jul 2018 19:26:36 +0100
REM compiler GCC version 9.2.1 20190827 (Red Hat 9.2.1-1)
REM options -cpp -mtune=generic -march=x86-64 -g -O0 -fpre-include=/usr/include/finclude/math-vector-fortran.h
REM seed 2037784812 -855050474 -1810076913 489016975 -1801644622 1694700797 1305593283 1374671148 -923088936 1791503966 -952687274 -1336576258 -1155434430 -1738072100 -1110462753 1134131244 289517333 1442079552 1961861174 -168474241 -211307375 1531559792 -2066471965 21787782 -2144324566 473963071 -24637144 -1846946505 1675945183 1043795005 -983990698 -822174633 1956831013
REM
CELL 1.54180   50.00000   50.00000   50.00000   90.00000   90.00000   90.00000
LATT -1
SFAC C  
C      1  0.5207430000000  0.4072390000000  0.4874030000000 1.0
C      1  0.4549760000000  0.3692960000000  0.5210110000000 1.0
C      1  0.5030950000000  0.4950820000000  0.5197320000000 1.0
C      1  0.5606510000000  0.4170040000000  0.4598160000000 1.0
C      1  0.4333100000000  0.4883830000000  0.4532310000000 1.0
C      1  0.4359870000000  0.4596400000000  0.4523310000000 1.0
C      1  0.5641300000000  0.4764310000000  0.4171160000000 1.0
C      1  0.4458730000000  0.5000060000000  0.4286300000000 1.0
C      1  0.4700010000000  0.5023030000000  0.5875820000000 1.0
C      1  0.5505530000000  0.5249760000000  0.4252740000000 1.0
C      1  0.4824360000000  0.5974570000000  0.5151070000000 1.0
C      1  0.6009770000000  0.5316870000000  0.5084000000000 1.0
C      1  0.4532740000000  0.6326110000000  0.4964650000000 1.0
C      1  0.4494510000000  0.4969810000000  0.4998520000000 1.0
C      1  0.4228240000000  0.4565100000000  0.5521530000000 1.0
C      1  0.4882470000000  0.5304980000000  0.3711010000000 1.0
C      1  0.5048350000000  0.4268440000000  0.5021060000000 1.0
C      1  0.5173820000000  0.5144870000000  0.5311380000000 1.0
C      1  0.4847980000000  0.5873000000000  0.4196540000000 1.0
C      1  0.4713070000000  0.4507140000000  0.5671990000000 1.0
C      1  0.6051190000000  0.5354750000000  0.4820730000000 1.0
C      1  0.4824290000000  0.4187360000000  0.4600240000000 1.0
C      1  0.4957190000000  0.4169060000000  0.5915630000000 1.0
C      1  0.5972320000000  0.4788860000000  0.4502340000000 1.0
C      1  0.6089930000000  0.4932780000000  0.5380260000000 1.0
C      1  0.4827490000000  0.5649390000000  0.4636870000000 1.0
C      1  0.4471930000000  0.6583890000000  0.4964410000000 1.0
C      1  0.5167180000000  0.4417790000000  0.5234080000000 1.0
C      1  0.6022140000000  0.4756710000000  0.5588650000000 1.0
C      1  0.4853450000000  0.5574400000000  0.5731190000000 1.0
C      1  0.5007520000000  0.5776420000000  0.5043190000000 1.0
C      1  0.5561550000000  0.5038450000000  0.4748960000000 1.0
C      1  0.5193170000000  0.6104950000000  0.5939690000000 1.0
C      1  0.5067120000000  0.4801100000000  0.4722200000000 1.0
C      1  0.4497870000000  0.3916160000000  0.5334370000000 1.0
C      1  0.4374190000000  0.5074390000000  0.4753300000000 1.0
C      1  0.4831540000000  0.5648810000000  0.4359050000000 1.0
C      1  0.4811260000000  0.5974580000000  0.5433300000000 1.0
C      1  0.5270700000000  0.5677130000000  0.5029640000000 1.0
C      1  0.4600340000000  0.6052700000000  0.4968430000000 1.0
C      1  0.4371480000000  0.5094560000000  0.5489050000000 1.0
C      1  0.4411300000000  0.6841920000000  0.4964630000000 1.0
C      1  0.4468550000000  0.4416480000000  0.5547120000000 1.0
C      1  0.5947360000000  0.4501140000000  0.5616340000000 1.0
C      1  0.4938480000000  0.4814030000000  0.4972900000000 1.0
C      1  0.4120430000000  0.5182470000000  0.5399100000000 1.0
C      1  0.5938770000000  0.5060350000000  0.4402220000000 1.0
C      1  0.4442010000000  0.5876010000000  0.4788850000000 1.0
C      1  0.5410420000000  0.4691420000000  0.4022780000000 1.0
C      1  0.4351670000000  0.7095710000000  0.4964860000000 1.0
C      1  0.4333150000000  0.5511960000000  0.5039590000000 1.0
C      1  0.5951270000000  0.4755010000000  0.4783040000000 1.0
C      1  0.5045130000000  0.3989660000000  0.4635180000000 1.0
C      1  0.5248950000000  0.4417340000000  0.4421480000000 1.0
C      1  0.4691330000000  0.5332370000000  0.5290380000000 1.0
C      1  0.5704070000000  0.5049120000000  0.4227390000000 1.0
C      1  0.4860560000000  0.6084630000000  0.4045010000000 1.0
C      1  0.4843420000000  0.5344160000000  0.3965530000000 1.0
C      1  0.5798650000000  0.4343440000000  0.4478390000000 1.0
C      1  0.4338460000000  0.5598280000000  0.4758830000000 1.0
C      1  0.5635000000000  0.5065160000000  0.5265300000000 1.0
C      1  0.6177100000000  0.4722950000000  0.4943940000000 1.0
C      1  0.4358170000000  0.4451960000000  0.4763380000000 1.0
C      1  0.4538670000000  0.6189390000000  0.6232740000000 1.0
C      1  0.4554920000000  0.4525530000000  0.4312800000000 1.0
C      1  0.4933530000000  0.6027450000000  0.5901750000000 1.0
C      1  0.4704260000000  0.5399660000000  0.5567430000000 1.0
C      1  0.5391320000000  0.5422200000000  0.4984280000000 1.0
C      1  0.4822070000000  0.5603680000000  0.4910430000000 1.0
C      1  0.5693030000000  0.4827350000000  0.4883170000000 1.0
C      1  0.3925450000000  0.4965140000000  0.5358420000000 1.0
C      1  0.4621380000000  0.5506230000000  0.5089050000000 1.0
C      1  0.5043130000000  0.5228780000000  0.4406800000000 1.0
C      1  0.5419700000000  0.5284660000000  0.4727570000000 1.0
C      1  0.4800460000000  0.4301540000000  0.4872820000000 1.0
C      1  0.4942150000000  0.4329460000000  0.5684670000000 1.0
C      1  0.5814970000000  0.4597340000000  0.4349390000000 1.0
C      1  0.4814060000000  0.5369240000000  0.4257410000000 1.0
C      1  0.5586010000000  0.4797370000000  0.5147840000000 1.0
C      1  0.4731480000000  0.6114710000000  0.6074110000000 1.0
C      1  0.5912170000000  0.5137380000000  0.5282220000000 1.0
C      1  0.4016830000000  0.4712690000000  0.5443220000000 1.0
C      1  0.5418600000000  0.5248030000000  0.5218860000000 1.0
C      1  0.3860680000000  0.5306540000000  0.5043000000000 1.0
C      1  0.5033960000000  0.4447600000000  0.4233980000000 1.0
C      1  0.5381880000000  0.4133080000000  0.5534200000000 1.0
C      1  0.5215360000000  0.3945990000000  0.4411640000000 1.0
C      1  0.5242750000000  0.4601850000000  0.4632640000000 1.0
C      1  0.4785180000000  0.4361210000000  0.4358160000000 1.0
C      1  0.4719440000000  0.4748440000000  0.5819570000000 1.0
C      1  0.5314260000000  0.5314590000000  0.4455790000000 1.0
C      1  0.5840380000000  0.4276230000000  0.5520460000000 1.0
C      1  0.4955180000000  0.5436820000000  0.5960670000000 1.0
C      1  0.4865460000000  0.5855870000000  0.5684740000000 1.0
C      1  0.5631000000000  0.4137790000000  0.5393990000000 1.0
C      1  0.5502550000000  0.4094940000000  0.4863140000000 1.0
C      1  0.4538940000000  0.5268680000000  0.4354150000000 1.0
C      1  0.4885650000000  0.5180010000000  0.6025380000000 1.0
C      1  0.4408900000000  0.5348990000000  0.4612020000000 1.0
C      1  0.5382780000000  0.4607490000000  0.5202450000000 1.0
C      1  0.4546130000000  0.5183540000000  0.5697360000000 1.0
C      1  0.4961950000000  0.4014180000000  0.6130500000000 1.0
C      1  0.6257040000000  0.4820690000000  0.5180810000000 1.0
C      1  0.4111690000000  0.5383290000000  0.5172080000000 1.0
C      1  0.5634720000000  0.4083920000000  0.5113950000000 1.0
C      1  0.4982290000000  0.4986670000000  0.4532050000000 1.0
C      1  0.4535840000000  0.5091080000000  0.5249580000000 1.0
C      1  0.6029600000000  0.5270900000000  0.4565740000000 1.0
C      1  0.5155140000000  0.4593420000000  0.4020060000000 1.0
C      1  0.4966490000000  0.3860950000000  0.6341360000000 1.0
C      1  0.4465870000000  0.4154450000000  0.5445720000000 1.0
C      1  0.4589350000000  0.4478890000000  0.4922510000000 1.0
C      1  0.4664550000000  0.4744180000000  0.4974500000000 1.0
C      1  0.4563960000000  0.4769410000000  0.4150030000000 1.0
C      1  0.3759290000000  0.5069290000000  0.5146700000000 1.0
C      1  0.5389320000000  0.4170750000000  0.4408700000000 1.0
C      1  0.5151610000000  0.4296140000000  0.5492570000000 1.0
END
