TITL C-612601-4209-1282 9.65488614858977 125000 -487.075597121464 0 0 80 (C1) n - 1
REM
REM in /home/nfs/bkarasulu/CARBON/AIRSS/Generating-Clusters/TERSOFF/Only-C1/FIRE-HFTN
REM
REM
REM
REM
REM
REM ./C.cell (11c1c37f851c82e70ff6c80c92926a4b)
REM AIRSS Version 0.9.1 bugfix July 2018 build 013d7b7c2542+ Fri, 06 Jul 2018 19:26:36 +0100
REM compiler GCC version 9.2.1 20190827 (Red Hat 9.2.1-1)
REM options -cpp -mtune=generic -march=x86-64 -g -O0 -fpre-include=/usr/include/finclude/math-vector-fortran.h
REM seed -1223824567 -1691008647 -2062615888 639724016 -1423922469 -1300266867 490410941 719884252 -209812088 -1028351326 -855327489 658560517 688481809 853436755 -1225441068 -395835665 -781939265 756365605 -335947463 184187944 -1154498873 1886126212 828951056 -1126854903 2101245512 517251371 -1669659423 -1846404674 -334078159 -140449288 1441973175 884014310 76393413
REM
CELL 1.54180   50.00000   50.00000   50.00000   90.00000   90.00000   90.00000
LATT -1
SFAC C  
C      1  0.5001420000000  0.4495030000000  0.5876760000000 1.0
C      1  0.4977960000000  0.5287940000000  0.5327750000000 1.0
C      1  0.5063270000000  0.5330580000000  0.4578340000000 1.0
C      1  0.5507390000000  0.4430450000000  0.5005010000000 1.0
C      1  0.4307720000000  0.5357780000000  0.4503710000000 1.0
C      1  0.5109710000000  0.5533710000000  0.5318960000000 1.0
C      1  0.5564120000000  0.4890650000000  0.4314910000000 1.0
C      1  0.4154760000000  0.4757490000000  0.5246670000000 1.0
C      1  0.5778600000000  0.5191130000000  0.4611790000000 1.0
C      1  0.5899900000000  0.4747450000000  0.4849960000000 1.0
C      1  0.5529790000000  0.5096020000000  0.4504910000000 1.0
C      1  0.4725210000000  0.4638500000000  0.5492530000000 1.0
C      1  0.4590440000000  0.4269520000000  0.4597550000000 1.0
C      1  0.4423930000000  0.4936200000000  0.4616560000000 1.0
C      1  0.4834100000000  0.4251810000000  0.4459990000000 1.0
C      1  0.4796940000000  0.4281280000000  0.5061310000000 1.0
C      1  0.5610640000000  0.4628740000000  0.4287690000000 1.0
C      1  0.5078820000000  0.5263300000000  0.5788470000000 1.0
C      1  0.5107170000000  0.5790800000000  0.4460800000000 1.0
C      1  0.5752320000000  0.4531980000000  0.4909600000000 1.0
C      1  0.4533300000000  0.4866560000000  0.5523690000000 1.0
C      1  0.4484590000000  0.5469970000000  0.5315800000000 1.0
C      1  0.4240020000000  0.5146300000000  0.4701950000000 1.0
C      1  0.5136060000000  0.4406340000000  0.6088810000000 1.0
C      1  0.5013010000000  0.4704030000000  0.4401270000000 1.0
C      1  0.4327710000000  0.4347630000000  0.4991980000000 1.0
C      1  0.4812750000000  0.5229240000000  0.5106300000000 1.0
C      1  0.4638940000000  0.5450760000000  0.5056430000000 1.0
C      1  0.5276310000000  0.5628840000000  0.5104480000000 1.0
C      1  0.5084110000000  0.5140440000000  0.4096490000000 1.0
C      1  0.4969760000000  0.4660340000000  0.5652000000000 1.0
C      1  0.5299080000000  0.4960790000000  0.5073410000000 1.0
C      1  0.4293980000000  0.4965500000000  0.5382840000000 1.0
C      1  0.5476880000000  0.5184550000000  0.5091870000000 1.0
C      1  0.5921010000000  0.4999730000000  0.4760980000000 1.0
C      1  0.4941030000000  0.4841250000000  0.4645660000000 1.0
C      1  0.4857170000000  0.5789640000000  0.5287220000000 1.0
C      1  0.5594310000000  0.4865430000000  0.6132280000000 1.0
C      1  0.5518940000000  0.5686390000000  0.4238250000000 1.0
C      1  0.4740230000000  0.4423490000000  0.5304470000000 1.0
C      1  0.5302450000000  0.4345560000000  0.4557960000000 1.0
C      1  0.4316740000000  0.4618330000000  0.5064730000000 1.0
C      1  0.4571760000000  0.4245860000000  0.4882950000000 1.0
C      1  0.5093610000000  0.5821090000000  0.4994080000000 1.0
C      1  0.4511020000000  0.5585070000000  0.4839630000000 1.0
C      1  0.5173090000000  0.4940400000000  0.4809090000000 1.0
C      1  0.4966130000000  0.5516450000000  0.5873040000000 1.0
C      1  0.5750990000000  0.5626070000000  0.4357080000000 1.0
C      1  0.4659080000000  0.5077830000000  0.5659070000000 1.0
C      1  0.5046540000000  0.4883200000000  0.4179170000000 1.0
C      1  0.5060850000000  0.4236040000000  0.4972080000000 1.0
C      1  0.4557230000000  0.4765740000000  0.5013420000000 1.0
C      1  0.4281240000000  0.5238310000000  0.5264540000000 1.0
C      1  0.4781680000000  0.5291350000000  0.4562390000000 1.0
C      1  0.5066740000000  0.5861880000000  0.4719260000000 1.0
C      1  0.4394780000000  0.4435770000000  0.4478060000000 1.0
C      1  0.5297270000000  0.4786580000000  0.5304950000000 1.0
C      1  0.5054830000000  0.4423650000000  0.4436590000000 1.0
C      1  0.5488090000000  0.5014740000000  0.5938010000000 1.0
C      1  0.5240190000000  0.5641490000000  0.4254500000000 1.0
C      1  0.4225690000000  0.5564470000000  0.4911140000000 1.0
C      1  0.5136960000000  0.5406510000000  0.4122460000000 1.0
C      1  0.4726510000000  0.4967490000000  0.5058790000000 1.0
C      1  0.4564140000000  0.5476590000000  0.4577160000000 1.0
C      1  0.4338310000000  0.4696680000000  0.4499100000000 1.0
C      1  0.4706710000000  0.5011840000000  0.4606840000000 1.0
C      1  0.5348650000000  0.4451490000000  0.6244510000000 1.0
C      1  0.5420040000000  0.4537290000000  0.5252280000000 1.0
C      1  0.4895640000000  0.5196040000000  0.5578190000000 1.0
C      1  0.5278550000000  0.5149880000000  0.4628220000000 1.0
C      1  0.5482880000000  0.5451200000000  0.5049100000000 1.0
C      1  0.4757330000000  0.5641570000000  0.5737260000000 1.0
C      1  0.5859500000000  0.5443020000000  0.4520320000000 1.0
C      1  0.5303100000000  0.4311100000000  0.4842660000000 1.0
C      1  0.5270900000000  0.5046650000000  0.5765280000000 1.0
C      1  0.5191750000000  0.4833140000000  0.5571880000000 1.0
C      1  0.4656350000000  0.5670640000000  0.5465080000000 1.0
C      1  0.5530570000000  0.4400370000000  0.4403570000000 1.0
C      1  0.5540460000000  0.4637780000000  0.6262730000000 1.0
C      1  0.4178320000000  0.5273250000000  0.4973350000000 1.0
END
