TITL C-612605-9286-587 0.884717135416615 125000 -412.382610434157 0 0 69 (C1) n - 1
REM
REM in /home/nfs/bkarasulu/CARBON/AIRSS/Generating-Clusters/TERSOFF/Only-C1/FIRE-HFTN
REM
REM
REM
REM
REM
REM ./C.cell (11c1c37f851c82e70ff6c80c92926a4b)
REM AIRSS Version 0.9.1 bugfix July 2018 build 013d7b7c2542+ Fri, 06 Jul 2018 19:26:36 +0100
REM compiler GCC version 9.2.1 20190827 (Red Hat 9.2.1-1)
REM options -cpp -mtune=generic -march=x86-64 -g -O0 -fpre-include=/usr/include/finclude/math-vector-fortran.h
REM seed 1763227129 -331663285 -287864089 -558660113 328735774 2140872517 -1712632795 -166023696 -609756409 1642052737 -2004432941 -474000557 878596457 267535721 805838698 2033384094 579459799 394119546 1733066316 2142089940 1527984037 841989537 -1686910478 1360224896 -147895727 197254065 -692014986 1202909178 -220762912 1804124641 960946011 173356847 -238408060
REM
CELL 1.54180   50.00000   50.00000   50.00000   90.00000   90.00000   90.00000
LATT -1
SFAC C  
C      1  0.4627080000000  0.5038670000000  0.5051030000000 1.0
C      1  0.5024780000000  0.5219860000000  0.4131940000000 1.0
C      1  0.5439030000000  0.5127740000000  0.5486390000000 1.0
C      1  0.5138930000000  0.5465280000000  0.5302220000000 1.0
C      1  0.4319990000000  0.4527850000000  0.5016820000000 1.0
C      1  0.4865550000000  0.5111530000000  0.6209460000000 1.0
C      1  0.5913520000000  0.5925580000000  0.5141630000000 1.0
C      1  0.5036980000000  0.4630540000000  0.4923200000000 1.0
C      1  0.4107180000000  0.4842590000000  0.4692860000000 1.0
C      1  0.4715590000000  0.3758810000000  0.5171070000000 1.0
C      1  0.4543540000000  0.4196390000000  0.5807420000000 1.0
C      1  0.5195230000000  0.5592060000000  0.5059510000000 1.0
C      1  0.5383760000000  0.4268180000000  0.5340770000000 1.0
C      1  0.4766220000000  0.5495800000000  0.5614350000000 1.0
C      1  0.5590910000000  0.4505610000000  0.4923580000000 1.0
C      1  0.4859250000000  0.6181020000000  0.3899410000000 1.0
C      1  0.4835910000000  0.6417800000000  0.3792840000000 1.0
C      1  0.4918460000000  0.5162730000000  0.4633710000000 1.0
C      1  0.4871560000000  0.5399780000000  0.5373620000000 1.0
C      1  0.5351810000000  0.5393110000000  0.5477620000000 1.0
C      1  0.4711730000000  0.4235460000000  0.5594350000000 1.0
C      1  0.4967330000000  0.4867860000000  0.6180070000000 1.0
C      1  0.4724970000000  0.4949930000000  0.4587260000000 1.0
C      1  0.4744320000000  0.4029180000000  0.5154740000000 1.0
C      1  0.4901360000000  0.4563510000000  0.4331180000000 1.0
C      1  0.5367490000000  0.5039570000000  0.4451490000000 1.0
C      1  0.5789710000000  0.5933100000000  0.4904790000000 1.0
C      1  0.4921710000000  0.5458070000000  0.4251970000000 1.0
C      1  0.4416640000000  0.4376510000000  0.5214620000000 1.0
C      1  0.5155440000000  0.4528150000000  0.4209460000000 1.0
C      1  0.5476110000000  0.5585960000000  0.5646600000000 1.0
C      1  0.4773230000000  0.5335570000000  0.6099880000000 1.0
C      1  0.5229420000000  0.4821070000000  0.4843220000000 1.0
C      1  0.5409630000000  0.4593160000000  0.4276390000000 1.0
C      1  0.4563830000000  0.4895500000000  0.4815660000000 1.0
C      1  0.4632060000000  0.5573920000000  0.4635030000000 1.0
C      1  0.4926920000000  0.4391870000000  0.4817050000000 1.0
C      1  0.4841730000000  0.5417190000000  0.4524430000000 1.0
C      1  0.5335330000000  0.5720260000000  0.4873550000000 1.0
C      1  0.5250850000000  0.3623640000000  0.5637540000000 1.0
C      1  0.5291790000000  0.5158000000000  0.4207340000000 1.0
C      1  0.5535480000000  0.4889070000000  0.5526430000000 1.0
C      1  0.4053030000000  0.5085640000000  0.4593220000000 1.0
C      1  0.5534750000000  0.4359670000000  0.5140810000000 1.0
C      1  0.4845350000000  0.4395870000000  0.4548480000000 1.0
C      1  0.4988570000000  0.4293850000000  0.5640970000000 1.0
C      1  0.4685130000000  0.5798520000000  0.4781300000000 1.0
C      1  0.5230440000000  0.3876660000000  0.5578590000000 1.0
C      1  0.4882890000000  0.5940370000000  0.4007960000000 1.0
C      1  0.5710150000000  0.5713570000000  0.5560190000000 1.0
C      1  0.4775410000000  0.4820830000000  0.4331470000000 1.0
C      1  0.5369860000000  0.5643570000000  0.5892050000000 1.0
C      1  0.5200160000000  0.4147900000000  0.5516310000000 1.0
C      1  0.5872960000000  0.5836790000000  0.5389870000000 1.0
C      1  0.4610900000000  0.4209130000000  0.5330310000000 1.0
C      1  0.5480910000000  0.4696480000000  0.4752980000000 1.0
C      1  0.5180180000000  0.5060010000000  0.4680560000000 1.0
C      1  0.4905150000000  0.5701200000000  0.4119520000000 1.0
C      1  0.4900150000000  0.4155560000000  0.4960840000000 1.0
C      1  0.5039340000000  0.4655140000000  0.6038610000000 1.0
C      1  0.5496170000000  0.4777420000000  0.4473570000000 1.0
C      1  0.4328830000000  0.4735130000000  0.4828010000000 1.0
C      1  0.4366870000000  0.5494570000000  0.4585420000000 1.0
C      1  0.4160490000000  0.5328010000000  0.4561040000000 1.0
C      1  0.5557250000000  0.5849720000000  0.4802540000000 1.0
C      1  0.5052780000000  0.4482630000000  0.5837710000000 1.0
C      1  0.4842820000000  0.4999920000000  0.4118640000000 1.0
C      1  0.4732780000000  0.5475320000000  0.5877210000000 1.0
C      1  0.4724330000000  0.5219030000000  0.5219340000000 1.0
END
