TITL C-612604-1799-969 0.126955807932348 125000 -427.224025375555 0 0 71 (C1) n - 1
REM
REM in /home/nfs/bkarasulu/CARBON/AIRSS/Generating-Clusters/TERSOFF/Only-C1/FIRE-HFTN
REM
REM
REM
REM
REM
REM ./C.cell (11c1c37f851c82e70ff6c80c92926a4b)
REM AIRSS Version 0.9.1 bugfix July 2018 build 013d7b7c2542+ Fri, 06 Jul 2018 19:26:36 +0100
REM compiler GCC version 9.2.1 20190827 (Red Hat 9.2.1-1)
REM options -cpp -mtune=generic -march=x86-64 -g -O0 -fpre-include=/usr/include/finclude/math-vector-fortran.h
REM seed 1771167896 -595838922 378782569 -306017350 -566579389 126458961 911964294 1131877269 -517650835 -1711843834 1803280929 -1046621528 673506019 -1215304518 -1277896060 -2133332308 -1709537417 -463609687 1701451719 810773983 1328627258 -1924708344 1001025485 -1587613609 2110805923 186942247 -806861020 -1134426665 -148037565 -665632231 1214435323 -11040676 270905151
REM
CELL 1.54180   50.00000   50.00000   50.00000   90.00000   90.00000   90.00000
LATT -1
SFAC C  
C      1  0.6165830000000  0.4721990000000  0.5606300000000 1.0
C      1  0.5203030000000  0.4922800000000  0.4185990000000 1.0
C      1  0.5076800000000  0.4702980000000  0.4837620000000 1.0
C      1  0.6285860000000  0.4931180000000  0.5178640000000 1.0
C      1  0.4764960000000  0.4944760000000  0.5161330000000 1.0
C      1  0.4989040000000  0.4207240000000  0.4725790000000 1.0
C      1  0.4922630000000  0.4321900000000  0.4490770000000 1.0
C      1  0.4967090000000  0.5132720000000  0.5216280000000 1.0
C      1  0.5070480000000  0.4813570000000  0.5757460000000 1.0
C      1  0.4600810000000  0.4775780000000  0.5994970000000 1.0
C      1  0.5791770000000  0.5051060000000  0.5091470000000 1.0
C      1  0.5016140000000  0.4576860000000  0.5613540000000 1.0
C      1  0.5899680000000  0.4728600000000  0.5639790000000 1.0
C      1  0.5388950000000  0.5236430000000  0.4897680000000 1.0
C      1  0.4666360000000  0.4277610000000  0.5441050000000 1.0
C      1  0.4342280000000  0.4467020000000  0.4791880000000 1.0
C      1  0.5535700000000  0.4818640000000  0.4729860000000 1.0
C      1  0.5202890000000  0.4706770000000  0.4376330000000 1.0
C      1  0.5284370000000  0.4723930000000  0.4646120000000 1.0
C      1  0.6068050000000  0.5025730000000  0.5054230000000 1.0
C      1  0.5085920000000  0.4208600000000  0.4977170000000 1.0
C      1  0.4860290000000  0.4742560000000  0.4990650000000 1.0
C      1  0.5598010000000  0.5043440000000  0.4887790000000 1.0
C      1  0.4555450000000  0.4572320000000  0.5807040000000 1.0
C      1  0.5464860000000  0.4625850000000  0.5442110000000 1.0
C      1  0.5165290000000  0.4310090000000  0.5213440000000 1.0
C      1  0.5091580000000  0.5405690000000  0.3518770000000 1.0
C      1  0.5215460000000  0.5638190000000  0.5344400000000 1.0
C      1  0.5079540000000  0.5752740000000  0.5120480000000 1.0
C      1  0.4529980000000  0.4231120000000  0.5216660000000 1.0
C      1  0.4291390000000  0.4560560000000  0.5705750000000 1.0
C      1  0.5193410000000  0.5211540000000  0.5098080000000 1.0
C      1  0.5111110000000  0.5073780000000  0.5797540000000 1.0
C      1  0.4665160000000  0.5402990000000  0.4101760000000 1.0
C      1  0.4856850000000  0.5176780000000  0.4531760000000 1.0
C      1  0.4685070000000  0.5604870000000  0.4822390000000 1.0
C      1  0.4490650000000  0.5016750000000  0.5195430000000 1.0
C      1  0.4936890000000  0.4968710000000  0.4071850000000 1.0
C      1  0.4803480000000  0.4715490000000  0.4142680000000 1.0
C      1  0.4348760000000  0.4692790000000  0.4650750000000 1.0
C      1  0.5685450000000  0.5060870000000  0.5358210000000 1.0
C      1  0.4857120000000  0.5225590000000  0.3977570000000 1.0
C      1  0.5570730000000  0.5302210000000  0.5449280000000 1.0
C      1  0.5216050000000  0.5923340000000  0.4954590000000 1.0
C      1  0.4573390000000  0.5039310000000  0.6029340000000 1.0
C      1  0.4757550000000  0.4458580000000  0.5637010000000 1.0
C      1  0.5182170000000  0.5318660000000  0.5717630000000 1.0
C      1  0.4976380000000  0.5316970000000  0.3740220000000 1.0
C      1  0.4527200000000  0.5487090000000  0.5762220000000 1.0
C      1  0.4292770000000  0.4861520000000  0.5314270000000 1.0
C      1  0.4554040000000  0.5632600000000  0.5541120000000 1.0
C      1  0.5205070000000  0.5493250000000  0.3301020000000 1.0
C      1  0.5333270000000  0.5443290000000  0.5514760000000 1.0
C      1  0.5216230000000  0.4492570000000  0.5424220000000 1.0
C      1  0.4538770000000  0.5286720000000  0.5936930000000 1.0
C      1  0.4537060000000  0.5357720000000  0.4834460000000 1.0
C      1  0.4192080000000  0.4695090000000  0.5496090000000 1.0
C      1  0.4727560000000  0.5693650000000  0.4554480000000 1.0
C      1  0.6331450000000  0.4804880000000  0.5411440000000 1.0
C      1  0.4597870000000  0.5160790000000  0.4635070000000 1.0
C      1  0.4634990000000  0.5710180000000  0.5299680000000 1.0
C      1  0.4409230000000  0.4302270000000  0.4990140000000 1.0
C      1  0.4402620000000  0.5378920000000  0.4021920000000 1.0
C      1  0.4800160000000  0.5700840000000  0.5070680000000 1.0
C      1  0.4959210000000  0.4545870000000  0.4324550000000 1.0
C      1  0.5310430000000  0.5359410000000  0.4659100000000 1.0
C      1  0.5092740000000  0.5300060000000  0.4517110000000 1.0
C      1  0.4724530000000  0.5601390000000  0.4299110000000 1.0
C      1  0.5671100000000  0.4809400000000  0.5496300000000 1.0
C      1  0.4416780000000  0.5256370000000  0.5065910000000 1.0
C      1  0.4434160000000  0.4938160000000  0.4591930000000 1.0
END
