TITL C-612607-4507-522 113941.116412591 125000 -796.987092088517 0 0 130 (C1) n - 1
REM
REM in /home/nfs/bkarasulu/CARBON/AIRSS/Generating-Clusters/TERSOFF/Only-C1/FIRE-HFTN
REM
REM
REM
REM
REM
REM ./C.cell (11c1c37f851c82e70ff6c80c92926a4b)
REM AIRSS Version 0.9.1 bugfix July 2018 build 013d7b7c2542+ Fri, 06 Jul 2018 19:26:36 +0100
REM compiler GCC version 9.2.1 20190827 (Red Hat 9.2.1-1)
REM options -cpp -mtune=generic -march=x86-64 -g -O0 -fpre-include=/usr/include/finclude/math-vector-fortran.h
REM seed 765534178 -37563898 279442331 2107077003 587301885 -1190456376 1485471840 1986783673 -1405114681 -1068980037 688362024 1424485342 451456036 -292351139 -69488023 1483406235 1218811555 1394937431 -705740965 -744230064 127918241 307731954 131306165 -1666201868 -1819213303 213770367 -2055673724 1696260883 -275233216 1064599817 1841996855 -2119671776 384433750
REM
CELL 1.54180   50.00000   50.00000   50.00000   90.00000   90.00000   90.00000
LATT -1
SFAC C  
C      1  0.5255130000000  0.5835030000000  0.4890190000000 1.0
C      1  0.5021200000000  0.5757550000000  0.4209930000000 1.0
C      1  0.4914170000000  0.5518570000000  0.4160580000000 1.0
C      1  0.4887320000000  0.4025470000000  0.5113650000000 1.0
C      1  0.5609250000000  0.6168420000000  0.4260520000000 1.0
C      1  0.4675900000000  0.5655240000000  0.5817420000000 1.0
C      1  0.4312230000000  0.4494930000000  0.4030910000000 1.0
C      1  0.4854140000000  0.4949990000000  0.5054710000000 1.0
C      1  0.4332270000000  0.4908060000000  0.4573230000000 1.0
C      1  0.4147390000000  0.5632310000000  0.4954450000000 1.0
C      1  0.5683490000000  0.4098000000000  0.4707620000000 1.0
C      1  0.4871680000000  0.4754460000000  0.3816100000000 1.0
C      1  0.5105110000000  0.4628770000000  0.3842310000000 1.0
C      1  0.5725390000000  0.4466930000000  0.5004860000000 1.0
C      1  0.5165370000000  0.4088560000000  0.5196060000000 1.0
C      1  0.5204320000000  0.4953820000000  0.5826910000000 1.0
C      1  0.5464680000000  0.4516480000000  0.4153940000000 1.0
C      1  0.3950930000000  0.4724390000000  0.4814920000000 1.0
C      1  0.5137410000000  0.5932150000000  0.5146780000000 1.0
C      1  0.4639130000000  0.4117360000000  0.5018480000000 1.0
C      1  0.4849420000000  0.5999800000000  0.5059120000000 1.0
C      1  0.5166680000000  0.4654120000000  0.4500950000000 1.0
C      1  0.5603130000000  0.5420390000000  0.5653580000000 1.0
C      1  0.4875450000000  0.5268050000000  0.4279610000000 1.0
C      1  0.5823750000000  0.4672450000000  0.5544550000000 1.0
C      1  0.4218130000000  0.5042170000000  0.5339820000000 1.0
C      1  0.5799730000000  0.5177930000000  0.5605540000000 1.0
C      1  0.5720700000000  0.4398470000000  0.5599380000000 1.0
C      1  0.5412270000000  0.5092020000000  0.5962190000000 1.0
C      1  0.5773850000000  0.3861650000000  0.4602700000000 1.0
C      1  0.4238130000000  0.5729170000000  0.5209820000000 1.0
C      1  0.4604920000000  0.4987770000000  0.4610910000000 1.0
C      1  0.5094420000000  0.5891200000000  0.5637730000000 1.0
C      1  0.4055870000000  0.5307150000000  0.4472830000000 1.0
C      1  0.5780290000000  0.4903110000000  0.5743550000000 1.0
C      1  0.4186460000000  0.5067710000000  0.4376860000000 1.0
C      1  0.4618930000000  0.6074320000000  0.5200870000000 1.0
C      1  0.4616590000000  0.4822060000000  0.3856100000000 1.0
C      1  0.5912640000000  0.4681270000000  0.5048700000000 1.0
C      1  0.5094810000000  0.5134310000000  0.5031200000000 1.0
C      1  0.5294500000000  0.4848700000000  0.5562310000000 1.0
C      1  0.4316360000000  0.4422940000000  0.4730200000000 1.0
C      1  0.5926350000000  0.4804500000000  0.5304620000000 1.0
C      1  0.4963950000000  0.5686580000000  0.5783190000000 1.0
C      1  0.4690680000000  0.5242350000000  0.4493040000000 1.0
C      1  0.4844490000000  0.4706080000000  0.5585630000000 1.0
C      1  0.5788430000000  0.4195020000000  0.4958110000000 1.0
C      1  0.4293010000000  0.5574390000000  0.5450780000000 1.0
C      1  0.4797300000000  0.5920890000000  0.4770210000000 1.0
C      1  0.5371580000000  0.4040370000000  0.5401010000000 1.0
C      1  0.5074080000000  0.5902170000000  0.4667720000000 1.0
C      1  0.5325330000000  0.4467860000000  0.3911680000000 1.0
C      1  0.5944610000000  0.5093390000000  0.5361620000000 1.0
C      1  0.4024210000000  0.5362860000000  0.4955660000000 1.0
C      1  0.5078230000000  0.5076860000000  0.4262040000000 1.0
C      1  0.4268910000000  0.5723580000000  0.4691540000000 1.0
C      1  0.5149970000000  0.5921770000000  0.4397010000000 1.0
C      1  0.4629010000000  0.5402670000000  0.4929690000000 1.0
C      1  0.5427210000000  0.5058700000000  0.4606700000000 1.0
C      1  0.4465810000000  0.5729000000000  0.5634740000000 1.0
C      1  0.4758030000000  0.4532430000000  0.5197620000000 1.0
C      1  0.5897860000000  0.5075770000000  0.4755630000000 1.0
C      1  0.5404280000000  0.4264130000000  0.3746900000000 1.0
C      1  0.4368120000000  0.4770090000000  0.3977910000000 1.0
C      1  0.4290670000000  0.5277730000000  0.5517870000000 1.0
C      1  0.5238860000000  0.4928110000000  0.4433940000000 1.0
C      1  0.4157620000000  0.5577280000000  0.4462360000000 1.0
C      1  0.5354060000000  0.5032490000000  0.4900810000000 1.0
C      1  0.5519010000000  0.4594180000000  0.6028110000000 1.0
C      1  0.5398990000000  0.5051680000000  0.5368320000000 1.0
C      1  0.5657630000000  0.4392480000000  0.5878900000000 1.0
C      1  0.5484110000000  0.4251060000000  0.4565670000000 1.0
C      1  0.4456180000000  0.5206750000000  0.5002610000000 1.0
C      1  0.4497970000000  0.4094440000000  0.4385870000000 1.0
C      1  0.3901090000000  0.5280360000000  0.4713000000000 1.0
C      1  0.4130790000000  0.4594670000000  0.5527390000000 1.0
C      1  0.4962100000000  0.4913240000000  0.5969810000000 1.0
C      1  0.4937450000000  0.4641610000000  0.4666510000000 1.0
C      1  0.5813360000000  0.4073830000000  0.5215540000000 1.0
C      1  0.4567980000000  0.5754590000000  0.4667750000000 1.0
C      1  0.5366780000000  0.4746750000000  0.4929840000000 1.0
C      1  0.6012570000000  0.4693170000000  0.4554540000000 1.0
C      1  0.5641270000000  0.4159420000000  0.5433080000000 1.0
C      1  0.5256430000000  0.4507890000000  0.6103080000000 1.0
C      1  0.4579290000000  0.4098840000000  0.4124850000000 1.0
C      1  0.5704820000000  0.5048200000000  0.4538260000000 1.0
C      1  0.5859640000000  0.6218610000000  0.4207920000000 1.0
C      1  0.4751510000000  0.4917720000000  0.5395600000000 1.0
C      1  0.5816440000000  0.4820050000000  0.4379980000000 1.0
C      1  0.4006950000000  0.4460700000000  0.5713410000000 1.0
C      1  0.4519430000000  0.5233070000000  0.5687740000000 1.0
C      1  0.4843060000000  0.5069840000000  0.6166100000000 1.0
C      1  0.5683900000000  0.5614470000000  0.5223320000000 1.0
C      1  0.5329100000000  0.5558760000000  0.4909230000000 1.0
C      1  0.5561310000000  0.5440870000000  0.5039260000000 1.0
C      1  0.4191200000000  0.5169560000000  0.5082260000000 1.0
C      1  0.4472320000000  0.4552720000000  0.5173640000000 1.0
C      1  0.5387700000000  0.5359220000000  0.5842040000000 1.0
C      1  0.4366380000000  0.5982920000000  0.5211510000000 1.0
C      1  0.4488760000000  0.4285410000000  0.3946400000000 1.0
C      1  0.4205250000000  0.4691250000000  0.4714580000000 1.0
C      1  0.5088590000000  0.5413960000000  0.4940850000000 1.0
C      1  0.6012770000000  0.4814960000000  0.4819290000000 1.0
C      1  0.5002300000000  0.4467920000000  0.6009070000000 1.0
C      1  0.4283250000000  0.4739710000000  0.5333300000000 1.0
C      1  0.5035530000000  0.4522110000000  0.5237690000000 1.0
C      1  0.5110100000000  0.4652140000000  0.5473090000000 1.0
C      1  0.4996230000000  0.5285600000000  0.5539050000000 1.0
C      1  0.5610310000000  0.4875540000000  0.5974700000000 1.0
C      1  0.4639450000000  0.5469720000000  0.4653260000000 1.0
C      1  0.5542600000000  0.5153020000000  0.5113570000000 1.0
C      1  0.5226490000000  0.4357890000000  0.5117750000000 1.0
C      1  0.4671510000000  0.5275320000000  0.6150950000000 1.0
C      1  0.4777690000000  0.4843200000000  0.4793030000000 1.0
C      1  0.4174480000000  0.4420700000000  0.4269280000000 1.0
C      1  0.4585950000000  0.5396380000000  0.5915010000000 1.0
C      1  0.4432520000000  0.4334240000000  0.4976840000000 1.0
C      1  0.5366930000000  0.6079760000000  0.4321060000000 1.0
C      1  0.5445640000000  0.4503300000000  0.5019430000000 1.0
C      1  0.4847870000000  0.4666780000000  0.5869670000000 1.0
C      1  0.5543510000000  0.5648270000000  0.5465880000000 1.0
C      1  0.4310360000000  0.4284580000000  0.4484120000000 1.0
C      1  0.5689960000000  0.4685070000000  0.4171010000000 1.0
C      1  0.5112130000000  0.5439080000000  0.5753500000000 1.0
C      1  0.5152470000000  0.5197250000000  0.5328070000000 1.0
C      1  0.4849090000000  0.5507250000000  0.5055640000000 1.0
C      1  0.4221810000000  0.4973300000000  0.4112270000000 1.0
C      1  0.4744330000000  0.5160320000000  0.5537230000000 1.0
C      1  0.5349710000000  0.4450470000000  0.4410520000000 1.0
C      1  0.5259470000000  0.5853470000000  0.5408620000000 1.0
END
