TITL C-612606-7351-1265 0.0416796121998675 125000 -668.050013106272 0 0 109 (C1) n - 1
REM
REM in /home/nfs/bkarasulu/CARBON/AIRSS/Generating-Clusters/TERSOFF/Only-C1/FIRE-HFTN
REM
REM
REM
REM
REM
REM ./C.cell (11c1c37f851c82e70ff6c80c92926a4b)
REM AIRSS Version 0.9.1 bugfix July 2018 build 013d7b7c2542+ Fri, 06 Jul 2018 19:26:36 +0100
REM compiler GCC version 9.2.1 20190827 (Red Hat 9.2.1-1)
REM options -cpp -mtune=generic -march=x86-64 -g -O0 -fpre-include=/usr/include/finclude/math-vector-fortran.h
REM seed 501720357 -80570605 1830494336 -371331280 -1561999026 -1337181647 1296141051 -966123393 186320256 1653049212 -1708941668 -717943742 374567818 1652054279 -1079102820 -1942648683 -319795358 107548220 1216312189 -688008387 -600253301 1851612773 607186939 694317951 1574788458 287606086 237709410 -1344126725 -1068826094 787551462 695002312 615165143 99146201
REM
CELL 1.54180   50.00000   50.00000   50.00000   90.00000   90.00000   90.00000
LATT -1
SFAC C  
C      1  0.4915840000000  0.5478430000000  0.6001870000000 1.0
C      1  0.3828150000000  0.5209550000000  0.5290060000000 1.0
C      1  0.3735800000000  0.5009930000000  0.5141130000000 1.0
C      1  0.5811400000000  0.5267900000000  0.4990150000000 1.0
C      1  0.4756860000000  0.4947910000000  0.5803750000000 1.0
C      1  0.3962140000000  0.5323720000000  0.4483130000000 1.0
C      1  0.5502130000000  0.4063050000000  0.3961630000000 1.0
C      1  0.4989750000000  0.4322530000000  0.5176470000000 1.0
C      1  0.4995660000000  0.5147550000000  0.3958070000000 1.0
C      1  0.5111880000000  0.5381690000000  0.4020390000000 1.0
C      1  0.4222210000000  0.4619500000000  0.5487100000000 1.0
C      1  0.5430220000000  0.4783910000000  0.4630570000000 1.0
C      1  0.4906190000000  0.4888890000000  0.4033740000000 1.0
C      1  0.4978440000000  0.5822870000000  0.5640750000000 1.0
C      1  0.5345850000000  0.4940470000000  0.5249810000000 1.0
C      1  0.5533080000000  0.4733040000000  0.5216850000000 1.0
C      1  0.4056940000000  0.4805450000000  0.4591300000000 1.0
C      1  0.4714210000000  0.4886210000000  0.4760680000000 1.0
C      1  0.5138510000000  0.6206620000000  0.4628340000000 1.0
C      1  0.5229080000000  0.5589090000000  0.4480970000000 1.0
C      1  0.5407140000000  0.4233650000000  0.5442690000000 1.0
C      1  0.5520370000000  0.4310010000000  0.4596700000000 1.0
C      1  0.5775960000000  0.5329780000000  0.5490050000000 1.0
C      1  0.4206160000000  0.4441410000000  0.5261020000000 1.0
C      1  0.5460510000000  0.4512270000000  0.5047060000000 1.0
C      1  0.5364350000000  0.3835630000000  0.4025980000000 1.0
C      1  0.4040010000000  0.5573460000000  0.4530850000000 1.0
C      1  0.5260400000000  0.4829470000000  0.5868840000000 1.0
C      1  0.5089020000000  0.5253200000000  0.6001350000000 1.0
C      1  0.5234520000000  0.5992800000000  0.4767840000000 1.0
C      1  0.5660960000000  0.5592330000000  0.5516780000000 1.0
C      1  0.5066510000000  0.4664320000000  0.3978630000000 1.0
C      1  0.4624940000000  0.5490590000000  0.5121250000000 1.0
C      1  0.4583320000000  0.5209000000000  0.5112470000000 1.0
C      1  0.4646840000000  0.5007230000000  0.5313240000000 1.0
C      1  0.4881300000000  0.5596150000000  0.5051350000000 1.0
C      1  0.5359460000000  0.4046190000000  0.4975820000000 1.0
C      1  0.5055930000000  0.5131030000000  0.4516520000000 1.0
C      1  0.5318030000000  0.5220170000000  0.5295730000000 1.0
C      1  0.5262630000000  0.5854300000000  0.5650320000000 1.0
C      1  0.5081140000000  0.5438370000000  0.4917140000000 1.0
C      1  0.6466100000000  0.5198150000000  0.5299680000000 1.0
C      1  0.6205230000000  0.5239490000000  0.5279120000000 1.0
C      1  0.4674960000000  0.4721120000000  0.5225280000000 1.0
C      1  0.4980700000000  0.4887000000000  0.4891900000000 1.0
C      1  0.5401860000000  0.4378390000000  0.5671120000000 1.0
C      1  0.5209530000000  0.5555010000000  0.4201980000000 1.0
C      1  0.3720080000000  0.4808670000000  0.4946840000000 1.0
C      1  0.4543040000000  0.4767670000000  0.5842660000000 1.0
C      1  0.4365540000000  0.4117170000000  0.5580770000000 1.0
C      1  0.4170650000000  0.5751140000000  0.4680120000000 1.0
C      1  0.5456630000000  0.5925360000000  0.5203070000000 1.0
C      1  0.5456290000000  0.4303690000000  0.4105760000000 1.0
C      1  0.5475450000000  0.5805950000000  0.5466930000000 1.0
C      1  0.4863860000000  0.5579820000000  0.5738400000000 1.0
C      1  0.5377980000000  0.5772920000000  0.4644000000000 1.0
C      1  0.3245740000000  0.4624250000000  0.4767970000000 1.0
C      1  0.5867740000000  0.4069860000000  0.3564160000000 1.0
C      1  0.4307480000000  0.5790090000000  0.4905890000000 1.0
C      1  0.5205460000000  0.5964740000000  0.5055660000000 1.0
C      1  0.4393620000000  0.4297910000000  0.5782970000000 1.0
C      1  0.4543290000000  0.5113310000000  0.4850320000000 1.0
C      1  0.4467420000000  0.4740180000000  0.4263180000000 1.0
C      1  0.4341930000000  0.4188560000000  0.5304720000000 1.0
C      1  0.5004690000000  0.4972370000000  0.5956920000000 1.0
C      1  0.3963840000000  0.4699400000000  0.4841460000000 1.0
C      1  0.5218770000000  0.4581640000000  0.5737100000000 1.0
C      1  0.5325880000000  0.5368970000000  0.5054320000000 1.0
C      1  0.4799680000000  0.4136870000000  0.5077700000000 1.0
C      1  0.5842130000000  0.4528690000000  0.4316280000000 1.0
C      1  0.5084660000000  0.5390960000000  0.4633840000000 1.0
C      1  0.4976170000000  0.4560450000000  0.5593190000000 1.0
C      1  0.3473570000000  0.4713510000000  0.4857630000000 1.0
C      1  0.5689700000000  0.4062650000000  0.3754340000000 1.0
C      1  0.5299300000000  0.5271790000000  0.5795070000000 1.0
C      1  0.3986770000000  0.5410070000000  0.5363270000000 1.0
C      1  0.4870550000000  0.4535550000000  0.5335320000000 1.0
C      1  0.3960650000000  0.5060230000000  0.4516640000000 1.0
C      1  0.5579510000000  0.5421970000000  0.4929570000000 1.0
C      1  0.5291980000000  0.4975330000000  0.4508080000000 1.0
C      1  0.5598940000000  0.5683580000000  0.4813970000000 1.0
C      1  0.5295920000000  0.4273050000000  0.5164950000000 1.0
C      1  0.4903030000000  0.5351630000000  0.5556500000000 1.0
C      1  0.5455900000000  0.4067090000000  0.4723240000000 1.0
C      1  0.5929180000000  0.5277390000000  0.5252720000000 1.0
C      1  0.4100800000000  0.4523950000000  0.5013990000000 1.0
C      1  0.5708740000000  0.5110130000000  0.5667850000000 1.0
C      1  0.4190360000000  0.5576670000000  0.5320570000000 1.0
C      1  0.5969670000000  0.4738350000000  0.4421970000000 1.0
C      1  0.4368830000000  0.4577020000000  0.5730530000000 1.0
C      1  0.5992590000000  0.4940120000000  0.4594870000000 1.0
C      1  0.4594880000000  0.4673420000000  0.4944890000000 1.0
C      1  0.5114660000000  0.4869480000000  0.5113470000000 1.0
C      1  0.5615670000000  0.4361600000000  0.4334030000000 1.0
C      1  0.4388240000000  0.5648400000000  0.5134500000000 1.0
C      1  0.4865660000000  0.5931430000000  0.5405290000000 1.0
C      1  0.5468470000000  0.5034920000000  0.5802470000000 1.0
C      1  0.4746790000000  0.5109230000000  0.5561170000000 1.0
C      1  0.4808500000000  0.4981350000000  0.4490540000000 1.0
C      1  0.4716530000000  0.4870360000000  0.4247850000000 1.0
C      1  0.5478710000000  0.4541070000000  0.4761570000000 1.0
C      1  0.5188070000000  0.5309970000000  0.5530010000000 1.0
C      1  0.4538290000000  0.4094000000000  0.5126330000000 1.0
C      1  0.6722780000000  0.5156650000000  0.5318500000000 1.0
C      1  0.5254720000000  0.4480580000000  0.4021220000000 1.0
C      1  0.5929570000000  0.5111190000000  0.4788950000000 1.0
C      1  0.5668630000000  0.5875950000000  0.5016110000000 1.0
C      1  0.4252520000000  0.4697150000000  0.4419060000000 1.0
C      1  0.4961090000000  0.5853680000000  0.5151280000000 1.0
END
