TITL C-612603-7354-901 0.646804865826917 125000 -920.629425836406 0 0 150 (C1) n - 1
REM
REM in /home/nfs/bkarasulu/CARBON/AIRSS/Generating-Clusters/TERSOFF/Only-C1/FIRE-HFTN
REM
REM
REM
REM
REM
REM ./C.cell (11c1c37f851c82e70ff6c80c92926a4b)
REM AIRSS Version 0.9.1 bugfix July 2018 build 013d7b7c2542+ Fri, 06 Jul 2018 19:26:36 +0100
REM compiler GCC version 9.2.1 20190827 (Red Hat 9.2.1-1)
REM options -cpp -mtune=generic -march=x86-64 -g -O0 -fpre-include=/usr/include/finclude/math-vector-fortran.h
REM seed 459405649 -1783819896 2044795359 -1556820925 -981164424 784252226 1968513912 1077094275 -2084812122 903782766 -1747332679 1848573387 -679345023 -1977668125 742514005 1521252203 -592589563 -926295544 -907775343 1902169799 -2118160689 1395429438 1029517833 -1029377026 -1339128866 -939407739 -753366644 1347918044 -504713821 135171101 -2013832945 573001453 906181550
REM
CELL 1.54180   50.00000   50.00000   50.00000   90.00000   90.00000   90.00000
LATT -1
SFAC C  
C      1  0.5520540000000  0.5045240000000  0.4306340000000 1.0
C      1  0.4600810000000  0.6140960000000  0.4281130000000 1.0
C      1  0.5806840000000  0.4833940000000  0.4721380000000 1.0
C      1  0.5875030000000  0.4773650000000  0.4235170000000 1.0
C      1  0.5619500000000  0.4798730000000  0.5256950000000 1.0
C      1  0.4324230000000  0.5198230000000  0.5752050000000 1.0
C      1  0.4399820000000  0.5858430000000  0.5372780000000 1.0
C      1  0.4868680000000  0.5552640000000  0.5397780000000 1.0
C      1  0.4678650000000  0.4623650000000  0.5923990000000 1.0
C      1  0.4430650000000  0.4859370000000  0.4153270000000 1.0
C      1  0.5684250000000  0.4422680000000  0.4516490000000 1.0
C      1  0.4409450000000  0.4082630000000  0.5217420000000 1.0
C      1  0.5799160000000  0.5436840000000  0.5180690000000 1.0
C      1  0.4585270000000  0.3754440000000  0.4640220000000 1.0
C      1  0.6065830000000  0.4245400000000  0.5250780000000 1.0
C      1  0.5752160000000  0.4239640000000  0.4715890000000 1.0
C      1  0.5474120000000  0.5102300000000  0.5835150000000 1.0
C      1  0.5201360000000  0.5567120000000  0.5743690000000 1.0
C      1  0.5309460000000  0.4052400000000  0.5253260000000 1.0
C      1  0.5131370000000  0.4860560000000  0.4744150000000 1.0
C      1  0.4035050000000  0.5294310000000  0.5135600000000 1.0
C      1  0.4790770000000  0.4818850000000  0.5091410000000 1.0
C      1  0.4156300000000  0.4462580000000  0.5476290000000 1.0
C      1  0.5463350000000  0.5592220000000  0.4163280000000 1.0
C      1  0.4575180000000  0.5683670000000  0.4053190000000 1.0
C      1  0.5709090000000  0.5839790000000  0.4877350000000 1.0
C      1  0.4631330000000  0.6241990000000  0.4529690000000 1.0
C      1  0.5100000000000  0.5351080000000  0.4391580000000 1.0
C      1  0.4583960000000  0.4871630000000  0.4871890000000 1.0
C      1  0.4711710000000  0.5920060000000  0.4149960000000 1.0
C      1  0.5225700000000  0.4697990000000  0.5885100000000 1.0
C      1  0.5137350000000  0.4773530000000  0.5624130000000 1.0
C      1  0.4534760000000  0.5324670000000  0.5911950000000 1.0
C      1  0.5091340000000  0.4095100000000  0.5048310000000 1.0
C      1  0.4729660000000  0.5199320000000  0.3944730000000 1.0
C      1  0.5224440000000  0.4408180000000  0.5927420000000 1.0
C      1  0.4522530000000  0.5946200000000  0.5093980000000 1.0
C      1  0.3974920000000  0.5524480000000  0.4962560000000 1.0
C      1  0.4265030000000  0.5306880000000  0.4101510000000 1.0
C      1  0.5387620000000  0.4620880000000  0.5224720000000 1.0
C      1  0.4893880000000  0.4454790000000  0.5422050000000 1.0
C      1  0.4870060000000  0.4189710000000  0.5548380000000 1.0
C      1  0.6178620000000  0.4986840000000  0.5454630000000 1.0
C      1  0.6244360000000  0.4730250000000  0.5382680000000 1.0
C      1  0.5011420000000  0.4458380000000  0.4410660000000 1.0
C      1  0.5270160000000  0.4074430000000  0.4388680000000 1.0
C      1  0.4129000000000  0.4710290000000  0.5591330000000 1.0
C      1  0.4002600000000  0.5467110000000  0.4460800000000 1.0
C      1  0.5979650000000  0.4846650000000  0.4484990000000 1.0
C      1  0.5774230000000  0.4959980000000  0.4985160000000 1.0
C      1  0.5429100000000  0.5699210000000  0.4454560000000 1.0
C      1  0.5009410000000  0.3902910000000  0.4843120000000 1.0
C      1  0.5345520000000  0.4674600000000  0.4752510000000 1.0
C      1  0.4811110000000  0.4134640000000  0.5823610000000 1.0
C      1  0.4912310000000  0.4907010000000  0.4530800000000 1.0
C      1  0.4547500000000  0.4045490000000  0.5863430000000 1.0
C      1  0.5059770000000  0.5644470000000  0.4953060000000 1.0
C      1  0.6021520000000  0.4176310000000  0.4768520000000 1.0
C      1  0.5020150000000  0.5610340000000  0.4004920000000 1.0
C      1  0.4708030000000  0.4992350000000  0.5336040000000 1.0
C      1  0.5208400000000  0.5445660000000  0.4128650000000 1.0
C      1  0.5590250000000  0.4800770000000  0.4170960000000 1.0
C      1  0.5995660000000  0.5179080000000  0.5520480000000 1.0
C      1  0.4345840000000  0.5579190000000  0.4170010000000 1.0
C      1  0.4724370000000  0.3840800000000  0.4867470000000 1.0
C      1  0.4284080000000  0.4206310000000  0.5448430000000 1.0
C      1  0.5355090000000  0.5801980000000  0.5776520000000 1.0
C      1  0.5853210000000  0.5242690000000  0.4977120000000 1.0
C      1  0.5187960000000  0.5194360000000  0.5124540000000 1.0
C      1  0.5893460000000  0.5546900000000  0.4563260000000 1.0
C      1  0.5552940000000  0.5796780000000  0.5336660000000 1.0
C      1  0.4541430000000  0.5225380000000  0.5190380000000 1.0
C      1  0.4597240000000  0.3648250000000  0.5287280000000 1.0
C      1  0.4824710000000  0.4520050000000  0.5140620000000 1.0
C      1  0.5073730000000  0.6080630000000  0.4597790000000 1.0
C      1  0.4941100000000  0.4338880000000  0.4953990000000 1.0
C      1  0.4276740000000  0.5405170000000  0.5549600000000 1.0
C      1  0.5099280000000  0.4794330000000  0.4070020000000 1.0
C      1  0.5824150000000  0.4089500000000  0.5289560000000 1.0
C      1  0.5238530000000  0.4341590000000  0.4284400000000 1.0
C      1  0.4969450000000  0.4720400000000  0.4314010000000 1.0
C      1  0.6100350000000  0.4481660000000  0.5407840000000 1.0
C      1  0.4822240000000  0.6158420000000  0.4718790000000 1.0
C      1  0.4558070000000  0.4845420000000  0.5533410000000 1.0
C      1  0.4337770000000  0.4075200000000  0.5696280000000 1.0
C      1  0.4110980000000  0.5865390000000  0.5302580000000 1.0
C      1  0.5159030000000  0.3923030000000  0.4592210000000 1.0
C      1  0.5054820000000  0.4972080000000  0.4995300000000 1.0
C      1  0.4576680000000  0.3867240000000  0.5118550000000 1.0
C      1  0.4719420000000  0.4757370000000  0.6152830000000 1.0
C      1  0.4268700000000  0.5296400000000  0.5288750000000 1.0
C      1  0.4024400000000  0.5257060000000  0.4254000000000 1.0
C      1  0.5176470000000  0.4576910000000  0.5423420000000 1.0
C      1  0.4950960000000  0.5003140000000  0.3932040000000 1.0
C      1  0.4465300000000  0.5113280000000  0.4035230000000 1.0
C      1  0.4714910000000  0.5320160000000  0.4725820000000 1.0
C      1  0.3883400000000  0.5411170000000  0.4711170000000 1.0
C      1  0.4311930000000  0.5822660000000  0.4617140000000 1.0
C      1  0.5566480000000  0.4263480000000  0.4931030000000 1.0
C      1  0.4767230000000  0.5488790000000  0.3944600000000 1.0
C      1  0.5129170000000  0.5031960000000  0.6216360000000 1.0
C      1  0.4884900000000  0.4931860000000  0.6272590000000 1.0
C      1  0.5370410000000  0.5589400000000  0.5300790000000 1.0
C      1  0.5575340000000  0.4089320000000  0.5149780000000 1.0
C      1  0.5687380000000  0.5740820000000  0.4610920000000 1.0
C      1  0.4923530000000  0.5564960000000  0.5676990000000 1.0
C      1  0.3793750000000  0.5131630000000  0.4760170000000 1.0
C      1  0.5502430000000  0.5203620000000  0.4524020000000 1.0
C      1  0.4443130000000  0.5655180000000  0.5583810000000 1.0
C      1  0.3862830000000  0.5030720000000  0.4292880000000 1.0
C      1  0.4071550000000  0.5778200000000  0.5032340000000 1.0
C      1  0.4310790000000  0.4927160000000  0.5648550000000 1.0
C      1  0.4459280000000  0.3684390000000  0.4423130000000 1.0
C      1  0.5245200000000  0.5475840000000  0.5081560000000 1.0
C      1  0.4922300000000  0.4377900000000  0.4669690000000 1.0
C      1  0.4637940000000  0.4799940000000  0.4609910000000 1.0
C      1  0.3752840000000  0.4971640000000  0.4533490000000 1.0
C      1  0.5393290000000  0.4494450000000  0.4971890000000 1.0
C      1  0.4988240000000  0.4263290000000  0.6008010000000 1.0
C      1  0.6171430000000  0.4212030000000  0.4990830000000 1.0
C      1  0.5316620000000  0.4079830000000  0.5536570000000 1.0
C      1  0.5176880000000  0.5901280000000  0.4402590000000 1.0
C      1  0.5748710000000  0.5726750000000  0.5136160000000 1.0
C      1  0.5523310000000  0.5914070000000  0.5591480000000 1.0
C      1  0.5014290000000  0.5907010000000  0.5052070000000 1.0
C      1  0.5357580000000  0.4635880000000  0.4101560000000 1.0
C      1  0.3886630000000  0.5074090000000  0.5025930000000 1.0
C      1  0.5326220000000  0.5422800000000  0.4567470000000 1.0
C      1  0.5680040000000  0.4941100000000  0.5737690000000 1.0
C      1  0.5875580000000  0.4537180000000  0.5572300000000 1.0
C      1  0.5299360000000  0.4954950000000  0.6006860000000 1.0
C      1  0.4815190000000  0.5511720000000  0.4909380000000 1.0
C      1  0.5760520000000  0.5325100000000  0.5442330000000 1.0
C      1  0.4212270000000  0.5661540000000  0.4411800000000 1.0
C      1  0.5211280000000  0.5166200000000  0.5409670000000 1.0
C      1  0.4310130000000  0.5872100000000  0.4892830000000 1.0
C      1  0.4884510000000  0.5210610000000  0.4515080000000 1.0
C      1  0.5022490000000  0.5004480000000  0.5518330000000 1.0
C      1  0.4535100000000  0.5152250000000  0.4892000000000 1.0
C      1  0.5373920000000  0.4237870000000  0.5750080000000 1.0
C      1  0.5414250000000  0.5325490000000  0.5572190000000 1.0
C      1  0.4997050000000  0.5858780000000  0.4165060000000 1.0
C      1  0.5724950000000  0.4769210000000  0.5523040000000 1.0
C      1  0.5591750000000  0.4671450000000  0.4620270000000 1.0
C      1  0.4463970000000  0.4747700000000  0.4395360000000 1.0
C      1  0.4689730000000  0.4630950000000  0.5643680000000 1.0
C      1  0.5961250000000  0.5348920000000  0.4735600000000 1.0
C      1  0.4720840000000  0.5462630000000  0.5179690000000 1.0
C      1  0.4653720000000  0.5563210000000  0.5787220000000 1.0
C      1  0.4773670000000  0.6045000000000  0.4982070000000 1.0
END
