TITL C-612606-7351-940 0.00404238363142561 125000 -978.603104100466 0 0 160 (C1) n - 1
REM
REM in /home/nfs/bkarasulu/CARBON/AIRSS/Generating-Clusters/TERSOFF/Only-C1/FIRE-HFTN
REM
REM
REM
REM
REM
REM ./C.cell (11c1c37f851c82e70ff6c80c92926a4b)
REM AIRSS Version 0.9.1 bugfix July 2018 build 013d7b7c2542+ Fri, 06 Jul 2018 19:26:36 +0100
REM compiler GCC version 9.2.1 20190827 (Red Hat 9.2.1-1)
REM options -cpp -mtune=generic -march=x86-64 -g -O0 -fpre-include=/usr/include/finclude/math-vector-fortran.h
REM seed 93297188 1245072357 -31304508 895666360 1589014010 -583683004 1707362806 -374035076 381931699 -829642103 1845586703 -2092217120 721476460 1846477734 -93971190 -1315571660 824945800 -1451966334 -262974852 -1129523724 -474442611 202027483 1607526508 480668103 -849490203 -2145739634 683043611 2125920836 -1958931188 -259767575 -564267791 -1945727075 1690194032
REM
CELL 1.54180   50.00000   50.00000   50.00000   90.00000   90.00000   90.00000
LATT -1
SFAC C  
C      1  0.6210550000000  0.5559480000000  0.5267690000000 1.0
C      1  0.4313070000000  0.5292170000000  0.4615270000000 1.0
C      1  0.5233740000000  0.6127840000000  0.6403360000000 1.0
C      1  0.4378500000000  0.3965310000000  0.4334570000000 1.0
C      1  0.5767850000000  0.4319450000000  0.5563990000000 1.0
C      1  0.5482690000000  0.3883510000000  0.4438250000000 1.0
C      1  0.4546090000000  0.4858570000000  0.4827190000000 1.0
C      1  0.4246290000000  0.4328650000000  0.4971650000000 1.0
C      1  0.3712590000000  0.5465770000000  0.4204880000000 1.0
C      1  0.4732820000000  0.5204020000000  0.3823360000000 1.0
C      1  0.5777970000000  0.3821480000000  0.3921780000000 1.0
C      1  0.4304250000000  0.5363110000000  0.6114480000000 1.0
C      1  0.5375240000000  0.3931310000000  0.4182630000000 1.0
C      1  0.4906660000000  0.5151090000000  0.5015540000000 1.0
C      1  0.4849440000000  0.5628300000000  0.5098470000000 1.0
C      1  0.4577160000000  0.4248520000000  0.5294210000000 1.0
C      1  0.5904390000000  0.5753840000000  0.4870020000000 1.0
C      1  0.5735660000000  0.5325240000000  0.6063220000000 1.0
C      1  0.4167300000000  0.4247210000000  0.4708560000000 1.0
C      1  0.4906220000000  0.4885330000000  0.5623390000000 1.0
C      1  0.5280440000000  0.4636140000000  0.4777490000000 1.0
C      1  0.4584210000000  0.4788850000000  0.4108600000000 1.0
C      1  0.5480610000000  0.5083260000000  0.3765000000000 1.0
C      1  0.4773350000000  0.4362830000000  0.5902040000000 1.0
C      1  0.4303350000000  0.4811680000000  0.5540890000000 1.0
C      1  0.5045570000000  0.5140480000000  0.6028330000000 1.0
C      1  0.5372280000000  0.4999940000000  0.5712070000000 1.0
C      1  0.5497480000000  0.5712340000000  0.5872550000000 1.0
C      1  0.6088920000000  0.5755360000000  0.5417780000000 1.0
C      1  0.5443070000000  0.4666180000000  0.5350910000000 1.0
C      1  0.5558490000000  0.3976510000000  0.3966430000000 1.0
C      1  0.5107220000000  0.4735810000000  0.4972550000000 1.0
C      1  0.5270310000000  0.5406010000000  0.5482080000000 1.0
C      1  0.4421210000000  0.5769800000000  0.5504260000000 1.0
C      1  0.4760070000000  0.5334160000000  0.5173620000000 1.0
C      1  0.5500190000000  0.5838950000000  0.4560720000000 1.0
C      1  0.5810190000000  0.5771300000000  0.5487000000000 1.0
C      1  0.4875670000000  0.4662320000000  0.5129170000000 1.0
C      1  0.5338680000000  0.4860110000000  0.3725480000000 1.0
C      1  0.4619060000000  0.6210720000000  0.5550900000000 1.0
C      1  0.5101030000000  0.5093310000000  0.6291340000000 1.0
C      1  0.4024410000000  0.5351140000000  0.5154450000000 1.0
C      1  0.5833090000000  0.4839940000000  0.5563080000000 1.0
C      1  0.4242420000000  0.3997410000000  0.4587940000000 1.0
C      1  0.4396750000000  0.4699520000000  0.5802820000000 1.0
C      1  0.4524060000000  0.4598550000000  0.4306690000000 1.0
C      1  0.3648240000000  0.5579480000000  0.4666840000000 1.0
C      1  0.5624870000000  0.4614820000000  0.5123270000000 1.0
C      1  0.4667020000000  0.5966580000000  0.4593670000000 1.0
C      1  0.5486800000000  0.4193630000000  0.3801800000000 1.0
C      1  0.6023410000000  0.5494960000000  0.4828380000000 1.0
C      1  0.4280590000000  0.5422240000000  0.5208410000000 1.0
C      1  0.5455450000000  0.5313390000000  0.4803930000000 1.0
C      1  0.3896550000000  0.4647400000000  0.4993390000000 1.0
C      1  0.4069090000000  0.4473580000000  0.4562690000000 1.0
C      1  0.4282040000000  0.5615940000000  0.5704140000000 1.0
C      1  0.5839990000000  0.4985020000000  0.4253540000000 1.0
C      1  0.5150620000000  0.4098960000000  0.4868830000000 1.0
C      1  0.4803380000000  0.5934170000000  0.4343000000000 1.0
C      1  0.4252870000000  0.4570700000000  0.4375920000000 1.0
C      1  0.5543530000000  0.4836680000000  0.5562140000000 1.0
C      1  0.4624230000000  0.5942530000000  0.5602660000000 1.0
C      1  0.4090040000000  0.4506080000000  0.5146810000000 1.0
C      1  0.4535120000000  0.5749610000000  0.4733570000000 1.0
C      1  0.5554240000000  0.4655780000000  0.4854970000000 1.0
C      1  0.5244180000000  0.4611550000000  0.3751240000000 1.0
C      1  0.6133910000000  0.5359760000000  0.5067130000000 1.0
C      1  0.3545150000000  0.5660250000000  0.4897630000000 1.0
C      1  0.3764260000000  0.5694080000000  0.5614770000000 1.0
C      1  0.5524890000000  0.5579560000000  0.4423900000000 1.0
C      1  0.5417900000000  0.5513570000000  0.5265840000000 1.0
C      1  0.5280410000000  0.4278990000000  0.5798300000000 1.0
C      1  0.5288440000000  0.5133000000000  0.4351370000000 1.0
C      1  0.5405840000000  0.5279450000000  0.5697660000000 1.0
C      1  0.5910770000000  0.4565480000000  0.5479310000000 1.0
C      1  0.4278470000000  0.3781360000000  0.4768580000000 1.0
C      1  0.5784430000000  0.5245140000000  0.4149020000000 1.0
C      1  0.5197830000000  0.4537430000000  0.5416740000000 1.0
C      1  0.6087820000000  0.4807630000000  0.5076980000000 1.0
C      1  0.4684790000000  0.5068410000000  0.5636920000000 1.0
C      1  0.4909950000000  0.5377780000000  0.5935290000000 1.0
C      1  0.5069000000000  0.5554380000000  0.4893520000000 1.0
C      1  0.5490450000000  0.4035650000000  0.5201850000000 1.0
C      1  0.5652440000000  0.5117870000000  0.4824510000000 1.0
C      1  0.6090360000000  0.5078580000000  0.5174210000000 1.0
C      1  0.4506530000000  0.3720990000000  0.4898590000000 1.0
C      1  0.3890410000000  0.4633090000000  0.4719310000000 1.0
C      1  0.4325960000000  0.4101290000000  0.4092510000000 1.0
C      1  0.5780200000000  0.5449900000000  0.4351300000000 1.0
C      1  0.5574220000000  0.4302390000000  0.5788660000000 1.0
C      1  0.4332700000000  0.5021460000000  0.4720800000000 1.0
C      1  0.5943820000000  0.5074400000000  0.5428610000000 1.0
C      1  0.4628720000000  0.4625270000000  0.4988700000000 1.0
C      1  0.4744700000000  0.3843510000000  0.4893490000000 1.0
C      1  0.3520110000000  0.5709510000000  0.5157410000000 1.0
C      1  0.5981420000000  0.5420440000000  0.4557240000000 1.0
C      1  0.4517600000000  0.4365450000000  0.5039950000000 1.0
C      1  0.5243760000000  0.4338060000000  0.3812400000000 1.0
C      1  0.5319480000000  0.5373010000000  0.4522740000000 1.0
C      1  0.4225890000000  0.4564870000000  0.5397520000000 1.0
C      1  0.5148950000000  0.6032500000000  0.5077750000000 1.0
C      1  0.4467560000000  0.5031810000000  0.5455090000000 1.0
C      1  0.5680750000000  0.5547710000000  0.5367080000000 1.0
C      1  0.5203550000000  0.4277670000000  0.5520750000000 1.0
C      1  0.5418520000000  0.4020410000000  0.4924640000000 1.0
C      1  0.4745130000000  0.4462030000000  0.4430870000000 1.0
C      1  0.4951190000000  0.4688020000000  0.5410550000000 1.0
C      1  0.4996560000000  0.5859690000000  0.5228180000000 1.0
C      1  0.5250530000000  0.5984220000000  0.4566150000000 1.0
C      1  0.5906230000000  0.5208390000000  0.6221790000000 1.0
C      1  0.5027950000000  0.4187870000000  0.3927800000000 1.0
C      1  0.4997400000000  0.4572500000000  0.4380320000000 1.0
C      1  0.5039250000000  0.4315300000000  0.5949590000000 1.0
C      1  0.5645130000000  0.5242990000000  0.3904530000000 1.0
C      1  0.4827540000000  0.6148060000000  0.4749310000000 1.0
C      1  0.5384670000000  0.4868140000000  0.4368710000000 1.0
C      1  0.4757800000000  0.4245420000000  0.4611470000000 1.0
C      1  0.5244990000000  0.5776220000000  0.5993390000000 1.0
C      1  0.3593710000000  0.5719610000000  0.5412540000000 1.0
C      1  0.5107160000000  0.6091650000000  0.4802280000000 1.0
C      1  0.4574900000000  0.5741030000000  0.5019680000000 1.0
C      1  0.5224470000000  0.4673850000000  0.4499010000000 1.0
C      1  0.4382680000000  0.5689890000000  0.5228980000000 1.0
C      1  0.4627740000000  0.3824960000000  0.4324820000000 1.0
C      1  0.4004200000000  0.5650640000000  0.5720400000000 1.0
C      1  0.5666320000000  0.4852910000000  0.4429400000000 1.0
C      1  0.5721670000000  0.4125910000000  0.5347180000000 1.0
C      1  0.4417390000000  0.5427440000000  0.5872180000000 1.0
C      1  0.4665580000000  0.5302500000000  0.5804370000000 1.0
C      1  0.5711310000000  0.6144600000000  0.5785190000000 1.0
C      1  0.4883940000000  0.3839890000000  0.4244720000000 1.0
C      1  0.5046790000000  0.5473020000000  0.4617240000000 1.0
C      1  0.4823450000000  0.5828200000000  0.5765810000000 1.0
C      1  0.5674080000000  0.5882080000000  0.5716210000000 1.0
C      1  0.5143590000000  0.5009980000000  0.5050370000000 1.0
C      1  0.5547650000000  0.3921080000000  0.4696170000000 1.0
C      1  0.4534630000000  0.4444560000000  0.5769290000000 1.0
C      1  0.4655290000000  0.4993380000000  0.3955950000000 1.0
C      1  0.5112710000000  0.4950740000000  0.5815990000000 1.0
C      1  0.4884770000000  0.4064930000000  0.4790120000000 1.0
C      1  0.4791470000000  0.5421200000000  0.4506900000000 1.0
C      1  0.5911560000000  0.4605430000000  0.5184920000000 1.0
C      1  0.4530480000000  0.5486610000000  0.4603510000000 1.0
C      1  0.5329680000000  0.5478480000000  0.5002790000000 1.0
C      1  0.4061680000000  0.5374920000000  0.4521340000000 1.0
C      1  0.5800990000000  0.5310110000000  0.5457050000000 1.0
C      1  0.5258990000000  0.4051750000000  0.5367690000000 1.0
C      1  0.4764880000000  0.5038520000000  0.4801770000000 1.0
C      1  0.4491310000000  0.5238610000000  0.5258070000000 1.0
C      1  0.4497310000000  0.4190380000000  0.3904050000000 1.0
C      1  0.5076430000000  0.5959310000000  0.4336910000000 1.0
C      1  0.4997840000000  0.5653780000000  0.5906070000000 1.0
C      1  0.3806550000000  0.5473350000000  0.4461670000000 1.0
C      1  0.4428400000000  0.4361470000000  0.5507540000000 1.0
C      1  0.4758640000000  0.4221780000000  0.3852660000000 1.0
C      1  0.5237840000000  0.5956570000000  0.6206990000000 1.0
C      1  0.5096440000000  0.3981810000000  0.4124070000000 1.0
C      1  0.5693450000000  0.4860980000000  0.4713070000000 1.0
C      1  0.5554900000000  0.5433390000000  0.5881870000000 1.0
C      1  0.5707890000000  0.5891820000000  0.4746520000000 1.0
END
