TITL C-612602-9376-1368 711.312460132768 125000 -1085.00740773766 0 0 176 (C1) n - 1
REM
REM in /home/nfs/bkarasulu/CARBON/AIRSS/Generating-Clusters/TERSOFF/Only-C1/FIRE-HFTN
REM
REM
REM
REM
REM
REM ./C.cell (11c1c37f851c82e70ff6c80c92926a4b)
REM AIRSS Version 0.9.1 bugfix July 2018 build 013d7b7c2542+ Fri, 06 Jul 2018 19:26:36 +0100
REM compiler GCC version 9.2.1 20190827 (Red Hat 9.2.1-1)
REM options -cpp -mtune=generic -march=x86-64 -g -O0 -fpre-include=/usr/include/finclude/math-vector-fortran.h
REM seed 978408612 9257288 1421973879 1165590218 13409819 14158897 -959044626 1762304454 -1054705507 1283080496 -730290668 1854234708 1589083512 126242915 -1522047832 -612040824 -1592766524 225632187 2140080615 225224294 -720241054 923898925 633591401 -209970931 1291801979 1890844372 1908332695 -475068234 1477437943 937888995 2038635623 889694914 -150966995
REM
CELL 1.54180   50.00000   50.00000   50.00000   90.00000   90.00000   90.00000
LATT -1
SFAC C  
C      1  0.5793170000000  0.4935960000000  0.5763160000000 1.0
C      1  0.4049610000000  0.4324190000000  0.5492870000000 1.0
C      1  0.4212110000000  0.5512940000000  0.5576710000000 1.0
C      1  0.4284110000000  0.5290660000000  0.4149660000000 1.0
C      1  0.5448770000000  0.4302260000000  0.4638790000000 1.0
C      1  0.5036060000000  0.5264130000000  0.4781990000000 1.0
C      1  0.4663420000000  0.4127520000000  0.5658290000000 1.0
C      1  0.5100510000000  0.5009340000000  0.3775290000000 1.0
C      1  0.5692840000000  0.5128520000000  0.4825900000000 1.0
C      1  0.4391270000000  0.5473210000000  0.5342180000000 1.0
C      1  0.5262940000000  0.4305180000000  0.4852990000000 1.0
C      1  0.3824260000000  0.5306890000000  0.5349300000000 1.0
C      1  0.4511710000000  0.5990810000000  0.4508810000000 1.0
C      1  0.4637710000000  0.5206120000000  0.6059450000000 1.0
C      1  0.4591970000000  0.4649700000000  0.4098660000000 1.0
C      1  0.4267770000000  0.5809210000000  0.5607510000000 1.0
C      1  0.4375760000000  0.6138380000000  0.5246510000000 1.0
C      1  0.4376200000000  0.5041440000000  0.5165190000000 1.0
C      1  0.5796780000000  0.4498480000000  0.4369850000000 1.0
C      1  0.4821650000000  0.5337850000000  0.4279540000000 1.0
C      1  0.5816360000000  0.5760050000000  0.4765640000000 1.0
C      1  0.4222430000000  0.5902500000000  0.5315920000000 1.0
C      1  0.5244280000000  0.5484510000000  0.3971680000000 1.0
C      1  0.5487430000000  0.5540120000000  0.5972060000000 1.0
C      1  0.4127280000000  0.5098170000000  0.5028430000000 1.0
C      1  0.5607450000000  0.5091220000000  0.5912000000000 1.0
C      1  0.4450180000000  0.5576700000000  0.4149770000000 1.0
C      1  0.6084860000000  0.5236290000000  0.4592980000000 1.0
C      1  0.5909030000000  0.4382580000000  0.4620960000000 1.0
C      1  0.5379950000000  0.5545630000000  0.4828020000000 1.0
C      1  0.5956300000000  0.4505550000000  0.5652010000000 1.0
C      1  0.4999880000000  0.4413310000000  0.4838330000000 1.0
C      1  0.5616790000000  0.5958680000000  0.4831630000000 1.0
C      1  0.4384920000000  0.5144300000000  0.4616270000000 1.0
C      1  0.5492800000000  0.5979690000000  0.5101290000000 1.0
C      1  0.4714770000000  0.6392030000000  0.5512620000000 1.0
C      1  0.6005270000000  0.5510550000000  0.5216840000000 1.0
C      1  0.4563420000000  0.4511420000000  0.4363740000000 1.0
C      1  0.4380830000000  0.6214830000000  0.4973610000000 1.0
C      1  0.5448800000000  0.4290570000000  0.5563810000000 1.0
C      1  0.5969100000000  0.5069680000000  0.4788990000000 1.0
C      1  0.5615720000000  0.4667870000000  0.5336270000000 1.0
C      1  0.4728960000000  0.5126140000000  0.5451940000000 1.0
C      1  0.4558720000000  0.4754100000000  0.4845330000000 1.0
C      1  0.4142580000000  0.5098790000000  0.4738800000000 1.0
C      1  0.3931620000000  0.4762050000000  0.5678590000000 1.0
C      1  0.5332800000000  0.4630240000000  0.4265280000000 1.0
C      1  0.5510180000000  0.5538260000000  0.4100480000000 1.0
C      1  0.3805570000000  0.4425430000000  0.5374310000000 1.0
C      1  0.4451670000000  0.4974830000000  0.4167330000000 1.0
C      1  0.5970830000000  0.5421550000000  0.4408030000000 1.0
C      1  0.4487180000000  0.5396610000000  0.4625480000000 1.0
C      1  0.4652040000000  0.4586940000000  0.5702300000000 1.0
C      1  0.5405410000000  0.6032290000000  0.4636640000000 1.0
C      1  0.5112280000000  0.5205310000000  0.5968860000000 1.0
C      1  0.6190110000000  0.5282770000000  0.3993500000000 1.0
C      1  0.5502420000000  0.4446500000000  0.4404270000000 1.0
C      1  0.5056680000000  0.5707430000000  0.5156310000000 1.0
C      1  0.5273980000000  0.5229140000000  0.3819890000000 1.0
C      1  0.5933510000000  0.4587260000000  0.4835970000000 1.0
C      1  0.5029790000000  0.5670360000000  0.4045250000000 1.0
C      1  0.5620360000000  0.5975130000000  0.5350830000000 1.0
C      1  0.4868760000000  0.3929320000000  0.4706840000000 1.0
C      1  0.4806170000000  0.4079440000000  0.4456330000000 1.0
C      1  0.4494350000000  0.4949190000000  0.5438710000000 1.0
C      1  0.4277260000000  0.5667630000000  0.5150590000000 1.0
C      1  0.4543500000000  0.4117620000000  0.5386820000000 1.0
C      1  0.4479800000000  0.4959570000000  0.4441140000000 1.0
C      1  0.5586390000000  0.4950510000000  0.5265950000000 1.0
C      1  0.4061050000000  0.5022770000000  0.5670050000000 1.0
C      1  0.5594300000000  0.3890950000000  0.4726790000000 1.0
C      1  0.4406410000000  0.3949190000000  0.4796480000000 1.0
C      1  0.4357900000000  0.4596220000000  0.4980410000000 1.0
C      1  0.3869900000000  0.5232870000000  0.5081400000000 1.0
C      1  0.5791900000000  0.4651220000000  0.5833630000000 1.0
C      1  0.4557450000000  0.4719910000000  0.4562500000000 1.0
C      1  0.5399740000000  0.5272420000000  0.6000330000000 1.0
C      1  0.5378090000000  0.5906470000000  0.4379950000000 1.0
C      1  0.4019720000000  0.5285500000000  0.4314920000000 1.0
C      1  0.4837800000000  0.5487720000000  0.5164180000000 1.0
C      1  0.5710230000000  0.5354560000000  0.3998980000000 1.0
C      1  0.4560810000000  0.4234980000000  0.4439770000000 1.0
C      1  0.5961760000000  0.5349340000000  0.4128400000000 1.0
C      1  0.5563710000000  0.4086910000000  0.5174380000000 1.0
C      1  0.5492040000000  0.5134270000000  0.4624220000000 1.0
C      1  0.5526940000000  0.4779800000000  0.4111300000000 1.0
C      1  0.4666070000000  0.3960920000000  0.4911070000000 1.0
C      1  0.4938720000000  0.4042730000000  0.5702250000000 1.0
C      1  0.5644080000000  0.5840670000000  0.5582570000000 1.0
C      1  0.4755450000000  0.5550880000000  0.4088440000000 1.0
C      1  0.5114980000000  0.4677550000000  0.5418710000000 1.0
C      1  0.5038480000000  0.3849630000000  0.5516990000000 1.0
C      1  0.5078520000000  0.4643920000000  0.4384920000000 1.0
C      1  0.4603280000000  0.4670210000000  0.5417760000000 1.0
C      1  0.4341530000000  0.4991790000000  0.5694130000000 1.0
C      1  0.5114650000000  0.3750160000000  0.5279240000000 1.0
C      1  0.4284970000000  0.4390650000000  0.5907530000000 1.0
C      1  0.5801370000000  0.5641370000000  0.4497210000000 1.0
C      1  0.5365230000000  0.4300250000000  0.5113590000000 1.0
C      1  0.4961800000000  0.5112140000000  0.4242570000000 1.0
C      1  0.4784050000000  0.5934240000000  0.4573040000000 1.0
C      1  0.5829410000000  0.4451830000000  0.5403670000000 1.0
C      1  0.4556280000000  0.6174340000000  0.5472150000000 1.0
C      1  0.5286560000000  0.5567170000000  0.5271510000000 1.0
C      1  0.4298490000000  0.4280770000000  0.5361430000000 1.0
C      1  0.5272070000000  0.5532830000000  0.5551370000000 1.0
C      1  0.4619750000000  0.5018040000000  0.4980850000000 1.0
C      1  0.3751400000000  0.5296620000000  0.4816960000000 1.0
C      1  0.5118590000000  0.5537060000000  0.4721350000000 1.0
C      1  0.5659150000000  0.4624330000000  0.4909250000000 1.0
C      1  0.6056740000000  0.4836700000000  0.4944240000000 1.0
C      1  0.5229420000000  0.4646960000000  0.6277590000000 1.0
C      1  0.5386700000000  0.4313390000000  0.5832630000000 1.0
C      1  0.4303230000000  0.5610520000000  0.4627990000000 1.0
C      1  0.4541260000000  0.5940880000000  0.5653870000000 1.0
C      1  0.4389280000000  0.6159820000000  0.4707500000000 1.0
C      1  0.4371680000000  0.5764930000000  0.4386860000000 1.0
C      1  0.5220930000000  0.5186450000000  0.5539350000000 1.0
C      1  0.5023530000000  0.4639400000000  0.4663590000000 1.0
C      1  0.4396890000000  0.4526380000000  0.5248910000000 1.0
C      1  0.5120040000000  0.3801040000000  0.4762090000000 1.0
C      1  0.4706980000000  0.4132060000000  0.5140340000000 1.0
C      1  0.5191500000000  0.5961700000000  0.5058260000000 1.0
C      1  0.5221160000000  0.5078270000000  0.4692910000000 1.0
C      1  0.5446570000000  0.5430990000000  0.5086390000000 1.0
C      1  0.5055130000000  0.5807410000000  0.5638590000000 1.0
C      1  0.5415630000000  0.4724200000000  0.4913710000000 1.0
C      1  0.5338370000000  0.3841590000000  0.4562950000000 1.0
C      1  0.5483330000000  0.4568210000000  0.6230330000000 1.0
C      1  0.4457260000000  0.5045380000000  0.5943930000000 1.0
C      1  0.6074010000000  0.4882920000000  0.5240090000000 1.0
C      1  0.5189850000000  0.4824790000000  0.4792290000000 1.0
C      1  0.5058330000000  0.4743080000000  0.6093440000000 1.0
C      1  0.4853150000000  0.4382640000000  0.5085540000000 1.0
C      1  0.5502840000000  0.5632520000000  0.5707590000000 1.0
C      1  0.5684990000000  0.4194080000000  0.5412250000000 1.0
C      1  0.5705810000000  0.4154050000000  0.4678550000000 1.0
C      1  0.5006560000000  0.4109010000000  0.4249160000000 1.0
C      1  0.4950260000000  0.4310820000000  0.4043460000000 1.0
C      1  0.5245280000000  0.3957010000000  0.4313460000000 1.0
C      1  0.4933820000000  0.6147000000000  0.4672650000000 1.0
C      1  0.4783110000000  0.5790040000000  0.5705370000000 1.0
C      1  0.5572330000000  0.4497860000000  0.5971060000000 1.0
C      1  0.3999620000000  0.5297890000000  0.5577030000000 1.0
C      1  0.5171710000000  0.6092550000000  0.4798900000000 1.0
C      1  0.5348980000000  0.4497810000000  0.5357930000000 1.0
C      1  0.4121350000000  0.4305660000000  0.4649650000000 1.0
C      1  0.4551710000000  0.4347710000000  0.5813560000000 1.0
C      1  0.4851210000000  0.5342230000000  0.5929700000000 1.0
C      1  0.4681710000000  0.5415430000000  0.5421300000000 1.0
C      1  0.4335550000000  0.4133110000000  0.4590810000000 1.0
C      1  0.4831950000000  0.4569240000000  0.3958140000000 1.0
C      1  0.5131620000000  0.4180990000000  0.5874020000000 1.0
C      1  0.4750020000000  0.5505690000000  0.5706290000000 1.0
C      1  0.4078830000000  0.4496220000000  0.5739560000000 1.0
C      1  0.5979260000000  0.5043200000000  0.5475470000000 1.0
C      1  0.5143310000000  0.4911420000000  0.5597960000000 1.0
C      1  0.5143890000000  0.5888420000000  0.4204940000000 1.0
C      1  0.5517190000000  0.3857240000000  0.5011730000000 1.0
C      1  0.5789320000000  0.4706580000000  0.4171370000000 1.0
C      1  0.5575550000000  0.5705990000000  0.4321280000000 1.0
C      1  0.5565360000000  0.5191730000000  0.3810890000000 1.0
C      1  0.4870380000000  0.4593800000000  0.5288370000000 1.0
C      1  0.5084710000000  0.4924740000000  0.5882800000000 1.0
C      1  0.3738200000000  0.4673710000000  0.5477810000000 1.0
C      1  0.5238550000000  0.3761820000000  0.5026530000000 1.0
C      1  0.4825510000000  0.5244980000000  0.4977020000000 1.0
C      1  0.4974930000000  0.4772850000000  0.3816660000000 1.0
C      1  0.4136760000000  0.4501130000000  0.4834030000000 1.0
C      1  0.3925350000000  0.5223940000000  0.4590540000000 1.0
C      1  0.5960770000000  0.5643550000000  0.4984790000000 1.0
C      1  0.5584300000000  0.5179380000000  0.5088650000000 1.0
C      1  0.4735600000000  0.5452190000000  0.4521970000000 1.0
C      1  0.4893600000000  0.5672460000000  0.4610810000000 1.0
C      1  0.4208420000000  0.5672180000000  0.4881360000000 1.0
C      1  0.5994740000000  0.5323460000000  0.5413680000000 1.0
END
