TITL C-612600-6631-353 -15.8558814605163 125000 -147.060541210776 0 0 26 (C1) n - 1
REM
REM in /home/nfs/bkarasulu/CARBON/AIRSS/Generating-Clusters/TERSOFF/Only-C1/FIRE-HFTN
REM
REM
REM
REM
REM
REM ./C.cell (11c1c37f851c82e70ff6c80c92926a4b)
REM AIRSS Version 0.9.1 bugfix July 2018 build 013d7b7c2542+ Fri, 06 Jul 2018 19:26:36 +0100
REM compiler GCC version 9.2.1 20190827 (Red Hat 9.2.1-1)
REM options -cpp -mtune=generic -march=x86-64 -g -O0 -fpre-include=/usr/include/finclude/math-vector-fortran.h
REM seed -864322581 -109931112 1739630679 1675917382 -1236567442 1570122337 -1092475032 -1698680566 -294598644 1941176406 894289331 -1533319373 2034476743 2105131241 -562228760 -10882234 1756251600 659610387 -575177708 433431890 32612589 -1919122064 -1164649873 -176274571 1747987075 -402889124 385300303 1436115776 826645401 122740155 -826864058 1472477587 -1687959973
REM
CELL 1.54180   50.00000   50.00000   50.00000   90.00000   90.00000   90.00000
LATT -1
SFAC C  
C      1  0.5542880000000  0.4872570000000  0.4719210000000 1.0
C      1  0.5309860000000  0.4800470000000  0.4856560000000 1.0
C      1  0.4321310000000  0.5606280000000  0.5620820000000 1.0
C      1  0.5201160000000  0.4970170000000  0.5049700000000 1.0
C      1  0.4394630000000  0.4166290000000  0.4815010000000 1.0
C      1  0.4589420000000  0.5593380000000  0.5673420000000 1.0
C      1  0.5017760000000  0.6158400000000  0.6475110000000 1.0
C      1  0.4603750000000  0.4850900000000  0.4703440000000 1.0
C      1  0.5746770000000  0.4832070000000  0.4251740000000 1.0
C      1  0.4914520000000  0.5279360000000  0.5369830000000 1.0
C      1  0.5066660000000  0.5126120000000  0.5216260000000 1.0
C      1  0.4540680000000  0.4372960000000  0.4752790000000 1.0
C      1  0.5629010000000  0.4710960000000  0.4044650000000 1.0
C      1  0.5175170000000  0.4504760000000  0.4112700000000 1.0
C      1  0.4756410000000  0.5431860000000  0.5517830000000 1.0
C      1  0.5400820000000  0.4581730000000  0.3993230000000 1.0
C      1  0.5029140000000  0.4497250000000  0.4334790000000 1.0
C      1  0.4703080000000  0.4590410000000  0.4687040000000 1.0
C      1  0.4971020000000  0.4546450000000  0.4604090000000 1.0
C      1  0.4523230000000  0.5097570000000  0.4727730000000 1.0
C      1  0.5180960000000  0.4553590000000  0.4796490000000 1.0
C      1  0.4806070000000  0.5881220000000  0.6081680000000 1.0
C      1  0.4699610000000  0.5741570000000  0.5883370000000 1.0
C      1  0.4912800000000  0.6020940000000  0.6280040000000 1.0
C      1  0.5704780000000  0.4889030000000  0.4508870000000 1.0
C      1  0.5258510000000  0.4323710000000  0.4923600000000 1.0
END
