TITL C-612603-7354-447 -0.367213826769727 125000 -525.814902644052 0 0 87 (C1) n - 1
REM
REM in /home/nfs/bkarasulu/CARBON/AIRSS/Generating-Clusters/TERSOFF/Only-C1/FIRE-HFTN
REM
REM
REM
REM
REM
REM ./C.cell (11c1c37f851c82e70ff6c80c92926a4b)
REM AIRSS Version 0.9.1 bugfix July 2018 build 013d7b7c2542+ Fri, 06 Jul 2018 19:26:36 +0100
REM compiler GCC version 9.2.1 20190827 (Red Hat 9.2.1-1)
REM options -cpp -mtune=generic -march=x86-64 -g -O0 -fpre-include=/usr/include/finclude/math-vector-fortran.h
REM seed -143563280 278945859 -65498194 -573424485 -1269705085 1664336226 -851506638 544694972 1392056485 242586142 -1859533152 -1952077159 1775649209 -1976458921 1837584906 -1603224562 1252957964 613479974 -1914718695 1962519285 1449843276 -1843361618 -429664594 859180074 -1106488000 1805228867 841861466 1094763264 -1015778470 -1732698650 1393279931 -86131466 -153802584
REM
CELL 1.54180   50.00000   50.00000   50.00000   90.00000   90.00000   90.00000
LATT -1
SFAC C  
C      1  0.4426590000000  0.4454490000000  0.5284440000000 1.0
C      1  0.5119330000000  0.5732900000000  0.4765560000000 1.0
C      1  0.5551330000000  0.4134940000000  0.5097810000000 1.0
C      1  0.4729790000000  0.5017540000000  0.4557250000000 1.0
C      1  0.4572530000000  0.4711980000000  0.4126270000000 1.0
C      1  0.5090560000000  0.4077040000000  0.5306000000000 1.0
C      1  0.5295670000000  0.4875840000000  0.4363180000000 1.0
C      1  0.4986260000000  0.4445970000000  0.5590770000000 1.0
C      1  0.4373330000000  0.5639110000000  0.5770530000000 1.0
C      1  0.5143110000000  0.4664610000000  0.5685300000000 1.0
C      1  0.5939800000000  0.5212040000000  0.5011080000000 1.0
C      1  0.5428390000000  0.4780020000000  0.5674840000000 1.0
C      1  0.5147780000000  0.4311250000000  0.4899240000000 1.0
C      1  0.5763330000000  0.5342930000000  0.5187220000000 1.0
C      1  0.4849180000000  0.5735660000000  0.5217510000000 1.0
C      1  0.4839210000000  0.5037760000000  0.4290930000000 1.0
C      1  0.4218830000000  0.4790750000000  0.4975560000000 1.0
C      1  0.6017770000000  0.4976900000000  0.4904540000000 1.0
C      1  0.5104960000000  0.5467980000000  0.6003540000000 1.0
C      1  0.4176730000000  0.4765520000000  0.4462910000000 1.0
C      1  0.4197200000000  0.5185390000000  0.4746320000000 1.0
C      1  0.5773110000000  0.4282260000000  0.5061860000000 1.0
C      1  0.5501130000000  0.4255090000000  0.4289550000000 1.0
C      1  0.5238350000000  0.5463120000000  0.5733480000000 1.0
C      1  0.4324180000000  0.5259210000000  0.4999300000000 1.0
C      1  0.5480410000000  0.5346760000000  0.5156310000000 1.0
C      1  0.4640370000000  0.5600360000000  0.4819290000000 1.0
C      1  0.4413950000000  0.5515690000000  0.3513230000000 1.0
C      1  0.5513070000000  0.4721480000000  0.4474490000000 1.0
C      1  0.4337310000000  0.5691800000000  0.3336950000000 1.0
C      1  0.4885220000000  0.4253630000000  0.5400850000000 1.0
C      1  0.4314120000000  0.4684500000000  0.4244780000000 1.0
C      1  0.5158380000000  0.4211540000000  0.4638910000000 1.0
C      1  0.4456480000000  0.5636770000000  0.5519050000000 1.0
C      1  0.4908110000000  0.5092530000000  0.5612200000000 1.0
C      1  0.4450980000000  0.4938230000000  0.5395010000000 1.0
C      1  0.4480930000000  0.5489930000000  0.5033980000000 1.0
C      1  0.5343560000000  0.5156550000000  0.4361390000000 1.0
C      1  0.4847680000000  0.5615900000000  0.4387810000000 1.0
C      1  0.4651020000000  0.4285570000000  0.4691830000000 1.0
C      1  0.5090000000000  0.5236000000000  0.6145560000000 1.0
C      1  0.5171510000000  0.5003190000000  0.6009560000000 1.0
C      1  0.5287170000000  0.5410000000000  0.4421940000000 1.0
C      1  0.5037820000000  0.4555070000000  0.5004280000000 1.0
C      1  0.5853040000000  0.5408560000000  0.5446410000000 1.0
C      1  0.5620240000000  0.4776390000000  0.4733900000000 1.0
C      1  0.5603020000000  0.4500700000000  0.4325550000000 1.0
C      1  0.4491960000000  0.5336850000000  0.3692630000000 1.0
C      1  0.5026470000000  0.4799600000000  0.4281790000000 1.0
C      1  0.4711850000000  0.4515840000000  0.4536130000000 1.0
C      1  0.5296470000000  0.4142550000000  0.4421310000000 1.0
C      1  0.5240610000000  0.5296210000000  0.5270330000000 1.0
C      1  0.5877220000000  0.4732650000000  0.4865980000000 1.0
C      1  0.5344460000000  0.5878080000000  0.4841470000000 1.0
C      1  0.4570320000000  0.5160310000000  0.3873860000000 1.0
C      1  0.5270650000000  0.4143310000000  0.5099020000000 1.0
C      1  0.5042230000000  0.5810700000000  0.5406450000000 1.0
C      1  0.5103660000000  0.5281300000000  0.5520580000000 1.0
C      1  0.5574820000000  0.4775500000000  0.5427040000000 1.0
C      1  0.5405760000000  0.4815990000000  0.5200720000000 1.0
C      1  0.4807550000000  0.4583140000000  0.4270480000000 1.0
C      1  0.4323290000000  0.5008530000000  0.5150290000000 1.0
C      1  0.5497620000000  0.5289370000000  0.5786270000000 1.0
C      1  0.5215080000000  0.5728970000000  0.5598000000000 1.0
C      1  0.5105260000000  0.5604280000000  0.4507820000000 1.0
C      1  0.4652150000000  0.4990000000000  0.4074220000000 1.0
C      1  0.4713530000000  0.4764590000000  0.4688240000000 1.0
C      1  0.5432570000000  0.5014130000000  0.5862580000000 1.0
C      1  0.5556820000000  0.6006390000000  0.4921180000000 1.0
C      1  0.4162720000000  0.4897970000000  0.4710190000000 1.0
C      1  0.4442200000000  0.4664140000000  0.5472010000000 1.0
C      1  0.4248690000000  0.4526560000000  0.5070970000000 1.0
C      1  0.4317820000000  0.5622270000000  0.6029140000000 1.0
C      1  0.4888490000000  0.5713300000000  0.4931770000000 1.0
C      1  0.4648970000000  0.4196600000000  0.4949840000000 1.0
C      1  0.4623170000000  0.5601360000000  0.4539280000000 1.0
C      1  0.5823360000000  0.4663310000000  0.5350240000000 1.0
C      1  0.4999210000000  0.4893980000000  0.5800470000000 1.0
C      1  0.5744220000000  0.5376510000000  0.5689130000000 1.0
C      1  0.4646100000000  0.4279050000000  0.5227890000000 1.0
C      1  0.5870160000000  0.4546100000000  0.5090240000000 1.0
C      1  0.4825880000000  0.4720500000000  0.4934480000000 1.0
C      1  0.4272430000000  0.5600370000000  0.6284920000000 1.0
C      1  0.5176780000000  0.4664930000000  0.5215070000000 1.0
C      1  0.5460740000000  0.4896570000000  0.4936610000000 1.0
C      1  0.4647600000000  0.5091650000000  0.5516970000000 1.0
C      1  0.4588300000000  0.5615070000000  0.5276140000000 1.0
END
