TITL C-612604-1799-171 123.193299137126 125000 -789.044720361775 0 0 129 (C1) n - 1
REM
REM in /home/nfs/bkarasulu/CARBON/AIRSS/Generating-Clusters/TERSOFF/Only-C1/FIRE-HFTN
REM
REM
REM
REM
REM
REM ./C.cell (11c1c37f851c82e70ff6c80c92926a4b)
REM AIRSS Version 0.9.1 bugfix July 2018 build 013d7b7c2542+ Fri, 06 Jul 2018 19:26:36 +0100
REM compiler GCC version 9.2.1 20190827 (Red Hat 9.2.1-1)
REM options -cpp -mtune=generic -march=x86-64 -g -O0 -fpre-include=/usr/include/finclude/math-vector-fortran.h
REM seed 1619970503 184831482 -158220247 -1662539968 -486639236 1022213550 161530327 146983982 1294717307 1737832890 -1108249118 -1227760006 519062871 -52385608 -539914040 1738538146 -1463413036 731137396 -1677414786 -470535883 2089312118 360124315 -2012471456 -1152524682 -1418067712 1178892091 237431741 1722596692 -1541347464 1636639863 172034543 -1728236269 921506609
REM
CELL 1.54180   50.00000   50.00000   50.00000   90.00000   90.00000   90.00000
LATT -1
SFAC C  
C      1  0.5547530000000  0.5427160000000  0.4771970000000 1.0
C      1  0.4402290000000  0.4869170000000  0.4985810000000 1.0
C      1  0.5383940000000  0.3955110000000  0.5608630000000 1.0
C      1  0.4462410000000  0.4578990000000  0.4970160000000 1.0
C      1  0.5601120000000  0.6031270000000  0.5303890000000 1.0
C      1  0.4248420000000  0.4387540000000  0.4945570000000 1.0
C      1  0.4656970000000  0.5918700000000  0.4935160000000 1.0
C      1  0.4170410000000  0.5337180000000  0.4743750000000 1.0
C      1  0.5692630000000  0.4914870000000  0.5548660000000 1.0
C      1  0.4591180000000  0.4243580000000  0.4419980000000 1.0
C      1  0.4259100000000  0.5549300000000  0.5366050000000 1.0
C      1  0.5076780000000  0.5671280000000  0.4919760000000 1.0
C      1  0.5486020000000  0.4660920000000  0.4066320000000 1.0
C      1  0.4928560000000  0.5280810000000  0.4027390000000 1.0
C      1  0.4309660000000  0.4517770000000  0.5709000000000 1.0
C      1  0.4633650000000  0.5066520000000  0.5067220000000 1.0
C      1  0.4661000000000  0.5363380000000  0.5130150000000 1.0
C      1  0.4122520000000  0.5216070000000  0.5858700000000 1.0
C      1  0.5162020000000  0.4083440000000  0.5722390000000 1.0
C      1  0.4872890000000  0.4356550000000  0.5165860000000 1.0
C      1  0.5124310000000  0.4491370000000  0.5223120000000 1.0
C      1  0.5017860000000  0.4544440000000  0.4187410000000 1.0
C      1  0.5316140000000  0.5067850000000  0.5897480000000 1.0
C      1  0.4163350000000  0.5065600000000  0.5627260000000 1.0
C      1  0.5941580000000  0.5322910000000  0.4449680000000 1.0
C      1  0.4887400000000  0.4577090000000  0.4417390000000 1.0
C      1  0.4940420000000  0.5946430000000  0.4925510000000 1.0
C      1  0.4264770000000  0.4111810000000  0.4968340000000 1.0
C      1  0.5288690000000  0.4517980000000  0.4989270000000 1.0
C      1  0.4416390000000  0.3918080000000  0.5070210000000 1.0
C      1  0.4799170000000  0.5346800000000  0.5768280000000 1.0
C      1  0.4643110000000  0.3926470000000  0.5210260000000 1.0
C      1  0.5198060000000  0.5607690000000  0.5810310000000 1.0
C      1  0.5071270000000  0.5524250000000  0.4101630000000 1.0
C      1  0.5738380000000  0.5811820000000  0.5402030000000 1.0
C      1  0.6071920000000  0.4845110000000  0.4985090000000 1.0
C      1  0.4058170000000  0.5336550000000  0.6080700000000 1.0
C      1  0.6006040000000  0.4586280000000  0.4955020000000 1.0
C      1  0.4929660000000  0.4086310000000  0.5565500000000 1.0
C      1  0.5228850000000  0.5714430000000  0.4577930000000 1.0
C      1  0.5655120000000  0.5537400000000  0.5366000000000 1.0
C      1  0.5038560000000  0.5452520000000  0.5646540000000 1.0
C      1  0.4789260000000  0.5072090000000  0.4803610000000 1.0
C      1  0.5817340000000  0.5313850000000  0.5273720000000 1.0
C      1  0.4538710000000  0.4640890000000  0.4103620000000 1.0
C      1  0.4966680000000  0.4858950000000  0.4764170000000 1.0
C      1  0.4016530000000  0.5194360000000  0.4941790000000 1.0
C      1  0.5498790000000  0.3873530000000  0.5382230000000 1.0
C      1  0.4407860000000  0.5487810000000  0.5134230000000 1.0
C      1  0.4238590000000  0.5182310000000  0.4511740000000 1.0
C      1  0.5091110000000  0.4142500000000  0.4644730000000 1.0
C      1  0.4719470000000  0.5111550000000  0.4064580000000 1.0
C      1  0.5690780000000  0.5887850000000  0.4614920000000 1.0
C      1  0.3944900000000  0.4922200000000  0.5518350000000 1.0
C      1  0.4812220000000  0.4122560000000  0.5314620000000 1.0
C      1  0.4465770000000  0.4674450000000  0.5863840000000 1.0
C      1  0.5123770000000  0.4463900000000  0.6090040000000 1.0
C      1  0.5412090000000  0.5931110000000  0.4579600000000 1.0
C      1  0.4320870000000  0.5550070000000  0.4868700000000 1.0
C      1  0.4601090000000  0.4898940000000  0.5929880000000 1.0
C      1  0.5537890000000  0.4983290000000  0.5070150000000 1.0
C      1  0.4813930000000  0.5089600000000  0.5909950000000 1.0
C      1  0.4422900000000  0.5683290000000  0.5556820000000 1.0
C      1  0.4318890000000  0.4946100000000  0.4373600000000 1.0
C      1  0.5090320000000  0.5282390000000  0.4493260000000 1.0
C      1  0.4949620000000  0.5760390000000  0.4003440000000 1.0
C      1  0.5375450000000  0.5532340000000  0.5295190000000 1.0
C      1  0.4433370000000  0.4471360000000  0.4321140000000 1.0
C      1  0.5241620000000  0.4558650000000  0.4045590000000 1.0
C      1  0.5072170000000  0.4724300000000  0.6113660000000 1.0
C      1  0.3878000000000  0.5343650000000  0.5139490000000 1.0
C      1  0.5372320000000  0.6006790000000  0.5136820000000 1.0
C      1  0.5523720000000  0.5067330000000  0.4338320000000 1.0
C      1  0.5895510000000  0.5786740000000  0.4758220000000 1.0
C      1  0.5981880000000  0.4329280000000  0.4839560000000 1.0
C      1  0.4655850000000  0.4970830000000  0.5357650000000 1.0
C      1  0.5401190000000  0.4776690000000  0.4929790000000 1.0
C      1  0.4573850000000  0.5520140000000  0.5735400000000 1.0
C      1  0.5300890000000  0.6170070000000  0.4694960000000 1.0
C      1  0.4539120000000  0.5704390000000  0.4767100000000 1.0
C      1  0.4926610000000  0.5475440000000  0.5130140000000 1.0
C      1  0.5694210000000  0.5048580000000  0.5300780000000 1.0
C      1  0.5997040000000  0.5344870000000  0.5043120000000 1.0
C      1  0.5164210000000  0.5529220000000  0.4377180000000 1.0
C      1  0.4005610000000  0.4519800000000  0.4878190000000 1.0
C      1  0.4669890000000  0.5550420000000  0.4561420000000 1.0
C      1  0.4894210000000  0.4579070000000  0.4718310000000 1.0
C      1  0.4702470000000  0.5809590000000  0.4104100000000 1.0
C      1  0.5308330000000  0.3968380000000  0.4693560000000 1.0
C      1  0.4826560000000  0.5297060000000  0.4620550000000 1.0
C      1  0.5535000000000  0.5021940000000  0.5754150000000 1.0
C      1  0.5321890000000  0.5725530000000  0.5089520000000 1.0
C      1  0.5700940000000  0.5289570000000  0.4329860000000 1.0
C      1  0.5536330000000  0.3993040000000  0.4864240000000 1.0
C      1  0.5176540000000  0.6128600000000  0.4950210000000 1.0
C      1  0.5068270000000  0.4979710000000  0.5992930000000 1.0
C      1  0.4122870000000  0.4490940000000  0.5513860000000 1.0
C      1  0.5501140000000  0.5222850000000  0.4922110000000 1.0
C      1  0.6009010000000  0.5601520000000  0.4918090000000 1.0
C      1  0.5902340000000  0.4762660000000  0.4307400000000 1.0
C      1  0.4824900000000  0.4121650000000  0.4515250000000 1.0
C      1  0.4524800000000  0.4928740000000  0.4158720000000 1.0
C      1  0.5242800000000  0.4898260000000  0.4717410000000 1.0
C      1  0.3963130000000  0.4679760000000  0.5371000000000 1.0
C      1  0.4608170000000  0.5659060000000  0.4307020000000 1.0
C      1  0.4724700000000  0.4482890000000  0.4950120000000 1.0
C      1  0.5837570000000  0.4686620000000  0.5587680000000 1.0
C      1  0.6431830000000  0.4107530000000  0.4636720000000 1.0
C      1  0.5741410000000  0.4182860000000  0.4817790000000 1.0
C      1  0.6097090000000  0.4879630000000  0.4453050000000 1.0
C      1  0.6214920000000  0.4211190000000  0.4737330000000 1.0
C      1  0.5099580000000  0.4693090000000  0.5415250000000 1.0
C      1  0.4419600000000  0.5026740000000  0.5509100000000 1.0
C      1  0.6073850000000  0.5111530000000  0.4885090000000 1.0
C      1  0.5532150000000  0.3872110000000  0.5118060000000 1.0
C      1  0.4896990000000  0.4864060000000  0.5447740000000 1.0
C      1  0.3959910000000  0.4716270000000  0.5086000000000 1.0
C      1  0.5289020000000  0.5074760000000  0.4502460000000 1.0
C      1  0.4237470000000  0.4664950000000  0.4444040000000 1.0
C      1  0.4122560000000  0.4941610000000  0.5005710000000 1.0
C      1  0.3984110000000  0.5494070000000  0.5339440000000 1.0
C      1  0.4012270000000  0.4595660000000  0.4603290000000 1.0
C      1  0.5108030000000  0.5440720000000  0.5368950000000 1.0
C      1  0.5171420000000  0.4240450000000  0.5953350000000 1.0
C      1  0.5140250000000  0.4400430000000  0.4763760000000 1.0
C      1  0.6080780000000  0.5124830000000  0.4597000000000 1.0
C      1  0.5636940000000  0.4824170000000  0.4233280000000 1.0
C      1  0.4545070000000  0.6001780000000  0.5184620000000 1.0
C      1  0.4512540000000  0.5930470000000  0.5445160000000 1.0
END
