TITL C-612602-9376-1277 0.00208348553064756 125000 -879.98289837028 0 0 144 (C1) n - 1
REM
REM in /home/nfs/bkarasulu/CARBON/AIRSS/Generating-Clusters/TERSOFF/Only-C1/FIRE-HFTN
REM
REM
REM
REM
REM
REM ./C.cell (11c1c37f851c82e70ff6c80c92926a4b)
REM AIRSS Version 0.9.1 bugfix July 2018 build 013d7b7c2542+ Fri, 06 Jul 2018 19:26:36 +0100
REM compiler GCC version 9.2.1 20190827 (Red Hat 9.2.1-1)
REM options -cpp -mtune=generic -march=x86-64 -g -O0 -fpre-include=/usr/include/finclude/math-vector-fortran.h
REM seed -1072062940 2067810862 944605905 1040928271 1738876520 -910812771 104795848 1684616450 434847895 -1801860071 2061981823 -165335155 -791782962 -1136284801 -2062306060 -823187535 1488918548 -2030779930 774762563 625955456 1036691395 170205669 427264324 1683439496 432222938 -600236036 -920055659 529265667 1274746087 1642565812 1338883422 1179665228 -1892675812
REM
CELL 1.54180   50.00000   50.00000   50.00000   90.00000   90.00000   90.00000
LATT -1
SFAC C  
C      1  0.5605170000000  0.4960970000000  0.5316310000000 1.0
C      1  0.5227280000000  0.5560310000000  0.5321280000000 1.0
C      1  0.5217900000000  0.5540340000000  0.5037040000000 1.0
C      1  0.4082340000000  0.4438150000000  0.5069040000000 1.0
C      1  0.5613830000000  0.5499120000000  0.5619430000000 1.0
C      1  0.4246740000000  0.5542650000000  0.4850140000000 1.0
C      1  0.5872130000000  0.5315980000000  0.4897100000000 1.0
C      1  0.5122340000000  0.3922090000000  0.5223280000000 1.0
C      1  0.4125930000000  0.4954200000000  0.5631110000000 1.0
C      1  0.5178590000000  0.5235240000000  0.4716130000000 1.0
C      1  0.4584820000000  0.5332830000000  0.5188780000000 1.0
C      1  0.5034890000000  0.5534060000000  0.5939050000000 1.0
C      1  0.5594300000000  0.5018990000000  0.4652340000000 1.0
C      1  0.4760500000000  0.4885020000000  0.6127820000000 1.0
C      1  0.5610530000000  0.5206850000000  0.4879220000000 1.0
C      1  0.5619570000000  0.4823400000000  0.4014010000000 1.0
C      1  0.4249920000000  0.4702830000000  0.5553890000000 1.0
C      1  0.4239910000000  0.4891930000000  0.5117740000000 1.0
C      1  0.6182330000000  0.4853340000000  0.4956800000000 1.0
C      1  0.4895110000000  0.3878010000000  0.4778120000000 1.0
C      1  0.4767290000000  0.4162150000000  0.5420520000000 1.0
C      1  0.5022490000000  0.5239070000000  0.3935970000000 1.0
C      1  0.5632740000000  0.4362990000000  0.4994480000000 1.0
C      1  0.5005580000000  0.4930300000000  0.5098320000000 1.0
C      1  0.4843310000000  0.4921620000000  0.4256260000000 1.0
C      1  0.5980040000000  0.5203580000000  0.5490700000000 1.0
C      1  0.5468640000000  0.4229150000000  0.4791270000000 1.0
C      1  0.5076890000000  0.4003120000000  0.4956750000000 1.0
C      1  0.5929040000000  0.5754220000000  0.4732620000000 1.0
C      1  0.5709060000000  0.4335550000000  0.5268400000000 1.0
C      1  0.4304090000000  0.5183920000000  0.5623280000000 1.0
C      1  0.5100650000000  0.5131830000000  0.5682440000000 1.0
C      1  0.3830150000000  0.5106330000000  0.4534830000000 1.0
C      1  0.5026290000000  0.4111200000000  0.4372540000000 1.0
C      1  0.4064550000000  0.5334240000000  0.4939350000000 1.0
C      1  0.5220010000000  0.5332610000000  0.5848430000000 1.0
C      1  0.5502990000000  0.4267700000000  0.4505940000000 1.0
C      1  0.6015560000000  0.5214710000000  0.4659680000000 1.0
C      1  0.5861480000000  0.5651260000000  0.5240110000000 1.0
C      1  0.4746990000000  0.5566100000000  0.5939070000000 1.0
C      1  0.4760220000000  0.4489360000000  0.4789090000000 1.0
C      1  0.4102690000000  0.4831280000000  0.4861410000000 1.0
C      1  0.4627990000000  0.4732870000000  0.4866280000000 1.0
C      1  0.3866650000000  0.5252410000000  0.4756790000000 1.0
C      1  0.5017850000000  0.4026540000000  0.5462870000000 1.0
C      1  0.5452820000000  0.5668240000000  0.5448210000000 1.0
C      1  0.4595110000000  0.4910620000000  0.4642550000000 1.0
C      1  0.4292240000000  0.3922170000000  0.5420740000000 1.0
C      1  0.4660490000000  0.4522890000000  0.4232870000000 1.0
C      1  0.4351570000000  0.5280450000000  0.5354230000000 1.0
C      1  0.4652890000000  0.6089840000000  0.4530160000000 1.0
C      1  0.4830110000000  0.6071150000000  0.4981690000000 1.0
C      1  0.5032120000000  0.4659700000000  0.5678660000000 1.0
C      1  0.4806950000000  0.5501780000000  0.4303640000000 1.0
C      1  0.4091300000000  0.4555690000000  0.4797500000000 1.0
C      1  0.4875150000000  0.6102910000000  0.4702240000000 1.0
C      1  0.5604590000000  0.6090620000000  0.5219650000000 1.0
C      1  0.5207720000000  0.5037130000000  0.3843110000000 1.0
C      1  0.4803830000000  0.3622940000000  0.4799890000000 1.0
C      1  0.4627220000000  0.4264790000000  0.4656430000000 1.0
C      1  0.3995940000000  0.4180500000000  0.5129310000000 1.0
C      1  0.6176430000000  0.4993650000000  0.4725180000000 1.0
C      1  0.5325500000000  0.4418360000000  0.4084140000000 1.0
C      1  0.5485000000000  0.5028670000000  0.3899650000000 1.0
C      1  0.4911180000000  0.5221190000000  0.5492370000000 1.0
C      1  0.5869500000000  0.5618600000000  0.4483410000000 1.0
C      1  0.4383680000000  0.4303750000000  0.4493200000000 1.0
C      1  0.4542610000000  0.4856700000000  0.5111730000000 1.0
C      1  0.3937740000000  0.4918030000000  0.4377250000000 1.0
C      1  0.4761000000000  0.5315310000000  0.4931390000000 1.0
C      1  0.5513900000000  0.4736750000000  0.4645470000000 1.0
C      1  0.4630510000000  0.5007540000000  0.4065700000000 1.0
C      1  0.5190690000000  0.4245460000000  0.4850700000000 1.0
C      1  0.5128710000000  0.4403570000000  0.5758040000000 1.0
C      1  0.5194610000000  0.4738570000000  0.5178850000000 1.0
C      1  0.4073120000000  0.3972220000000  0.5277070000000 1.0
C      1  0.5637640000000  0.4629960000000  0.4897400000000 1.0
C      1  0.5127840000000  0.6044750000000  0.4594350000000 1.0
C      1  0.4571430000000  0.4878430000000  0.5898710000000 1.0
C      1  0.4569240000000  0.5603390000000  0.4431110000000 1.0
C      1  0.4781260000000  0.4936260000000  0.5306590000000 1.0
C      1  0.4762110000000  0.6491710000000  0.5311830000000 1.0
C      1  0.4522570000000  0.4697780000000  0.5676120000000 1.0
C      1  0.4527020000000  0.5881110000000  0.4418280000000 1.0
C      1  0.4169990000000  0.4754040000000  0.4331350000000 1.0
C      1  0.5154420000000  0.4526420000000  0.3887250000000 1.0
C      1  0.4489090000000  0.4312770000000  0.4227490000000 1.0
C      1  0.5199670000000  0.4717760000000  0.4594190000000 1.0
C      1  0.5052630000000  0.4492330000000  0.4746110000000 1.0
C      1  0.5072610000000  0.4484740000000  0.5212070000000 1.0
C      1  0.4429740000000  0.5451550000000  0.4633080000000 1.0
C      1  0.5888340000000  0.4926830000000  0.5416710000000 1.0
C      1  0.4986850000000  0.5120300000000  0.4893800000000 1.0
C      1  0.5105900000000  0.4773720000000  0.3786800000000 1.0
C      1  0.5841400000000  0.5332550000000  0.4439010000000 1.0
C      1  0.5225530000000  0.5225140000000  0.4414100000000 1.0
C      1  0.4999790000000  0.4746630000000  0.6183880000000 1.0
C      1  0.4936830000000  0.5583790000000  0.4944080000000 1.0
C      1  0.4279520000000  0.5749130000000  0.5049120000000 1.0
C      1  0.5635450000000  0.5831270000000  0.5291500000000 1.0
C      1  0.4824720000000  0.5808340000000  0.5083500000000 1.0
C      1  0.5582780000000  0.5187180000000  0.4421900000000 1.0
C      1  0.5343750000000  0.5615250000000  0.4418880000000 1.0
C      1  0.5284160000000  0.5856150000000  0.4489200000000 1.0
C      1  0.4530630000000  0.4027950000000  0.5470530000000 1.0
C      1  0.4771960000000  0.4678240000000  0.5507530000000 1.0
C      1  0.5915130000000  0.5586060000000  0.4968470000000 1.0
C      1  0.5506350000000  0.4681650000000  0.6045470000000 1.0
C      1  0.4158640000000  0.5178480000000  0.5163120000000 1.0
C      1  0.4482830000000  0.5160000000000  0.5842880000000 1.0
C      1  0.5209410000000  0.4878040000000  0.5625780000000 1.0
C      1  0.5359810000000  0.4846160000000  0.5382250000000 1.0
C      1  0.4335070000000  0.5815070000000  0.5310050000000 1.0
C      1  0.5374270000000  0.5360140000000  0.4888240000000 1.0
C      1  0.4612180000000  0.5334770000000  0.6031810000000 1.0
C      1  0.4573010000000  0.5206190000000  0.4704800000000 1.0
C      1  0.5263280000000  0.4690290000000  0.6164500000000 1.0
C      1  0.5280670000000  0.4223830000000  0.4302120000000 1.0
C      1  0.4797340000000  0.6293410000000  0.5146470000000 1.0
C      1  0.5039830000000  0.5359390000000  0.4204880000000 1.0
C      1  0.5109730000000  0.4926110000000  0.4380350000000 1.0
C      1  0.4684580000000  0.4749660000000  0.4412770000000 1.0
C      1  0.6074570000000  0.4826440000000  0.5201900000000 1.0
C      1  0.4169040000000  0.4632320000000  0.5280360000000 1.0
C      1  0.5824160000000  0.4713710000000  0.5634920000000 1.0
C      1  0.4962560000000  0.5500530000000  0.5424010000000 1.0
C      1  0.5685740000000  0.4821490000000  0.5873390000000 1.0
C      1  0.4365290000000  0.4888010000000  0.4140580000000 1.0
C      1  0.4729020000000  0.5157540000000  0.6228380000000 1.0
C      1  0.4819290000000  0.4058280000000  0.4569450000000 1.0
C      1  0.4788400000000  0.5719910000000  0.5354580000000 1.0
C      1  0.4815420000000  0.4428570000000  0.5337440000000 1.0
C      1  0.5863080000000  0.5458950000000  0.5467700000000 1.0
C      1  0.6000670000000  0.6017440000000  0.4740380000000 1.0
C      1  0.4591450000000  0.5743400000000  0.5774570000000 1.0
C      1  0.4190580000000  0.4514600000000  0.4529910000000 1.0
C      1  0.5507500000000  0.5335750000000  0.5823970000000 1.0
C      1  0.5160300000000  0.4147570000000  0.5675280000000 1.0
C      1  0.5554610000000  0.4590380000000  0.4156170000000 1.0
C      1  0.5657260000000  0.5105970000000  0.5899040000000 1.0
C      1  0.4552990000000  0.5782190000000  0.5495010000000 1.0
C      1  0.5774400000000  0.4457030000000  0.5505080000000 1.0
C      1  0.4746350000000  0.5179400000000  0.3873730000000 1.0
C      1  0.5608720000000  0.4535560000000  0.4432630000000 1.0
END
