TITL C-612607-4507-988 -202.552563740606 125000 -685.757275600783 0 0 112 (C1) n - 1
REM
REM in /home/nfs/bkarasulu/CARBON/AIRSS/Generating-Clusters/TERSOFF/Only-C1/FIRE-HFTN
REM
REM
REM
REM
REM
REM ./C.cell (11c1c37f851c82e70ff6c80c92926a4b)
REM AIRSS Version 0.9.1 bugfix July 2018 build 013d7b7c2542+ Fri, 06 Jul 2018 19:26:36 +0100
REM compiler GCC version 9.2.1 20190827 (Red Hat 9.2.1-1)
REM options -cpp -mtune=generic -march=x86-64 -g -O0 -fpre-include=/usr/include/finclude/math-vector-fortran.h
REM seed 1682371344 -1214788995 -1181807653 -1170805067 -1699285697 -336913466 -1041847694 -1980478976 1177061687 -1720673821 -731352605 -1372035508 -1199079791 -2001835245 -987294478 -1918261379 12074141 -1717968214 -1484101344 1644202018 400295709 -1820796623 -810263318 240528008 2091741785 -1880622644 -947226580 -1224699238 1189510631 -2046215864 301914507 1947384130 -987569956
REM
CELL 1.54180   50.00000   50.00000   50.00000   90.00000   90.00000   90.00000
LATT -1
SFAC C  
C      1  0.4681380000000  0.5329460000000  0.3954980000000 1.0
C      1  0.5818890000000  0.4232100000000  0.5313160000000 1.0
C      1  0.5752060000000  0.5760150000000  0.4959270000000 1.0
C      1  0.4460390000000  0.5989430000000  0.4980910000000 1.0
C      1  0.5071730000000  0.5673890000000  0.5787070000000 1.0
C      1  0.5657170000000  0.4776970000000  0.5464700000000 1.0
C      1  0.4376550000000  0.4741400000000  0.4289760000000 1.0
C      1  0.5933970000000  0.4925490000000  0.5013210000000 1.0
C      1  0.4681410000000  0.5877020000000  0.5536410000000 1.0
C      1  0.5560430000000  0.5922850000000  0.4584150000000 1.0
C      1  0.4492440000000  0.5342040000000  0.5597430000000 1.0
C      1  0.5393690000000  0.4471540000000  0.5647600000000 1.0
C      1  0.5676020000000  0.4550440000000  0.5630840000000 1.0
C      1  0.4416570000000  0.4267410000000  0.4714200000000 1.0
C      1  0.3991150000000  0.5096160000000  0.5125400000000 1.0
C      1  0.4993550000000  0.4556850000000  0.5911420000000 1.0
C      1  0.5361510000000  0.4922560000000  0.4859190000000 1.0
C      1  0.5858240000000  0.4812100000000  0.4780530000000 1.0
C      1  0.5590810000000  0.5126680000000  0.4367890000000 1.0
C      1  0.5092800000000  0.3923410000000  0.5186910000000 1.0
C      1  0.4187680000000  0.4396440000000  0.4838640000000 1.0
C      1  0.4670930000000  0.4592500000000  0.5333580000000 1.0
C      1  0.5470860000000  0.5758610000000  0.5532020000000 1.0
C      1  0.5616580000000  0.5999500000000  0.5066160000000 1.0
C      1  0.4728930000000  0.5242830000000  0.4898500000000 1.0
C      1  0.4909850000000  0.4673180000000  0.4137580000000 1.0
C      1  0.4434530000000  0.5132800000000  0.4553930000000 1.0
C      1  0.4854340000000  0.5225940000000  0.5325950000000 1.0
C      1  0.4712960000000  0.5341800000000  0.4224740000000 1.0
C      1  0.4469500000000  0.5287400000000  0.4794130000000 1.0
C      1  0.4573240000000  0.4702180000000  0.4885550000000 1.0
C      1  0.4159690000000  0.4448000000000  0.5120990000000 1.0
C      1  0.5795700000000  0.5352420000000  0.5163450000000 1.0
C      1  0.5783470000000  0.5747950000000  0.4671210000000 1.0
C      1  0.4783600000000  0.5577060000000  0.4367840000000 1.0
C      1  0.4454980000000  0.4871030000000  0.5656100000000 1.0
C      1  0.4681030000000  0.4785570000000  0.5122280000000 1.0
C      1  0.5602460000000  0.4412160000000  0.4666820000000 1.0
C      1  0.5426580000000  0.4782900000000  0.5304140000000 1.0
C      1  0.5482930000000  0.4269400000000  0.4435490000000 1.0
C      1  0.4637050000000  0.5813500000000  0.4427240000000 1.0
C      1  0.4998000000000  0.4695200000000  0.4614760000000 1.0
C      1  0.4588490000000  0.4101810000000  0.4888000000000 1.0
C      1  0.5201360000000  0.5353750000000  0.4931260000000 1.0
C      1  0.4222440000000  0.5326860000000  0.5508610000000 1.0
C      1  0.5043050000000  0.4432900000000  0.4504070000000 1.0
C      1  0.5514810000000  0.4252900000000  0.4917250000000 1.0
C      1  0.5679870000000  0.4683650000000  0.4596650000000 1.0
C      1  0.4335290000000  0.5532240000000  0.4870090000000 1.0
C      1  0.4737830000000  0.6005760000000  0.4892850000000 1.0
C      1  0.5328060000000  0.5554890000000  0.5077090000000 1.0
C      1  0.4602130000000  0.4566330000000  0.4278190000000 1.0
C      1  0.5618270000000  0.5542040000000  0.5078890000000 1.0
C      1  0.4763730000000  0.5994640000000  0.4611290000000 1.0
C      1  0.4879060000000  0.5095800000000  0.5805470000000 1.0
C      1  0.5350850000000  0.4266260000000  0.5423680000000 1.0
C      1  0.4051630000000  0.4844440000000  0.4656610000000 1.0
C      1  0.5782250000000  0.5021470000000  0.5484010000000 1.0
C      1  0.5361610000000  0.5185150000000  0.4779460000000 1.0
C      1  0.5638480000000  0.5195200000000  0.5657460000000 1.0
C      1  0.5258520000000  0.5523610000000  0.4455000000000 1.0
C      1  0.5541060000000  0.5952200000000  0.5344850000000 1.0
C      1  0.4879510000000  0.5842410000000  0.5098290000000 1.0
C      1  0.5376540000000  0.5779620000000  0.4425370000000 1.0
C      1  0.4858510000000  0.5829360000000  0.5735740000000 1.0
C      1  0.4585790000000  0.4343080000000  0.4472990000000 1.0
C      1  0.5883760000000  0.5101680000000  0.5231110000000 1.0
C      1  0.4258440000000  0.4924750000000  0.4479180000000 1.0
C      1  0.4634680000000  0.4664350000000  0.5611870000000 1.0
C      1  0.4867190000000  0.4921490000000  0.4492710000000 1.0
C      1  0.5348020000000  0.4030090000000  0.4805970000000 1.0
C      1  0.4664840000000  0.4300610000000  0.5355710000000 1.0
C      1  0.4759970000000  0.4471470000000  0.5782540000000 1.0
C      1  0.4684770000000  0.5433270000000  0.5409180000000 1.0
C      1  0.4218270000000  0.4851310000000  0.5482890000000 1.0
C      1  0.4852640000000  0.4065710000000  0.4772200000000 1.0
C      1  0.5362480000000  0.5264510000000  0.5709270000000 1.0
C      1  0.4591560000000  0.5111920000000  0.5739910000000 1.0
C      1  0.4680740000000  0.5118560000000  0.4400270000000 1.0
C      1  0.4850060000000  0.4238200000000  0.4541140000000 1.0
C      1  0.4022970000000  0.4564240000000  0.4681730000000 1.0
C      1  0.5415120000000  0.4007480000000  0.4529000000000 1.0
C      1  0.4770280000000  0.5058120000000  0.5117120000000 1.0
C      1  0.4658320000000  0.5702510000000  0.5284870000000 1.0
C      1  0.4113560000000  0.5098870000000  0.5379610000000 1.0
C      1  0.5165570000000  0.5030920000000  0.5766540000000 1.0
C      1  0.5148100000000  0.5769060000000  0.5127450000000 1.0
C      1  0.5262730000000  0.4674450000000  0.4209270000000 1.0
C      1  0.5167390000000  0.4773430000000  0.5287280000000 1.0
C      1  0.5826780000000  0.5294420000000  0.4380160000000 1.0
C      1  0.5394880000000  0.5276370000000  0.4511700000000 1.0
C      1  0.4571560000000  0.4122780000000  0.5165000000000 1.0
C      1  0.4154400000000  0.4611820000000  0.5337180000000 1.0
C      1  0.5166550000000  0.4745550000000  0.4829200000000 1.0
C      1  0.5271670000000  0.4420180000000  0.4330740000000 1.0
C      1  0.4417400000000  0.5717210000000  0.5084590000000 1.0
C      1  0.5539270000000  0.4836560000000  0.4367890000000 1.0
C      1  0.5866980000000  0.4357520000000  0.5550900000000 1.0
C      1  0.4967010000000  0.4045420000000  0.5632800000000 1.0
C      1  0.5308580000000  0.5559460000000  0.5678770000000 1.0
C      1  0.5089150000000  0.3980790000000  0.4911530000000 1.0
C      1  0.5876140000000  0.5529670000000  0.4512680000000 1.0
C      1  0.4217340000000  0.5665080000000  0.4644900000000 1.0
C      1  0.4950060000000  0.5395210000000  0.4804570000000 1.0
C      1  0.4354850000000  0.5788760000000  0.4446160000000 1.0
C      1  0.5159760000000  0.4052620000000  0.5428510000000 1.0
C      1  0.4756030000000  0.4228340000000  0.5624110000000 1.0
C      1  0.5555100000000  0.4252480000000  0.5203130000000 1.0
C      1  0.5216670000000  0.4677880000000  0.5782520000000 1.0
C      1  0.3968250000000  0.5007420000000  0.4872830000000 1.0
C      1  0.4989320000000  0.5521600000000  0.4550170000000 1.0
C      1  0.5505990000000  0.6103110000000  0.4813850000000 1.0
END
