TITL C-612606-7351-243 1593.45617149138 125000 -1013.90755852472 0 0 167 (C1) n - 1
REM
REM in /home/nfs/bkarasulu/CARBON/AIRSS/Generating-Clusters/TERSOFF/Only-C1/FIRE-HFTN
REM
REM
REM
REM
REM
REM ./C.cell (11c1c37f851c82e70ff6c80c92926a4b)
REM AIRSS Version 0.9.1 bugfix July 2018 build 013d7b7c2542+ Fri, 06 Jul 2018 19:26:36 +0100
REM compiler GCC version 9.2.1 20190827 (Red Hat 9.2.1-1)
REM options -cpp -mtune=generic -march=x86-64 -g -O0 -fpre-include=/usr/include/finclude/math-vector-fortran.h
REM seed 314780577 -2034765027 -1087588027 -468601088 -1031306954 539487775 -274680443 -2037648237 271574408 1094454145 -1541778336 943630000 1562218998 405275878 -803934775 -369005868 -1769854087 813557797 -875258452 618208295 -2067761095 -862066742 -2037388311 379598802 805010305 871807382 -955198303 -690289895 1665491820 -863758551 -1411820099 -1574022412 768682538
REM
CELL 1.54180   50.00000   50.00000   50.00000   90.00000   90.00000   90.00000
LATT -1
SFAC C  
C      1  0.4030510000000  0.5048500000000  0.4692380000000 1.0
C      1  0.5181420000000  0.4923100000000  0.5587470000000 1.0
C      1  0.4663970000000  0.5169310000000  0.5984650000000 1.0
C      1  0.4791110000000  0.5552510000000  0.4831100000000 1.0
C      1  0.4721440000000  0.4915020000000  0.5374550000000 1.0
C      1  0.5829550000000  0.5712720000000  0.5132210000000 1.0
C      1  0.4804530000000  0.4269270000000  0.4167500000000 1.0
C      1  0.4854370000000  0.5824630000000  0.4908010000000 1.0
C      1  0.3748500000000  0.4988810000000  0.5036060000000 1.0
C      1  0.4308360000000  0.5638860000000  0.4899490000000 1.0
C      1  0.5649510000000  0.4881620000000  0.4935080000000 1.0
C      1  0.4136050000000  0.4850470000000  0.5347190000000 1.0
C      1  0.5095310000000  0.5444770000000  0.4011340000000 1.0
C      1  0.4240750000000  0.5778680000000  0.5135760000000 1.0
C      1  0.4987670000000  0.5695290000000  0.3940470000000 1.0
C      1  0.4872560000000  0.5156110000000  0.4526650000000 1.0
C      1  0.6173410000000  0.5408710000000  0.4788070000000 1.0
C      1  0.4169520000000  0.5148830000000  0.4935400000000 1.0
C      1  0.5453980000000  0.4896370000000  0.5510500000000 1.0
C      1  0.5487330000000  0.5217010000000  0.4582950000000 1.0
C      1  0.5252380000000  0.5370760000000  0.5259450000000 1.0
C      1  0.5178080000000  0.4174370000000  0.5699870000000 1.0
C      1  0.4374390000000  0.5522390000000  0.4097800000000 1.0
C      1  0.4152110000000  0.4862350000000  0.5870100000000 1.0
C      1  0.5675140000000  0.4684590000000  0.4367700000000 1.0
C      1  0.4313480000000  0.5076760000000  0.4308560000000 1.0
C      1  0.4575380000000  0.4927310000000  0.5118710000000 1.0
C      1  0.5606400000000  0.5077310000000  0.5361450000000 1.0
C      1  0.5010070000000  0.4156410000000  0.4005260000000 1.0
C      1  0.3942000000000  0.5290540000000  0.5390290000000 1.0
C      1  0.4531990000000  0.4222700000000  0.4125320000000 1.0
C      1  0.5122590000000  0.4974330000000  0.5863200000000 1.0
C      1  0.4642840000000  0.5181320000000  0.3915730000000 1.0
C      1  0.4484030000000  0.5498540000000  0.5665150000000 1.0
C      1  0.3916410000000  0.4449670000000  0.5275400000000 1.0
C      1  0.3922200000000  0.4579970000000  0.4785380000000 1.0
C      1  0.5513220000000  0.4732530000000  0.6022300000000 1.0
C      1  0.4076140000000  0.5473270000000  0.4494200000000 1.0
C      1  0.5594790000000  0.4492760000000  0.5207880000000 1.0
C      1  0.5449030000000  0.5789980000000  0.6151970000000 1.0
C      1  0.4116520000000  0.5950380000000  0.4574990000000 1.0
C      1  0.5206470000000  0.5825200000000  0.5736960000000 1.0
C      1  0.5598600000000  0.5478460000000  0.5819520000000 1.0
C      1  0.5704020000000  0.4193830000000  0.5516960000000 1.0
C      1  0.4983380000000  0.4698800000000  0.4746030000000 1.0
C      1  0.5475800000000  0.5865770000000  0.6404410000000 1.0
C      1  0.3514110000000  0.3703260000000  0.4782530000000 1.0
C      1  0.5818780000000  0.5847170000000  0.4643250000000 1.0
C      1  0.6078820000000  0.5010260000000  0.4573410000000 1.0
C      1  0.5533760000000  0.5229400000000  0.5949480000000 1.0
C      1  0.5855380000000  0.4444050000000  0.4564260000000 1.0
C      1  0.5829520000000  0.4370620000000  0.5314330000000 1.0
C      1  0.5417150000000  0.5694250000000  0.5887700000000 1.0
C      1  0.5834130000000  0.5510130000000  0.5636160000000 1.0
C      1  0.4187350000000  0.5145170000000  0.5830710000000 1.0
C      1  0.5721810000000  0.4193290000000  0.4559480000000 1.0
C      1  0.5940740000000  0.5824100000000  0.4890350000000 1.0
C      1  0.5176850000000  0.6095970000000  0.5789570000000 1.0
C      1  0.5249340000000  0.4241030000000  0.4714190000000 1.0
C      1  0.6001490000000  0.5281720000000  0.4603430000000 1.0
C      1  0.5770490000000  0.5030950000000  0.5134140000000 1.0
C      1  0.4532930000000  0.5455200000000  0.4901080000000 1.0
C      1  0.4385190000000  0.4629990000000  0.4614670000000 1.0
C      1  0.5041110000000  0.5481950000000  0.5395090000000 1.0
C      1  0.5347830000000  0.4503240000000  0.6059310000000 1.0
C      1  0.4897980000000  0.4017530000000  0.5290930000000 1.0
C      1  0.5465150000000  0.5171740000000  0.4271390000000 1.0
C      1  0.5020310000000  0.5718360000000  0.5550000000000 1.0
C      1  0.6021830000000  0.5284180000000  0.5617030000000 1.0
C      1  0.6040710000000  0.4572230000000  0.4848670000000 1.0
C      1  0.3952630000000  0.5173940000000  0.5137020000000 1.0
C      1  0.5211800000000  0.6134720000000  0.4832920000000 1.0
C      1  0.5830100000000  0.5730600000000  0.5434940000000 1.0
C      1  0.4483000000000  0.5152730000000  0.4919990000000 1.0
C      1  0.4164270000000  0.5687260000000  0.4655930000000 1.0
C      1  0.4120980000000  0.4516130000000  0.4585660000000 1.0
C      1  0.5451370000000  0.4087300000000  0.4546660000000 1.0
C      1  0.5037280000000  0.4975910000000  0.4073190000000 1.0
C      1  0.5400140000000  0.5590720000000  0.4895510000000 1.0
C      1  0.4797850000000  0.5921300000000  0.5172020000000 1.0
C      1  0.4842220000000  0.4953100000000  0.5928800000000 1.0
C      1  0.4718800000000  0.4267580000000  0.4832060000000 1.0
C      1  0.5337660000000  0.5425050000000  0.4174890000000 1.0
C      1  0.5142520000000  0.3954150000000  0.5150130000000 1.0
C      1  0.5094480000000  0.4322180000000  0.3796910000000 1.0
C      1  0.4037490000000  0.4623120000000  0.5463000000000 1.0
C      1  0.5203060000000  0.5193800000000  0.5034620000000 1.0
C      1  0.5206920000000  0.4186580000000  0.5003490000000 1.0
C      1  0.4088570000000  0.6196890000000  0.4495250000000 1.0
C      1  0.4944510000000  0.4254950000000  0.4630550000000 1.0
C      1  0.4514150000000  0.4637610000000  0.5078090000000 1.0
C      1  0.4633820000000  0.4693720000000  0.5541910000000 1.0
C      1  0.4953380000000  0.4682780000000  0.4465590000000 1.0
C      1  0.5019520000000  0.5959300000000  0.4682460000000 1.0
C      1  0.4500610000000  0.5749070000000  0.4029100000000 1.0
C      1  0.4114320000000  0.4606110000000  0.5740180000000 1.0
C      1  0.4526770000000  0.4515920000000  0.5342350000000 1.0
C      1  0.5657550000000  0.5659090000000  0.4499040000000 1.0
C      1  0.4749520000000  0.5817730000000  0.3956350000000 1.0
C      1  0.5499600000000  0.5938530000000  0.6653610000000 1.0
C      1  0.5737700000000  0.5387960000000  0.4572420000000 1.0
C      1  0.5538020000000  0.5744470000000  0.5078470000000 1.0
C      1  0.3618090000000  0.3929520000000  0.4859710000000 1.0
C      1  0.5192720000000  0.4841090000000  0.3874390000000 1.0
C      1  0.6037830000000  0.5123860000000  0.5174800000000 1.0
C      1  0.5641950000000  0.5959280000000  0.5464620000000 1.0
C      1  0.5526070000000  0.4953050000000  0.4695080000000 1.0
C      1  0.4244630000000  0.4372300000000  0.5829320000000 1.0
C      1  0.4449260000000  0.4199700000000  0.5813010000000 1.0
C      1  0.5384470000000  0.4981700000000  0.3735390000000 1.0
C      1  0.5355920000000  0.4434190000000  0.5342600000000 1.0
C      1  0.3726840000000  0.4158780000000  0.4935840000000 1.0
C      1  0.5637410000000  0.4930640000000  0.4201530000000 1.0
C      1  0.5131100000000  0.5707550000000  0.4520330000000 1.0
C      1  0.5456100000000  0.4715100000000  0.4547790000000 1.0
C      1  0.4003110000000  0.5266200000000  0.5650290000000 1.0
C      1  0.3856440000000  0.4398240000000  0.5000780000000 1.0
C      1  0.5383460000000  0.5653720000000  0.4369300000000 1.0
C      1  0.5153530000000  0.4440990000000  0.5143740000000 1.0
C      1  0.5005460000000  0.5427560000000  0.4639850000000 1.0
C      1  0.4098520000000  0.4337760000000  0.4370100000000 1.0
C      1  0.4572130000000  0.5085530000000  0.3668630000000 1.0
C      1  0.4621260000000  0.5064210000000  0.4653990000000 1.0
C      1  0.4437340000000  0.5245350000000  0.4106060000000 1.0
C      1  0.4779540000000  0.5855460000000  0.5455730000000 1.0
C      1  0.5409830000000  0.4510000000000  0.4737290000000 1.0
C      1  0.4684060000000  0.4104240000000  0.5726430000000 1.0
C      1  0.4094860000000  0.5193530000000  0.4459300000000 1.0
C      1  0.5269470000000  0.5335360000000  0.4777620000000 1.0
C      1  0.6099850000000  0.5060180000000  0.5445750000000 1.0
C      1  0.5968670000000  0.4690230000000  0.5729480000000 1.0
C      1  0.5279320000000  0.3714550000000  0.5156110000000 1.0
C      1  0.4433730000000  0.5298710000000  0.5872460000000 1.0
C      1  0.5501250000000  0.5334980000000  0.5370820000000 1.0
C      1  0.5325470000000  0.6166470000000  0.5075980000000 1.0
C      1  0.5422080000000  0.3496670000000  0.5163330000000 1.0
C      1  0.5570750000000  0.4606630000000  0.4963220000000 1.0
C      1  0.4998560000000  0.4946660000000  0.5378440000000 1.0
C      1  0.5110410000000  0.4941050000000  0.5119640000000 1.0
C      1  0.4845010000000  0.6124140000000  0.4499570000000 1.0
C      1  0.4711270000000  0.4724680000000  0.5810400000000 1.0
C      1  0.4717210000000  0.4111810000000  0.5079940000000 1.0
C      1  0.5466130000000  0.5982440000000  0.5232250000000 1.0
C      1  0.4300400000000  0.5850600000000  0.5388560000000 1.0
C      1  0.5776100000000  0.4698580000000  0.5917750000000 1.0
C      1  0.5080360000000  0.4686240000000  0.5004780000000 1.0
C      1  0.5352460000000  0.3942640000000  0.4326700000000 1.0
C      1  0.6081680000000  0.4771200000000  0.5481650000000 1.0
C      1  0.4896670000000  0.4413650000000  0.4391410000000 1.0
C      1  0.4539530000000  0.4504220000000  0.4828420000000 1.0
C      1  0.4514130000000  0.5774870000000  0.5562700000000 1.0
C      1  0.4454250000000  0.4888320000000  0.4490620000000 1.0
C      1  0.6039570000000  0.4545050000000  0.5209920000000 1.0
C      1  0.5199640000000  0.4303560000000  0.5952970000000 1.0
C      1  0.5380950000000  0.4991500000000  0.5997050000000 1.0
C      1  0.4923280000000  0.4087130000000  0.5574820000000 1.0
C      1  0.3840710000000  0.4853030000000  0.4796120000000 1.0
C      1  0.4274850000000  0.4235230000000  0.4195900000000 1.0
C      1  0.5407110000000  0.4230280000000  0.5539240000000 1.0
C      1  0.5135870000000  0.4584360000000  0.3781790000000 1.0
C      1  0.5183080000000  0.3967420000000  0.4120610000000 1.0
C      1  0.4795640000000  0.5368630000000  0.5327310000000 1.0
C      1  0.6193610000000  0.5308210000000  0.5036320000000 1.0
C      1  0.4920590000000  0.5217050000000  0.3979310000000 1.0
C      1  0.4976060000000  0.4938850000000  0.4347190000000 1.0
C      1  0.4553430000000  0.5347810000000  0.5432910000000 1.0
C      1  0.6148210000000  0.4800470000000  0.4729410000000 1.0
END
