TITL C-612602-9376-1416 6234.80347205535 125000 -995.747366715816 0 0 163 (C1) n - 1
REM
REM in /home/nfs/bkarasulu/CARBON/AIRSS/Generating-Clusters/TERSOFF/Only-C1/FIRE-HFTN
REM
REM
REM
REM
REM
REM ./C.cell (11c1c37f851c82e70ff6c80c92926a4b)
REM AIRSS Version 0.9.1 bugfix July 2018 build 013d7b7c2542+ Fri, 06 Jul 2018 19:26:36 +0100
REM compiler GCC version 9.2.1 20190827 (Red Hat 9.2.1-1)
REM options -cpp -mtune=generic -march=x86-64 -g -O0 -fpre-include=/usr/include/finclude/math-vector-fortran.h
REM seed -1251706007 -2081739854 1817820055 821604143 486396048 503446447 -519037258 -980979924 -657438470 1809010203 1675416285 -1844200884 775358261 765459650 -1329588208 -645548579 -210022548 -696056537 -1566730318 460546103 -817723559 -431667026 -88710363 1058898715 -843509073 -406432343 2116875488 1879069604 2084115654 -1574967483 1601906310 1601153780 -1426955691
REM
CELL 1.54180   50.00000   50.00000   50.00000   90.00000   90.00000   90.00000
LATT -1
SFAC C  
C      1  0.5454210000000  0.5970990000000  0.4518820000000 1.0
C      1  0.5987000000000  0.4382630000000  0.5056080000000 1.0
C      1  0.5342180000000  0.4610700000000  0.6286150000000 1.0
C      1  0.4763230000000  0.3664270000000  0.5263920000000 1.0
C      1  0.4898620000000  0.4698050000000  0.6089520000000 1.0
C      1  0.4334530000000  0.5579750000000  0.5791540000000 1.0
C      1  0.5173210000000  0.4972340000000  0.5058950000000 1.0
C      1  0.4915370000000  0.3919770000000  0.4798240000000 1.0
C      1  0.3824450000000  0.5330460000000  0.4972210000000 1.0
C      1  0.4849350000000  0.4418530000000  0.6057240000000 1.0
C      1  0.4997140000000  0.4642250000000  0.4038460000000 1.0
C      1  0.4439480000000  0.6166090000000  0.4994890000000 1.0
C      1  0.4686230000000  0.4864650000000  0.5995520000000 1.0
C      1  0.4451090000000  0.4507400000000  0.5022190000000 1.0
C      1  0.5211970000000  0.6079850000000  0.4476000000000 1.0
C      1  0.4459510000000  0.6045400000000  0.4539280000000 1.0
C      1  0.5438710000000  0.5783420000000  0.5052930000000 1.0
C      1  0.5355720000000  0.4970700000000  0.4834730000000 1.0
C      1  0.4215410000000  0.5489530000000  0.4719540000000 1.0
C      1  0.4058180000000  0.4997530000000  0.5270500000000 1.0
C      1  0.4485350000000  0.4618050000000  0.5301240000000 1.0
C      1  0.5329960000000  0.4302710000000  0.4183720000000 1.0
C      1  0.4950260000000  0.5311990000000  0.4356330000000 1.0
C      1  0.4738110000000  0.5743830000000  0.5180370000000 1.0
C      1  0.4501990000000  0.5679970000000  0.4058440000000 1.0
C      1  0.5217940000000  0.4907550000000  0.5356410000000 1.0
C      1  0.4045650000000  0.5413880000000  0.4193110000000 1.0
C      1  0.5013410000000  0.4837960000000  0.3845860000000 1.0
C      1  0.5049220000000  0.5452010000000  0.4989150000000 1.0
C      1  0.4521550000000  0.5202510000000  0.4422060000000 1.0
C      1  0.5969490000000  0.5007500000000  0.5332150000000 1.0
C      1  0.4991790000000  0.4307550000000  0.5842570000000 1.0
C      1  0.5812250000000  0.5112750000000  0.5550650000000 1.0
C      1  0.4450480000000  0.4881960000000  0.4062730000000 1.0
C      1  0.5090780000000  0.4514050000000  0.5667360000000 1.0
C      1  0.6019990000000  0.4855150000000  0.4827300000000 1.0
C      1  0.4853470000000  0.5635540000000  0.3049850000000 1.0
C      1  0.4205850000000  0.5740620000000  0.4865560000000 1.0
C      1  0.4677500000000  0.4346580000000  0.4920140000000 1.0
C      1  0.5343490000000  0.5403870000000  0.5643580000000 1.0
C      1  0.5310370000000  0.5380370000000  0.6184040000000 1.0
C      1  0.5077440000000  0.4039560000000  0.5816510000000 1.0
C      1  0.4699420000000  0.5276010000000  0.5753590000000 1.0
C      1  0.5372000000000  0.5388940000000  0.4522960000000 1.0
C      1  0.4987050000000  0.4745100000000  0.5502540000000 1.0
C      1  0.4944290000000  0.4646760000000  0.4632220000000 1.0
C      1  0.4948730000000  0.6119670000000  0.4433900000000 1.0
C      1  0.5934200000000  0.5322820000000  0.4943860000000 1.0
C      1  0.5168310000000  0.5610360000000  0.6273180000000 1.0
C      1  0.5440320000000  0.5336610000000  0.5211630000000 1.0
C      1  0.4175180000000  0.4473960000000  0.5653890000000 1.0
C      1  0.5570970000000  0.4237150000000  0.5540780000000 1.0
C      1  0.5447610000000  0.4711030000000  0.5427820000000 1.0
C      1  0.5661240000000  0.5799920000000  0.4613150000000 1.0
C      1  0.5071710000000  0.6000760000000  0.5638550000000 1.0
C      1  0.4531500000000  0.3952980000000  0.5561070000000 1.0
C      1  0.4701870000000  0.5752830000000  0.4252490000000 1.0
C      1  0.4337560000000  0.4685420000000  0.4807820000000 1.0
C      1  0.4274080000000  0.5733610000000  0.5365890000000 1.0
C      1  0.5835500000000  0.5080790000000  0.4348180000000 1.0
C      1  0.4821320000000  0.5609620000000  0.4940150000000 1.0
C      1  0.5303230000000  0.5536040000000  0.5068660000000 1.0
C      1  0.5711200000000  0.4941050000000  0.4128230000000 1.0
C      1  0.4705010000000  0.5561370000000  0.4685010000000 1.0
C      1  0.4550980000000  0.4879330000000  0.4783330000000 1.0
C      1  0.5875350000000  0.4557940000000  0.5251390000000 1.0
C      1  0.5585180000000  0.5435470000000  0.5793430000000 1.0
C      1  0.4502950000000  0.5059110000000  0.4994820000000 1.0
C      1  0.4006200000000  0.5284350000000  0.4753000000000 1.0
C      1  0.5479940000000  0.4777190000000  0.4143380000000 1.0
C      1  0.4754370000000  0.4487510000000  0.4063750000000 1.0
C      1  0.3989160000000  0.5392290000000  0.5484330000000 1.0
C      1  0.4300490000000  0.3970560000000  0.5718070000000 1.0
C      1  0.5831920000000  0.4968590000000  0.3876260000000 1.0
C      1  0.5189580000000  0.4746200000000  0.6101730000000 1.0
C      1  0.5245450000000  0.4587830000000  0.4210530000000 1.0
C      1  0.4353230000000  0.5078880000000  0.4234630000000 1.0
C      1  0.5394220000000  0.4755010000000  0.4659970000000 1.0
C      1  0.5981930000000  0.5060600000000  0.5040370000000 1.0
C      1  0.5162590000000  0.4430180000000  0.5021430000000 1.0
C      1  0.4749410000000  0.4699670000000  0.5363320000000 1.0
C      1  0.5194460000000  0.3907890000000  0.4749560000000 1.0
C      1  0.4205720000000  0.3755590000000  0.5856920000000 1.0
C      1  0.4023350000000  0.5052000000000  0.4571040000000 1.0
C      1  0.4692050000000  0.6009680000000  0.4380890000000 1.0
C      1  0.5767630000000  0.5877280000000  0.5581650000000 1.0
C      1  0.5845800000000  0.5365800000000  0.4353840000000 1.0
C      1  0.4496720000000  0.4606710000000  0.4103460000000 1.0
C      1  0.5449450000000  0.4454890000000  0.4983230000000 1.0
C      1  0.4234910000000  0.5598090000000  0.4122880000000 1.0
C      1  0.4575760000000  0.5684370000000  0.3788310000000 1.0
C      1  0.5896950000000  0.5593560000000  0.5010020000000 1.0
C      1  0.4662980000000  0.5671850000000  0.3538520000000 1.0
C      1  0.5540710000000  0.3700370000000  0.3840720000000 1.0
C      1  0.5794850000000  0.5615540000000  0.4441710000000 1.0
C      1  0.5190310000000  0.3841250000000  0.5672590000000 1.0
C      1  0.5074410000000  0.5793580000000  0.5825640000000 1.0
C      1  0.6084470000000  0.4573140000000  0.4862250000000 1.0
C      1  0.4552350000000  0.5033070000000  0.5804400000000 1.0
C      1  0.5415120000000  0.5214320000000  0.4710810000000 1.0
C      1  0.5392340000000  0.3959300000000  0.4948590000000 1.0
C      1  0.5319900000000  0.4420870000000  0.5495530000000 1.0
C      1  0.5080110000000  0.5808960000000  0.6108760000000 1.0
C      1  0.4171750000000  0.4218660000000  0.5726310000000 1.0
C      1  0.4961230000000  0.5309060000000  0.5850410000000 1.0
C      1  0.4084070000000  0.5148150000000  0.4296840000000 1.0
C      1  0.3931140000000  0.5474430000000  0.5196940000000 1.0
C      1  0.4114420000000  0.4760950000000  0.4628850000000 1.0
C      1  0.5697830000000  0.4241180000000  0.5783450000000 1.0
C      1  0.4773330000000  0.4868010000000  0.4608700000000 1.0
C      1  0.4577020000000  0.5508910000000  0.5649000000000 1.0
C      1  0.5317590000000  0.4944770000000  0.5932380000000 1.0
C      1  0.4928300000000  0.4115700000000  0.5326750000000 1.0
C      1  0.5371170000000  0.5973510000000  0.5259870000000 1.0
C      1  0.4698180000000  0.4072800000000  0.4850790000000 1.0
C      1  0.5666770000000  0.4064210000000  0.5323210000000 1.0
C      1  0.4558870000000  0.5654640000000  0.5386020000000 1.0
C      1  0.4312970000000  0.4955720000000  0.5648520000000 1.0
C      1  0.5806600000000  0.4160880000000  0.5072880000000 1.0
C      1  0.4980710000000  0.5183990000000  0.5047830000000 1.0
C      1  0.5812260000000  0.5389550000000  0.5633210000000 1.0
C      1  0.5355670000000  0.4027880000000  0.4233750000000 1.0
C      1  0.4672470000000  0.6205510000000  0.5127600000000 1.0
C      1  0.5330240000000  0.5203050000000  0.5438150000000 1.0
C      1  0.4243110000000  0.5053320000000  0.5086640000000 1.0
C      1  0.4842660000000  0.5568670000000  0.4422480000000 1.0
C      1  0.4094460000000  0.4572400000000  0.4413250000000 1.0
C      1  0.4342320000000  0.5989940000000  0.4792450000000 1.0
C      1  0.4115220000000  0.5697470000000  0.5131620000000 1.0
C      1  0.5105340000000  0.5528910000000  0.5727410000000 1.0
C      1  0.5618450000000  0.3542860000000  0.3648090000000 1.0
C      1  0.5952700000000  0.4938440000000  0.4562910000000 1.0
C      1  0.4093720000000  0.5120920000000  0.5527590000000 1.0
C      1  0.4928620000000  0.4483850000000  0.4865620000000 1.0
C      1  0.5602910000000  0.4621120000000  0.5186270000000 1.0
C      1  0.4720710000000  0.5148120000000  0.5133800000000 1.0
C      1  0.5906370000000  0.5636840000000  0.5514550000000 1.0
C      1  0.5578890000000  0.6018080000000  0.5449850000000 1.0
C      1  0.3563720000000  0.5249520000000  0.4963180000000 1.0
C      1  0.5100280000000  0.6022150000000  0.5355930000000 1.0
C      1  0.4789170000000  0.5091750000000  0.4437080000000 1.0
C      1  0.5684600000000  0.5758760000000  0.4898020000000 1.0
C      1  0.5277710000000  0.3919640000000  0.4480570000000 1.0
C      1  0.5566260000000  0.4897200000000  0.5683550000000 1.0
C      1  0.4757880000000  0.5654110000000  0.3291700000000 1.0
C      1  0.4277870000000  0.4481650000000  0.4235110000000 1.0
C      1  0.4768230000000  0.4214220000000  0.4037850000000 1.0
C      1  0.5137910000000  0.4296780000000  0.5273150000000 1.0
C      1  0.5304220000000  0.3764170000000  0.5439510000000 1.0
C      1  0.6036600000000  0.4738480000000  0.5385370000000 1.0
C      1  0.5567490000000  0.5433980000000  0.6074230000000 1.0
C      1  0.5191510000000  0.4647410000000  0.4498920000000 1.0
C      1  0.5169650000000  0.5188570000000  0.6015010000000 1.0
C      1  0.4740290000000  0.3911770000000  0.5379830000000 1.0
C      1  0.4465970000000  0.5410570000000  0.4616750000000 1.0
C      1  0.4853110000000  0.6006630000000  0.5213720000000 1.0
C      1  0.4127690000000  0.5619000000000  0.5602610000000 1.0
C      1  0.4312900000000  0.4682000000000  0.5527550000000 1.0
C      1  0.5568220000000  0.4198570000000  0.4906780000000 1.0
C      1  0.6017570000000  0.5653600000000  0.5257490000000 1.0
C      1  0.5457630000000  0.3860150000000  0.4035060000000 1.0
C      1  0.5944110000000  0.4998090000000  0.3642890000000 1.0
C      1  0.5453830000000  0.3876890000000  0.5227690000000 1.0
END
