TITL C-612600-6631-1231 0.217421864361774 125000 -367.024232863353 0 0 61 (C1) n - 1
REM
REM in /home/nfs/bkarasulu/CARBON/AIRSS/Generating-Clusters/TERSOFF/Only-C1/FIRE-HFTN
REM
REM
REM
REM
REM
REM ./C.cell (11c1c37f851c82e70ff6c80c92926a4b)
REM AIRSS Version 0.9.1 bugfix July 2018 build 013d7b7c2542+ Fri, 06 Jul 2018 19:26:36 +0100
REM compiler GCC version 9.2.1 20190827 (Red Hat 9.2.1-1)
REM options -cpp -mtune=generic -march=x86-64 -g -O0 -fpre-include=/usr/include/finclude/math-vector-fortran.h
REM seed 1372050723 1958418240 -693757294 -351354702 1726750478 -1059570924 1185562383 914307163 2029156570 246178847 -1028288135 -1135154009 1023966013 -1152569984 1744905016 637575434 1497532668 -491826332 -1056781920 -435084839 -1928276986 -71354487 -1724482141 -1565310873 -954023005 1038688924 -1947257113 -82874019 1444002631 1321337900 711100362 -311519044 216962825
REM
CELL 1.54180   50.00000   50.00000   50.00000   90.00000   90.00000   90.00000
LATT -1
SFAC C  
C      1  0.5109020000000  0.5808910000000  0.5054030000000 1.0
C      1  0.5917320000000  0.5286340000000  0.5459180000000 1.0
C      1  0.4773060000000  0.5639250000000  0.4756750000000 1.0
C      1  0.4420740000000  0.5063960000000  0.5229000000000 1.0
C      1  0.4118450000000  0.3640390000000  0.5356450000000 1.0
C      1  0.4902250000000  0.4948400000000  0.4448520000000 1.0
C      1  0.5045930000000  0.5108730000000  0.4264120000000 1.0
C      1  0.5229660000000  0.5454770000000  0.5679160000000 1.0
C      1  0.4427010000000  0.5240080000000  0.4752430000000 1.0
C      1  0.4824130000000  0.5764480000000  0.4033140000000 1.0
C      1  0.5520080000000  0.5045020000000  0.4424350000000 1.0
C      1  0.4602520000000  0.4859330000000  0.5143720000000 1.0
C      1  0.5030860000000  0.4278990000000  0.5181320000000 1.0
C      1  0.5642430000000  0.4403930000000  0.5203860000000 1.0
C      1  0.5274190000000  0.4685730000000  0.4629900000000 1.0
C      1  0.4949240000000  0.5086360000000  0.5373040000000 1.0
C      1  0.4767600000000  0.5679860000000  0.4285020000000 1.0
C      1  0.5087050000000  0.4933120000000  0.5562910000000 1.0
C      1  0.5528050000000  0.5092430000000  0.4908240000000 1.0
C      1  0.4508210000000  0.5192220000000  0.5480050000000 1.0
C      1  0.4869910000000  0.5660050000000  0.5027300000000 1.0
C      1  0.5063540000000  0.4873990000000  0.4667950000000 1.0
C      1  0.5527720000000  0.4588820000000  0.5020170000000 1.0
C      1  0.4707560000000  0.5540620000000  0.5226770000000 1.0
C      1  0.4441670000000  0.5240840000000  0.4287430000000 1.0
C      1  0.4520340000000  0.4594650000000  0.5157440000000 1.0
C      1  0.4650690000000  0.4585130000000  0.4616770000000 1.0
C      1  0.5477090000000  0.4764110000000  0.4451770000000 1.0
C      1  0.5042040000000  0.5017970000000  0.4909410000000 1.0
C      1  0.5869050000000  0.5318820000000  0.4636600000000 1.0
C      1  0.5045320000000  0.4309980000000  0.5445560000000 1.0
C      1  0.5235030000000  0.5925480000000  0.4842730000000 1.0
C      1  0.4559530000000  0.5493470000000  0.4355750000000 1.0
C      1  0.4870510000000  0.4962040000000  0.5126150000000 1.0
C      1  0.4636880000000  0.4847260000000  0.4499400000000 1.0
C      1  0.5117920000000  0.4459670000000  0.5672370000000 1.0
C      1  0.5069270000000  0.4371330000000  0.5925920000000 1.0
C      1  0.5140320000000  0.5906600000000  0.4588190000000 1.0
C      1  0.4783400000000  0.5337070000000  0.5448950000000 1.0
C      1  0.5463570000000  0.5347760000000  0.5605020000000 1.0
C      1  0.5648680000000  0.5159050000000  0.4655550000000 1.0
C      1  0.5518410000000  0.4714530000000  0.5540050000000 1.0
C      1  0.4399080000000  0.4364440000000  0.5207880000000 1.0
C      1  0.4357450000000  0.5259300000000  0.5027260000000 1.0
C      1  0.5057550000000  0.4383320000000  0.4922510000000 1.0
C      1  0.5642630000000  0.4468120000000  0.5468810000000 1.0
C      1  0.5264170000000  0.5190170000000  0.4948280000000 1.0
C      1  0.5305950000000  0.4515870000000  0.4851590000000 1.0
C      1  0.4299690000000  0.4123850000000  0.5257250000000 1.0
C      1  0.5245660000000  0.4710040000000  0.5623310000000 1.0
C      1  0.5586570000000  0.4873020000000  0.5084720000000 1.0
C      1  0.4559240000000  0.5481500000000  0.4654170000000 1.0
C      1  0.4961280000000  0.5464410000000  0.5650650000000 1.0
C      1  0.5599900000000  0.4934100000000  0.5370750000000 1.0
C      1  0.4906870000000  0.5762350000000  0.4525080000000 1.0
C      1  0.4440670000000  0.5054580000000  0.4516850000000 1.0
C      1  0.4825470000000  0.4426520000000  0.4755140000000 1.0
C      1  0.5312460000000  0.5170910000000  0.4273080000000 1.0
C      1  0.5661180000000  0.5190750000000  0.5478250000000 1.0
C      1  0.4207860000000  0.3880270000000  0.5307180000000 1.0
C      1  0.4430030000000  0.5514940000000  0.5144780000000 1.0
END
