TITL C-612601-4209-982 -964.06426190132 125000 -1045.23351403384 0 0 175 (C1) n - 1
REM
REM in /home/nfs/bkarasulu/CARBON/AIRSS/Generating-Clusters/TERSOFF/Only-C1/FIRE-HFTN
REM
REM
REM
REM
REM
REM ./C.cell (11c1c37f851c82e70ff6c80c92926a4b)
REM AIRSS Version 0.9.1 bugfix July 2018 build 013d7b7c2542+ Fri, 06 Jul 2018 19:26:36 +0100
REM compiler GCC version 9.2.1 20190827 (Red Hat 9.2.1-1)
REM options -cpp -mtune=generic -march=x86-64 -g -O0 -fpre-include=/usr/include/finclude/math-vector-fortran.h
REM seed 129543449 2088234971 1084357687 -1744181810 -1035159847 -1669013170 -624125672 -1524917580 -1386859060 -411639462 682052164 1749075573 1137620396 -90963808 -1380743038 -1811835144 2033114988 720684631 171957661 -1241019307 2104519469 1224269884 1753624054 -37389530 1176849475 1106385158 -728044902 2051668498 1449645278 1891633990 -1836126708 -1400765755 -1550718432
REM
CELL 1.54180   50.00000   50.00000   50.00000   90.00000   90.00000   90.00000
LATT -1
SFAC C  
C      1  0.4404010000000  0.5373680000000  0.3983630000000 1.0
C      1  0.4492090000000  0.4862170000000  0.4041820000000 1.0
C      1  0.4451090000000  0.5438000000000  0.6064960000000 1.0
C      1  0.4667970000000  0.3844770000000  0.5724970000000 1.0
C      1  0.5192300000000  0.5091660000000  0.4983310000000 1.0
C      1  0.3837670000000  0.5453630000000  0.4488970000000 1.0
C      1  0.5467890000000  0.4587600000000  0.3944010000000 1.0
C      1  0.5452840000000  0.4392160000000  0.5269770000000 1.0
C      1  0.4437170000000  0.4417180000000  0.5424160000000 1.0
C      1  0.4410280000000  0.4940890000000  0.6019380000000 1.0
C      1  0.5768250000000  0.4596260000000  0.5989430000000 1.0
C      1  0.5541460000000  0.4663420000000  0.5299500000000 1.0
C      1  0.5095640000000  0.4873430000000  0.3723500000000 1.0
C      1  0.4298120000000  0.4718850000000  0.5863870000000 1.0
C      1  0.5228290000000  0.4621310000000  0.5620210000000 1.0
C      1  0.5807990000000  0.4733050000000  0.4317140000000 1.0
C      1  0.4394850000000  0.5678850000000  0.5923100000000 1.0
C      1  0.4226450000000  0.5220280000000  0.5679320000000 1.0
C      1  0.5719320000000  0.5961920000000  0.5212160000000 1.0
C      1  0.5215550000000  0.5589620000000  0.4968750000000 1.0
C      1  0.5298970000000  0.5785610000000  0.4402090000000 1.0
C      1  0.4310230000000  0.4715590000000  0.5542190000000 1.0
C      1  0.5006860000000  0.5034210000000  0.5782460000000 1.0
C      1  0.5299720000000  0.4824100000000  0.4407240000000 1.0
C      1  0.4243600000000  0.5138820000000  0.4780250000000 1.0
C      1  0.5175010000000  0.3957550000000  0.4188260000000 1.0
C      1  0.4839430000000  0.5162640000000  0.6209860000000 1.0
C      1  0.4694310000000  0.4966670000000  0.5022200000000 1.0
C      1  0.4661380000000  0.5404640000000  0.4791600000000 1.0
C      1  0.5757250000000  0.5685370000000  0.4358390000000 1.0
C      1  0.5087450000000  0.4806310000000  0.5413860000000 1.0
C      1  0.5246820000000  0.5337500000000  0.4783220000000 1.0
C      1  0.4900110000000  0.4038290000000  0.4163340000000 1.0
C      1  0.4806290000000  0.4836470000000  0.5454160000000 1.0
C      1  0.4304530000000  0.5775060000000  0.5211990000000 1.0
C      1  0.5989830000000  0.5459970000000  0.4692140000000 1.0
C      1  0.4370340000000  0.5015900000000  0.4537860000000 1.0
C      1  0.5922640000000  0.4439620000000  0.5278550000000 1.0
C      1  0.6022510000000  0.5553430000000  0.5262200000000 1.0
C      1  0.5050950000000  0.4819150000000  0.3451440000000 1.0
C      1  0.5671210000000  0.4346360000000  0.6018130000000 1.0
C      1  0.4681070000000  0.6197000000000  0.4321850000000 1.0
C      1  0.4578870000000  0.5483620000000  0.5523680000000 1.0
C      1  0.5066610000000  0.5823310000000  0.5903480000000 1.0
C      1  0.5371660000000  0.5081890000000  0.6126750000000 1.0
C      1  0.3651380000000  0.4887510000000  0.4828560000000 1.0
C      1  0.5572320000000  0.5191670000000  0.5657050000000 1.0
C      1  0.5272950000000  0.6074390000000  0.5032480000000 1.0
C      1  0.4357980000000  0.4593400000000  0.4832850000000 1.0
C      1  0.5623050000000  0.4792880000000  0.4073450000000 1.0
C      1  0.4061780000000  0.4845480000000  0.5422870000000 1.0
C      1  0.4049050000000  0.5132700000000  0.4981800000000 1.0
C      1  0.5743250000000  0.4621120000000  0.4588000000000 1.0
C      1  0.5590170000000  0.4789040000000  0.5050630000000 1.0
C      1  0.5048730000000  0.5145220000000  0.3808670000000 1.0
C      1  0.5003790000000  0.4485810000000  0.4056960000000 1.0
C      1  0.5699110000000  0.4236270000000  0.5298900000000 1.0
C      1  0.4560520000000  0.3814820000000  0.5481750000000 1.0
C      1  0.5068980000000  0.5370270000000  0.4547480000000 1.0
C      1  0.4781710000000  0.6057430000000  0.5210340000000 1.0
C      1  0.5963000000000  0.5229100000000  0.4860820000000 1.0
C      1  0.4773720000000  0.4636810000000  0.5672680000000 1.0
C      1  0.4541220000000  0.3969360000000  0.5247940000000 1.0
C      1  0.4405430000000  0.4722800000000  0.4587670000000 1.0
C      1  0.4109510000000  0.4209930000000  0.4750060000000 1.0
C      1  0.5739710000000  0.5422520000000  0.5627300000000 1.0
C      1  0.4848650000000  0.4809320000000  0.5890600000000 1.0
C      1  0.5246290000000  0.5425270000000  0.5844320000000 1.0
C      1  0.5320390000000  0.5482110000000  0.5229090000000 1.0
C      1  0.4592750000000  0.4479020000000  0.4950970000000 1.0
C      1  0.4190700000000  0.5106650000000  0.4309120000000 1.0
C      1  0.5735270000000  0.5853950000000  0.4598400000000 1.0
C      1  0.5523560000000  0.5070460000000  0.4127060000000 1.0
C      1  0.5943870000000  0.4991120000000  0.4326660000000 1.0
C      1  0.4790060000000  0.5929800000000  0.4712030000000 1.0
C      1  0.4979020000000  0.6029390000000  0.5427930000000 1.0
C      1  0.6060370000000  0.4979510000000  0.5409670000000 1.0
C      1  0.4991350000000  0.5385520000000  0.3922350000000 1.0
C      1  0.4265540000000  0.4365910000000  0.4240040000000 1.0
C      1  0.3866350000000  0.4912950000000  0.4993850000000 1.0
C      1  0.4106210000000  0.4276040000000  0.4477390000000 1.0
C      1  0.4729710000000  0.4114570000000  0.4386190000000 1.0
C      1  0.4720200000000  0.4408420000000  0.5501970000000 1.0
C      1  0.4964370000000  0.4672260000000  0.4750480000000 1.0
C      1  0.3825570000000  0.5613050000000  0.4702720000000 1.0
C      1  0.4129310000000  0.4252470000000  0.5045890000000 1.0
C      1  0.3959010000000  0.5257220000000  0.4355030000000 1.0
C      1  0.4731160000000  0.5941600000000  0.4420130000000 1.0
C      1  0.4317120000000  0.4612020000000  0.4065760000000 1.0
C      1  0.5437440000000  0.4272490000000  0.5909040000000 1.0
C      1  0.5904170000000  0.5766280000000  0.5096560000000 1.0
C      1  0.5014450000000  0.4765660000000  0.3199010000000 1.0
C      1  0.4717680000000  0.5722710000000  0.4212180000000 1.0
C      1  0.5913490000000  0.5733300000000  0.4804900000000 1.0
C      1  0.4557720000000  0.4963140000000  0.5461350000000 1.0
C      1  0.5745000000000  0.5408270000000  0.4481610000000 1.0
C      1  0.4307600000000  0.5203250000000  0.5959160000000 1.0
C      1  0.4744600000000  0.5673960000000  0.4837540000000 1.0
C      1  0.5139140000000  0.5562160000000  0.4348130000000 1.0
C      1  0.4880690000000  0.4246480000000  0.3962760000000 1.0
C      1  0.5642620000000  0.3969920000000  0.5208300000000 1.0
C      1  0.5324990000000  0.5838010000000  0.4866090000000 1.0
C      1  0.5992830000000  0.4500890000000  0.4992840000000 1.0
C      1  0.4731550000000  0.5426780000000  0.6151690000000 1.0
C      1  0.5502410000000  0.4193120000000  0.4817960000000 1.0
C      1  0.4595620000000  0.4576950000000  0.4435060000000 1.0
C      1  0.5183200000000  0.4649240000000  0.3885550000000 1.0
C      1  0.4512900000000  0.5951530000000  0.5222840000000 1.0
C      1  0.3929720000000  0.4726040000000  0.5199780000000 1.0
C      1  0.4833190000000  0.4186390000000  0.4642240000000 1.0
C      1  0.3915810000000  0.5671530000000  0.4947400000000 1.0
C      1  0.3945820000000  0.4450740000000  0.5144010000000 1.0
C      1  0.5746460000000  0.5197910000000  0.4277430000000 1.0
C      1  0.5538540000000  0.5328440000000  0.4707760000000 1.0
C      1  0.4665770000000  0.5089310000000  0.4440980000000 1.0
C      1  0.4817810000000  0.4014630000000  0.5866110000000 1.0
C      1  0.5549310000000  0.5310890000000  0.5198610000000 1.0
C      1  0.5571420000000  0.6171730000000  0.5051630000000 1.0
C      1  0.4538050000000  0.4317010000000  0.4327280000000 1.0
C      1  0.4792580000000  0.4960930000000  0.4224890000000 1.0
C      1  0.4772730000000  0.3997180000000  0.5071280000000 1.0
C      1  0.4051680000000  0.5139270000000  0.5466110000000 1.0
C      1  0.4693420000000  0.5246030000000  0.5038570000000 1.0
C      1  0.5968700000000  0.5338010000000  0.5450830000000 1.0
C      1  0.6147360000000  0.4764170000000  0.4970870000000 1.0
C      1  0.5402690000000  0.4106790000000  0.4153340000000 1.0
C      1  0.5450660000000  0.5875490000000  0.4622030000000 1.0
C      1  0.5350840000000  0.4545690000000  0.4364100000000 1.0
C      1  0.4957320000000  0.5576450000000  0.4133940000000 1.0
C      1  0.4949230000000  0.4342460000000  0.5317400000000 1.0
C      1  0.5191340000000  0.4358290000000  0.5147550000000 1.0
C      1  0.5614890000000  0.4798480000000  0.4780570000000 1.0
C      1  0.4855120000000  0.5407430000000  0.5224630000000 1.0
C      1  0.4701850000000  0.4209470000000  0.4890310000000 1.0
C      1  0.5790540000000  0.4384120000000  0.4771010000000 1.0
C      1  0.4973920000000  0.4230670000000  0.5866450000000 1.0
C      1  0.4483830000000  0.5222470000000  0.5537720000000 1.0
C      1  0.4337370000000  0.5109780000000  0.4062510000000 1.0
C      1  0.5962020000000  0.4693880000000  0.5460120000000 1.0
C      1  0.5551950000000  0.5716110000000  0.5646430000000 1.0
C      1  0.4494710000000  0.5697230000000  0.5671680000000 1.0
C      1  0.5104880000000  0.3899400000000  0.5050590000000 1.0
C      1  0.4093040000000  0.5587720000000  0.5153970000000 1.0
C      1  0.5126320000000  0.5123950000000  0.6241330000000 1.0
C      1  0.4348730000000  0.4198160000000  0.5244240000000 1.0
C      1  0.4911140000000  0.6094700000000  0.4944480000000 1.0
C      1  0.5473010000000  0.4382410000000  0.4152950000000 1.0
C      1  0.5038350000000  0.4401120000000  0.4643140000000 1.0
C      1  0.5150390000000  0.4982300000000  0.4250660000000 1.0
C      1  0.5546780000000  0.5041090000000  0.5902320000000 1.0
C      1  0.5635280000000  0.4782190000000  0.5828000000000 1.0
C      1  0.6251840000000  0.4914690000000  0.5202590000000 1.0
C      1  0.4689160000000  0.4934110000000  0.6093240000000 1.0
C      1  0.5249750000000  0.4332440000000  0.4851220000000 1.0
C      1  0.5321570000000  0.5695050000000  0.5827210000000 1.0
C      1  0.4797380000000  0.5289650000000  0.4574620000000 1.0
C      1  0.5518000000000  0.5896890000000  0.5424560000000 1.0
C      1  0.4486960000000  0.5609010000000  0.4090280000000 1.0
C      1  0.5248190000000  0.5999660000000  0.5330200000000 1.0
C      1  0.4930940000000  0.5628710000000  0.5048220000000 1.0
C      1  0.4061790000000  0.5301980000000  0.5217690000000 1.0
C      1  0.5080300000000  0.4453520000000  0.4349080000000 1.0
C      1  0.5444060000000  0.3952690000000  0.4996180000000 1.0
C      1  0.5690200000000  0.5263920000000  0.4957740000000 1.0
C      1  0.5509540000000  0.4698940000000  0.5586550000000 1.0
C      1  0.6077680000000  0.4980110000000  0.4798910000000 1.0
C      1  0.4771930000000  0.4707800000000  0.4948620000000 1.0
C      1  0.4950900000000  0.5991680000000  0.5706060000000 1.0
C      1  0.5086640000000  0.5382840000000  0.5399450000000 1.0
C      1  0.5479100000000  0.5108890000000  0.5392540000000 1.0
C      1  0.4898530000000  0.5659950000000  0.6083570000000 1.0
C      1  0.5092810000000  0.5275550000000  0.5666510000000 1.0
C      1  0.4176470000000  0.4508150000000  0.5988860000000 1.0
C      1  0.5200300000000  0.4381300000000  0.5794480000000 1.0
C      1  0.5242240000000  0.4985340000000  0.5256720000000 1.0
END
