TITL C-612604-1799-112 52802.6776096219 125000 -863.607829216184 0 0 141 (C1) n - 1
REM
REM in /home/nfs/bkarasulu/CARBON/AIRSS/Generating-Clusters/TERSOFF/Only-C1/FIRE-HFTN
REM
REM
REM
REM
REM
REM ./C.cell (11c1c37f851c82e70ff6c80c92926a4b)
REM AIRSS Version 0.9.1 bugfix July 2018 build 013d7b7c2542+ Fri, 06 Jul 2018 19:26:36 +0100
REM compiler GCC version 9.2.1 20190827 (Red Hat 9.2.1-1)
REM options -cpp -mtune=generic -march=x86-64 -g -O0 -fpre-include=/usr/include/finclude/math-vector-fortran.h
REM seed 1431415111 1703814711 -1588535084 1525154387 945677683 1681297232 1071666899 1960813348 1610067398 953345392 2029153599 1314394974 -1909052612 -1373636092 -136059789 850023602 1660726441 1623589022 -774918920 129555102 1446220273 -1938718222 -1677297516 -541676885 1257412639 -905678651 1837077408 1643392933 -213362726 1830957784 -1553941922 -191934275 -1690429665
REM
CELL 1.54180   50.00000   50.00000   50.00000   90.00000   90.00000   90.00000
LATT -1
SFAC C  
C      1  0.6001990000000  0.4730620000000  0.4906920000000 1.0
C      1  0.5033060000000  0.4596360000000  0.6258550000000 1.0
C      1  0.5077120000000  0.6126600000000  0.4047350000000 1.0
C      1  0.5154070000000  0.4162310000000  0.5670450000000 1.0
C      1  0.4659320000000  0.4407470000000  0.4158410000000 1.0
C      1  0.4967260000000  0.5200760000000  0.6009930000000 1.0
C      1  0.4175830000000  0.4975270000000  0.5628990000000 1.0
C      1  0.4815170000000  0.5372840000000  0.4122040000000 1.0
C      1  0.4921920000000  0.5137710000000  0.4582200000000 1.0
C      1  0.4744900000000  0.4941160000000  0.4059240000000 1.0
C      1  0.4333960000000  0.5190880000000  0.4236810000000 1.0
C      1  0.5072760000000  0.4826960000000  0.5500800000000 1.0
C      1  0.5229420000000  0.5627640000000  0.4880870000000 1.0
C      1  0.4315890000000  0.5855730000000  0.5428910000000 1.0
C      1  0.4565340000000  0.5190210000000  0.5560540000000 1.0
C      1  0.5627850000000  0.5321230000000  0.5702660000000 1.0
C      1  0.5470960000000  0.5200860000000  0.5927790000000 1.0
C      1  0.4776750000000  0.5491160000000  0.4870880000000 1.0
C      1  0.4369360000000  0.4092400000000  0.4719560000000 1.0
C      1  0.4148810000000  0.5124870000000  0.5146030000000 1.0
C      1  0.5086830000000  0.4444540000000  0.4680500000000 1.0
C      1  0.4295280000000  0.4705260000000  0.5576780000000 1.0
C      1  0.4895360000000  0.4278140000000  0.4089680000000 1.0
C      1  0.4765920000000  0.5680680000000  0.5450890000000 1.0
C      1  0.5341200000000  0.5076140000000  0.4987940000000 1.0
C      1  0.5195370000000  0.4795220000000  0.6124220000000 1.0
C      1  0.4591970000000  0.5309860000000  0.4985180000000 1.0
C      1  0.4207400000000  0.3840760000000  0.4337860000000 1.0
C      1  0.5819650000000  0.6036840000000  0.5581380000000 1.0
C      1  0.4192810000000  0.5585270000000  0.5060210000000 1.0
C      1  0.5577680000000  0.5181580000000  0.4156480000000 1.0
C      1  0.5536100000000  0.5952820000000  0.4702410000000 1.0
C      1  0.4882940000000  0.6144700000000  0.5010560000000 1.0
C      1  0.5396940000000  0.4143900000000  0.4000300000000 1.0
C      1  0.4608110000000  0.4695120000000  0.4101540000000 1.0
C      1  0.5528840000000  0.4771750000000  0.5415100000000 1.0
C      1  0.5459380000000  0.5396600000000  0.5290030000000 1.0
C      1  0.4575900000000  0.5010260000000  0.5339820000000 1.0
C      1  0.4765580000000  0.4535340000000  0.6222630000000 1.0
C      1  0.5560500000000  0.6066060000000  0.5633750000000 1.0
C      1  0.4610850000000  0.3986430000000  0.4814250000000 1.0
C      1  0.4793170000000  0.4074500000000  0.5005840000000 1.0
C      1  0.4534710000000  0.4546200000000  0.6072240000000 1.0
C      1  0.4468950000000  0.4009450000000  0.5381810000000 1.0
C      1  0.5070440000000  0.6087130000000  0.4808050000000 1.0
C      1  0.6149490000000  0.4911450000000  0.4746660000000 1.0
C      1  0.5216080000000  0.5337510000000  0.5984190000000 1.0
C      1  0.4723140000000  0.3961580000000  0.5483070000000 1.0
C      1  0.5015220000000  0.3996210000000  0.5486490000000 1.0
C      1  0.5514650000000  0.4712770000000  0.4664540000000 1.0
C      1  0.5331830000000  0.5145170000000  0.4038450000000 1.0
C      1  0.5758260000000  0.4590530000000  0.4797120000000 1.0
C      1  0.6113090000000  0.5293410000000  0.5067930000000 1.0
C      1  0.5363580000000  0.5611070000000  0.4433490000000 1.0
C      1  0.5294660000000  0.5910890000000  0.4847240000000 1.0
C      1  0.4461500000000  0.5212330000000  0.6024590000000 1.0
C      1  0.4139740000000  0.5656180000000  0.5333110000000 1.0
C      1  0.5138960000000  0.4201570000000  0.4018830000000 1.0
C      1  0.4720870000000  0.4944420000000  0.4634150000000 1.0
C      1  0.4048780000000  0.4664300000000  0.4698650000000 1.0
C      1  0.4042440000000  0.4893060000000  0.4528410000000 1.0
C      1  0.4464560000000  0.4719020000000  0.5301480000000 1.0
C      1  0.5608920000000  0.5731270000000  0.4534490000000 1.0
C      1  0.5179590000000  0.3961870000000  0.4757200000000 1.0
C      1  0.5214040000000  0.5156820000000  0.4582040000000 1.0
C      1  0.4330670000000  0.4071410000000  0.4437970000000 1.0
C      1  0.4207050000000  0.4458940000000  0.4176000000000 1.0
C      1  0.4892680000000  0.5539020000000  0.4334630000000 1.0
C      1  0.5154970000000  0.4878760000000  0.4914050000000 1.0
C      1  0.4701710000000  0.6086280000000  0.5200170000000 1.0
C      1  0.4592740000000  0.5896160000000  0.5379260000000 1.0
C      1  0.4095080000000  0.3625100000000  0.4244110000000 1.0
C      1  0.5454420000000  0.4003070000000  0.5229500000000 1.0
C      1  0.5254950000000  0.4649140000000  0.4774970000000 1.0
C      1  0.4635820000000  0.4706860000000  0.4768000000000 1.0
C      1  0.4995850000000  0.4922650000000  0.5954650000000 1.0
C      1  0.5081360000000  0.6244910000000  0.3815180000000 1.0
C      1  0.5971280000000  0.4844740000000  0.5180130000000 1.0
C      1  0.4808970000000  0.4491640000000  0.4700890000000 1.0
C      1  0.5871610000000  0.5213180000000  0.5538000000000 1.0
C      1  0.5015270000000  0.6133010000000  0.4534220000000 1.0
C      1  0.4717150000000  0.4535010000000  0.5354660000000 1.0
C      1  0.5178430000000  0.3940220000000  0.5251400000000 1.0
C      1  0.5288570000000  0.5436560000000  0.4658660000000 1.0
C      1  0.5465780000000  0.5518100000000  0.5543450000000 1.0
C      1  0.5656320000000  0.4097300000000  0.4029420000000 1.0
C      1  0.5356310000000  0.4340490000000  0.5671310000000 1.0
C      1  0.5022660000000  0.5662900000000  0.5327620000000 1.0
C      1  0.4202680000000  0.4519990000000  0.4890290000000 1.0
C      1  0.5510240000000  0.4531560000000  0.5561420000000 1.0
C      1  0.4928710000000  0.4769310000000  0.5732410000000 1.0
C      1  0.4590550000000  0.5193190000000  0.4119650000000 1.0
C      1  0.5693260000000  0.4841650000000  0.5203190000000 1.0
C      1  0.4411730000000  0.4271920000000  0.4254820000000 1.0
C      1  0.4176450000000  0.5408370000000  0.4326860000000 1.0
C      1  0.5993340000000  0.5681210000000  0.4831960000000 1.0
C      1  0.5315370000000  0.5165020000000  0.5252550000000 1.0
C      1  0.4288850000000  0.4117640000000  0.5200310000000 1.0
C      1  0.5252120000000  0.5716360000000  0.5514520000000 1.0
C      1  0.4221410000000  0.4931870000000  0.4302450000000 1.0
C      1  0.5798160000000  0.5249460000000  0.4679740000000 1.0
C      1  0.4061000000000  0.5152180000000  0.5421300000000 1.0
C      1  0.4747320000000  0.4298910000000  0.5176310000000 1.0
C      1  0.5000460000000  0.5584830000000  0.5041560000000 1.0
C      1  0.5094640000000  0.6113670000000  0.5750840000000 1.0
C      1  0.4022280000000  0.5436590000000  0.5481070000000 1.0
C      1  0.4716950000000  0.5088080000000  0.5108400000000 1.0
C      1  0.4831830000000  0.5421990000000  0.4593530000000 1.0
C      1  0.5449240000000  0.4971450000000  0.4533230000000 1.0
C      1  0.6025640000000  0.5912400000000  0.5468170000000 1.0
C      1  0.4429830000000  0.4670940000000  0.4982450000000 1.0
C      1  0.6032740000000  0.5117240000000  0.5288470000000 1.0
C      1  0.4712810000000  0.5280170000000  0.6099090000000 1.0
C      1  0.5608880000000  0.5068830000000  0.4935970000000 1.0
C      1  0.5717420000000  0.4329760000000  0.4910050000000 1.0
C      1  0.5668990000000  0.5127790000000  0.4425330000000 1.0
C      1  0.4317350000000  0.4717980000000  0.4151030000000 1.0
C      1  0.5908570000000  0.4056810000000  0.4081160000000 1.0
C      1  0.4473130000000  0.4581370000000  0.5792170000000 1.0
C      1  0.4233610000000  0.4234570000000  0.4933360000000 1.0
C      1  0.6074110000000  0.5181300000000  0.4794210000000 1.0
C      1  0.4732050000000  0.4567870000000  0.5660170000000 1.0
C      1  0.5804690000000  0.5557800000000  0.4656110000000 1.0
C      1  0.3963050000000  0.5373370000000  0.4492410000000 1.0
C      1  0.5044100000000  0.3945990000000  0.5004010000000 1.0
C      1  0.3894380000000  0.5128490000000  0.4590200000000 1.0
C      1  0.5296030000000  0.5971420000000  0.5633730000000 1.0
C      1  0.4674860000000  0.5444950000000  0.5564010000000 1.0
C      1  0.5188780000000  0.4190930000000  0.4615280000000 1.0
C      1  0.5070950000000  0.5995920000000  0.4292790000000 1.0
C      1  0.4922220000000  0.4894360000000  0.5062040000000 1.0
C      1  0.5056430000000  0.5106270000000  0.4028840000000 1.0
C      1  0.6103730000000  0.5577710000000  0.5071170000000 1.0
C      1  0.5310290000000  0.4952340000000  0.5442210000000 1.0
C      1  0.5448160000000  0.4935370000000  0.6063700000000 1.0
C      1  0.5121410000000  0.5715900000000  0.4314390000000 1.0
C      1  0.4378040000000  0.5128040000000  0.5771570000000 1.0
C      1  0.4306270000000  0.5329420000000  0.5012690000000 1.0
C      1  0.6131430000000  0.5740580000000  0.5294860000000 1.0
C      1  0.4940440000000  0.4718100000000  0.5278200000000 1.0
C      1  0.5630350000000  0.4146280000000  0.5084990000000 1.0
END
