TITL C-612606-7351-398 2.92494534364383e-05 125000 -125.059589614317 0 0 22 (C1) n - 1
REM
REM in /home/nfs/bkarasulu/CARBON/AIRSS/Generating-Clusters/TERSOFF/Only-C1/FIRE-HFTN
REM
REM
REM
REM
REM
REM ./C.cell (11c1c37f851c82e70ff6c80c92926a4b)
REM AIRSS Version 0.9.1 bugfix July 2018 build 013d7b7c2542+ Fri, 06 Jul 2018 19:26:36 +0100
REM compiler GCC version 9.2.1 20190827 (Red Hat 9.2.1-1)
REM options -cpp -mtune=generic -march=x86-64 -g -O0 -fpre-include=/usr/include/finclude/math-vector-fortran.h
REM seed -1775310307 528307735 -1624898068 -116288520 1352126192 217508094 285768391 -2053938446 506050619 1434840630 -1640453559 1433294800 -328999189 -519254303 -1155202217 1666197031 -2078762038 -2045914694 1691430076 -811912043 1088365616 892549951 710659035 -1658710466 -1616614903 -545760896 -872299206 -862715052 -1376212852 -687655566 -477256098 -1393388532 -633221522
REM
CELL 1.54180   50.00000   50.00000   50.00000   90.00000   90.00000   90.00000
LATT -1
SFAC C  
C      1  0.5568740000000  0.4773300000000  0.4689040000000 1.0
C      1  0.4730510000000  0.5250030000000  0.5429340000000 1.0
C      1  0.5669050000000  0.5142230000000  0.5310010000000 1.0
C      1  0.4933810000000  0.4672720000000  0.4900680000000 1.0
C      1  0.4416070000000  0.5120460000000  0.4565050000000 1.0
C      1  0.4968270000000  0.5324110000000  0.5522870000000 1.0
C      1  0.5046260000000  0.4856720000000  0.4694210000000 1.0
C      1  0.5233940000000  0.5321500000000  0.5533610000000 1.0
C      1  0.5763420000000  0.5002660000000  0.5104170000000 1.0
C      1  0.5081330000000  0.5130910000000  0.4815540000000 1.0
C      1  0.4635080000000  0.4816020000000  0.5245480000000 1.0
C      1  0.5732590000000  0.4866240000000  0.4877630000000 1.0
C      1  0.4851660000000  0.4884220000000  0.4469250000000 1.0
C      1  0.4609920000000  0.4993370000000  0.4432050000000 1.0
C      1  0.4401990000000  0.5196790000000  0.5068460000000 1.0
C      1  0.4342140000000  0.5201740000000  0.4808420000000 1.0
C      1  0.5115120000000  0.5383220000000  0.4870480000000 1.0
C      1  0.5480530000000  0.5255330000000  0.5459520000000 1.0
C      1  0.4756510000000  0.4350140000000  0.5212630000000 1.0
C      1  0.4573830000000  0.5089470000000  0.5262300000000 1.0
C      1  0.5314530000000  0.4761980000000  0.4607490000000 1.0
C      1  0.4774680000000  0.4606850000000  0.5121760000000 1.0
END
