TITL C-612606-7351-522 110786.987045062 125000 -916.693249867743 0 0 150 (C1) n - 1
REM
REM in /home/nfs/bkarasulu/CARBON/AIRSS/Generating-Clusters/TERSOFF/Only-C1/FIRE-HFTN
REM
REM
REM
REM
REM
REM ./C.cell (11c1c37f851c82e70ff6c80c92926a4b)
REM AIRSS Version 0.9.1 bugfix July 2018 build 013d7b7c2542+ Fri, 06 Jul 2018 19:26:36 +0100
REM compiler GCC version 9.2.1 20190827 (Red Hat 9.2.1-1)
REM options -cpp -mtune=generic -march=x86-64 -g -O0 -fpre-include=/usr/include/finclude/math-vector-fortran.h
REM seed -762345857 -1128984870 1457727333 83260598 -161822762 -1664185652 -2086933672 -344240815 1300474842 -1848913631 -1933165321 -2011103513 -728410998 1170864 -2037550107 -1132328241 2009963024 970788453 -2131465658 333170136 270287404 -1357352180 -1264634303 -98839660 -1752254455 -1442950095 1776546227 1943993948 1030441480 1736979915 396461141 1313235822 812375612
REM
CELL 1.54180   50.00000   50.00000   50.00000   90.00000   90.00000   90.00000
LATT -1
SFAC C  
C      1  0.5307570000000  0.5087210000000  0.4911780000000 1.0
C      1  0.5192750000000  0.4314210000000  0.4833870000000 1.0
C      1  0.5755760000000  0.5770660000000  0.5246110000000 1.0
C      1  0.5124260000000  0.3853860000000  0.4654510000000 1.0
C      1  0.4873870000000  0.4288210000000  0.4772800000000 1.0
C      1  0.4153990000000  0.5057820000000  0.4733110000000 1.0
C      1  0.4445310000000  0.4304580000000  0.4488740000000 1.0
C      1  0.4636300000000  0.4743160000000  0.5086620000000 1.0
C      1  0.5696330000000  0.5292120000000  0.5174490000000 1.0
C      1  0.4347930000000  0.5226380000000  0.4608710000000 1.0
C      1  0.5322660000000  0.5411460000000  0.4515610000000 1.0
C      1  0.5570010000000  0.4214100000000  0.5680670000000 1.0
C      1  0.4712270000000  0.4434730000000  0.5438250000000 1.0
C      1  0.5960910000000  0.5114820000000  0.4900800000000 1.0
C      1  0.5139860000000  0.4896690000000  0.3822870000000 1.0
C      1  0.6475380000000  0.4980110000000  0.5135630000000 1.0
C      1  0.5104910000000  0.5446050000000  0.3916590000000 1.0
C      1  0.5376900000000  0.6048810000000  0.4949880000000 1.0
C      1  0.4687160000000  0.4691890000000  0.4602270000000 1.0
C      1  0.5021280000000  0.5616780000000  0.4875520000000 1.0
C      1  0.5194420000000  0.6210710000000  0.5104630000000 1.0
C      1  0.5432700000000  0.4178260000000  0.4144830000000 1.0
C      1  0.4616680000000  0.5981590000000  0.5009590000000 1.0
C      1  0.4185430000000  0.5685790000000  0.5521460000000 1.0
C      1  0.5273120000000  0.5538950000000  0.4957910000000 1.0
C      1  0.5551090000000  0.4917120000000  0.4126830000000 1.0
C      1  0.5691580000000  0.5157360000000  0.4213890000000 1.0
C      1  0.5751150000000  0.4151510000000  0.4937240000000 1.0
C      1  0.5589780000000  0.5961470000000  0.6187360000000 1.0
C      1  0.3692010000000  0.5226410000000  0.5772010000000 1.0
C      1  0.4854680000000  0.5270980000000  0.3925200000000 1.0
C      1  0.4676010000000  0.4472730000000  0.5168620000000 1.0
C      1  0.4947060000000  0.3757090000000  0.4857740000000 1.0
C      1  0.5252000000000  0.5995880000000  0.4607170000000 1.0
C      1  0.4833000000000  0.5732210000000  0.4159060000000 1.0
C      1  0.5423870000000  0.5331960000000  0.4778020000000 1.0
C      1  0.4645370000000  0.4878820000000  0.4392770000000 1.0
C      1  0.5758440000000  0.5201290000000  0.4724120000000 1.0
C      1  0.5470980000000  0.5105610000000  0.5171030000000 1.0
C      1  0.6468700000000  0.4967540000000  0.5418490000000 1.0
C      1  0.5279220000000  0.4684720000000  0.4488240000000 1.0
C      1  0.4799420000000  0.5136060000000  0.6126840000000 1.0
C      1  0.5601360000000  0.4697500000000  0.5756670000000 1.0
C      1  0.4665240000000  0.5350870000000  0.5484420000000 1.0
C      1  0.4554760000000  0.5526530000000  0.5259970000000 1.0
C      1  0.4460770000000  0.4883580000000  0.5281990000000 1.0
C      1  0.4058040000000  0.5098890000000  0.5003720000000 1.0
C      1  0.4613270000000  0.5136470000000  0.4517510000000 1.0
C      1  0.5361330000000  0.5312250000000  0.3923250000000 1.0
C      1  0.5591990000000  0.4024670000000  0.4757340000000 1.0
C      1  0.4244710000000  0.4935220000000  0.4108430000000 1.0
C      1  0.5347680000000  0.4328850000000  0.5107460000000 1.0
C      1  0.6188880000000  0.5294280000000  0.4919680000000 1.0
C      1  0.4424690000000  0.4011880000000  0.5909160000000 1.0
C      1  0.4804010000000  0.3762930000000  0.5089260000000 1.0
C      1  0.5382300000000  0.5109520000000  0.5447490000000 1.0
C      1  0.4789230000000  0.4811670000000  0.4842980000000 1.0
C      1  0.4202280000000  0.5748350000000  0.4977340000000 1.0
C      1  0.5160680000000  0.4395510000000  0.5534100000000 1.0
C      1  0.4346090000000  0.4119890000000  0.4681340000000 1.0
C      1  0.4031980000000  0.5463730000000  0.5425770000000 1.0
C      1  0.5316050000000  0.5658930000000  0.5212150000000 1.0
C      1  0.5311270000000  0.4055830000000  0.4731240000000 1.0
C      1  0.5757420000000  0.4499550000000  0.5321220000000 1.0
C      1  0.4107270000000  0.4268600000000  0.5260460000000 1.0
C      1  0.4266650000000  0.5946880000000  0.5914430000000 1.0
C      1  0.4067920000000  0.4852050000000  0.4556870000000 1.0
C      1  0.5149430000000  0.3928320000000  0.5643790000000 1.0
C      1  0.3843740000000  0.5356390000000  0.5604660000000 1.0
C      1  0.4688580000000  0.4258500000000  0.4988490000000 1.0
C      1  0.4703240000000  0.4413420000000  0.4567000000000 1.0
C      1  0.4985650000000  0.6088240000000  0.4644310000000 1.0
C      1  0.4251790000000  0.5489600000000  0.4544250000000 1.0
C      1  0.4967330000000  0.5370990000000  0.5506430000000 1.0
C      1  0.4836740000000  0.4940800000000  0.5928700000000 1.0
C      1  0.6437090000000  0.5235870000000  0.5016080000000 1.0
C      1  0.5509690000000  0.5866620000000  0.5138400000000 1.0
C      1  0.4302820000000  0.4073220000000  0.5191880000000 1.0
C      1  0.4174610000000  0.4743840000000  0.4313770000000 1.0
C      1  0.4919350000000  0.3826440000000  0.5551820000000 1.0
C      1  0.5751200000000  0.4931870000000  0.5688250000000 1.0
C      1  0.4613060000000  0.4889200000000  0.5753040000000 1.0
C      1  0.4661250000000  0.5381580000000  0.5033040000000 1.0
C      1  0.5636960000000  0.4325670000000  0.5127040000000 1.0
C      1  0.5677170000000  0.4463470000000  0.5602170000000 1.0
C      1  0.4469870000000  0.3990720000000  0.5415970000000 1.0
C      1  0.4118580000000  0.5638540000000  0.4745060000000 1.0
C      1  0.5348480000000  0.4733630000000  0.5884380000000 1.0
C      1  0.5713740000000  0.5425810000000  0.5622000000000 1.0
C      1  0.4773340000000  0.6088450000000  0.4814760000000 1.0
C      1  0.5770120000000  0.5503470000000  0.5350970000000 1.0
C      1  0.5558610000000  0.5401230000000  0.4118740000000 1.0
C      1  0.5092810000000  0.4814940000000  0.5916420000000 1.0
C      1  0.5819910000000  0.5169630000000  0.4457310000000 1.0
C      1  0.4794480000000  0.5149120000000  0.5114500000000 1.0
C      1  0.4441610000000  0.4114230000000  0.4948050000000 1.0
C      1  0.5138450000000  0.4736590000000  0.5115890000000 1.0
C      1  0.5594580000000  0.5163150000000  0.5634440000000 1.0
C      1  0.4893350000000  0.5637500000000  0.4423730000000 1.0
C      1  0.5975110000000  0.4883040000000  0.5517510000000 1.0
C      1  0.5732430000000  0.5595650000000  0.5840370000000 1.0
C      1  0.5679500000000  0.5778000000000  0.6025290000000 1.0
C      1  0.4583020000000  0.6003760000000  0.5559600000000 1.0
C      1  0.4662760000000  0.5656280000000  0.4589290000000 1.0
C      1  0.5267230000000  0.3971370000000  0.4192400000000 1.0
C      1  0.4198750000000  0.4754260000000  0.5303840000000 1.0
C      1  0.5225550000000  0.4617960000000  0.4773290000000 1.0
C      1  0.4993620000000  0.4974330000000  0.5233810000000 1.0
C      1  0.5043830000000  0.5402500000000  0.4477400000000 1.0
C      1  0.3988910000000  0.4861440000000  0.5146920000000 1.0
C      1  0.4895070000000  0.5194230000000  0.4590460000000 1.0
C      1  0.5377910000000  0.5017680000000  0.3909520000000 1.0
C      1  0.4753010000000  0.5556420000000  0.4836680000000 1.0
C      1  0.5084780000000  0.5713900000000  0.4037330000000 1.0
C      1  0.5503370000000  0.4680510000000  0.4293070000000 1.0
C      1  0.4901400000000  0.4429110000000  0.5622570000000 1.0
C      1  0.6301660000000  0.4787590000000  0.5009170000000 1.0
C      1  0.5055400000000  0.4701540000000  0.4309460000000 1.0
C      1  0.4346030000000  0.5878340000000  0.5659890000000 1.0
C      1  0.4173950000000  0.4494110000000  0.5421020000000 1.0
C      1  0.6245450000000  0.4940770000000  0.5568570000000 1.0
C      1  0.5458620000000  0.5572820000000  0.4326500000000 1.0
C      1  0.4444400000000  0.5630820000000  0.4395170000000 1.0
C      1  0.5298480000000  0.4164980000000  0.5634090000000 1.0
C      1  0.6018620000000  0.4850370000000  0.5027410000000 1.0
C      1  0.4804380000000  0.6122410000000  0.5459520000000 1.0
C      1  0.5316330000000  0.5817470000000  0.4300180000000 1.0
C      1  0.5024470000000  0.5008060000000  0.4780170000000 1.0
C      1  0.4841730000000  0.4846010000000  0.4191180000000 1.0
C      1  0.4564220000000  0.5610340000000  0.4124920000000 1.0
C      1  0.5904190000000  0.4742080000000  0.5269850000000 1.0
C      1  0.4447270000000  0.5776200000000  0.5123850000000 1.0
C      1  0.4329560000000  0.4425440000000  0.5655310000000 1.0
C      1  0.5132180000000  0.5594240000000  0.5422210000000 1.0
C      1  0.4373630000000  0.5153920000000  0.4008630000000 1.0
C      1  0.3737560000000  0.4755930000000  0.5137120000000 1.0
C      1  0.4559750000000  0.5054830000000  0.5512410000000 1.0
C      1  0.5007400000000  0.6205770000000  0.5301320000000 1.0
C      1  0.4717770000000  0.3843700000000  0.5353800000000 1.0
C      1  0.4903290000000  0.4986020000000  0.3952400000000 1.0
C      1  0.5546200000000  0.4418530000000  0.4188770000000 1.0
C      1  0.4454560000000  0.4649310000000  0.5786460000000 1.0
C      1  0.5104210000000  0.5117500000000  0.5458480000000 1.0
C      1  0.4278030000000  0.4476840000000  0.4332310000000 1.0
C      1  0.4055950000000  0.5330250000000  0.5172530000000 1.0
C      1  0.5127060000000  0.3824780000000  0.4372640000000 1.0
C      1  0.4411670000000  0.4140330000000  0.5666280000000 1.0
C      1  0.4579760000000  0.5354970000000  0.3989800000000 1.0
C      1  0.5217980000000  0.4511250000000  0.5280580000000 1.0
C      1  0.4766370000000  0.5338840000000  0.6287180000000 1.0
END
