TITL C-612605-9286-182 -0.00348491978986013 125000 -332.260269924977 0 0 55 (C1) n - 1
REM
REM in /home/nfs/bkarasulu/CARBON/AIRSS/Generating-Clusters/TERSOFF/Only-C1/FIRE-HFTN
REM
REM
REM
REM
REM
REM ./C.cell (11c1c37f851c82e70ff6c80c92926a4b)
REM AIRSS Version 0.9.1 bugfix July 2018 build 013d7b7c2542+ Fri, 06 Jul 2018 19:26:36 +0100
REM compiler GCC version 9.2.1 20190827 (Red Hat 9.2.1-1)
REM options -cpp -mtune=generic -march=x86-64 -g -O0 -fpre-include=/usr/include/finclude/math-vector-fortran.h
REM seed 956513785 -607803096 -1157574305 -1528224883 216756495 1135528606 -1823024767 1532851128 972399894 1187913949 363965301 1131283395 384806206 1183275284 2025378628 -287856923 -1154890950 -906051984 -906618425 -1507938313 463659091 1148011298 1524830526 1042681185 533788320 -2048423565 1873382832 -1994418593 -1797807491 1153948827 -326809139 1555895115 -263279864
REM
CELL 1.54180   50.00000   50.00000   50.00000   90.00000   90.00000   90.00000
LATT -1
SFAC C  
C      1  0.4836400000000  0.4813510000000  0.3817710000000 1.0
C      1  0.4841360000000  0.5315600000000  0.4396890000000 1.0
C      1  0.5057330000000  0.5154700000000  0.4281430000000 1.0
C      1  0.5730280000000  0.5073920000000  0.5357400000000 1.0
C      1  0.5577510000000  0.5275710000000  0.4739160000000 1.0
C      1  0.5382260000000  0.5413980000000  0.4555650000000 1.0
C      1  0.5161340000000  0.4377390000000  0.4818310000000 1.0
C      1  0.4373770000000  0.5235880000000  0.4632260000000 1.0
C      1  0.4418680000000  0.4815410000000  0.5228060000000 1.0
C      1  0.5330430000000  0.5247810000000  0.4321000000000 1.0
C      1  0.5112540000000  0.5335890000000  0.5605020000000 1.0
C      1  0.5208000000000  0.4479410000000  0.5063100000000 1.0
C      1  0.5179680000000  0.4893960000000  0.4717850000000 1.0
C      1  0.5704300000000  0.5092320000000  0.4557300000000 1.0
C      1  0.5859060000000  0.4774200000000  0.5753680000000 1.0
C      1  0.4158070000000  0.4704480000000  0.5228730000000 1.0
C      1  0.4337930000000  0.5464810000000  0.4796150000000 1.0
C      1  0.4601890000000  0.4846750000000  0.5443040000000 1.0
C      1  0.4786880000000  0.4499170000000  0.5801000000000 1.0
C      1  0.4642990000000  0.4645940000000  0.5632870000000 1.0
C      1  0.5516860000000  0.4472430000000  0.5997570000000 1.0
C      1  0.4756660000000  0.5020940000000  0.4949980000000 1.0
C      1  0.5248040000000  0.5492880000000  0.4981220000000 1.0
C      1  0.5242760000000  0.4683140000000  0.5234510000000 1.0
C      1  0.5003460000000  0.4416650000000  0.5930690000000 1.0
C      1  0.4881230000000  0.5507570000000  0.5601510000000 1.0
C      1  0.4569720000000  0.5241790000000  0.4427160000000 1.0
C      1  0.5654150000000  0.4942750000000  0.4080270000000 1.0
C      1  0.5008880000000  0.5017180000000  0.4878100000000 1.0
C      1  0.4383210000000  0.5529660000000  0.5052710000000 1.0
C      1  0.5732300000000  0.4602560000000  0.5912290000000 1.0
C      1  0.3990300000000  0.4725150000000  0.5015090000000 1.0
C      1  0.5064500000000  0.5081310000000  0.5472100000000 1.0
C      1  0.4927030000000  0.5527980000000  0.4570140000000 1.0
C      1  0.5570680000000  0.5079190000000  0.4299540000000 1.0
C      1  0.4769170000000  0.5076430000000  0.5448650000000 1.0
C      1  0.5487950000000  0.5113030000000  0.5221700000000 1.0
C      1  0.5466610000000  0.5298540000000  0.5008110000000 1.0
C      1  0.4061660000000  0.4859760000000  0.4789200000000 1.0
C      1  0.5112310000000  0.4450690000000  0.4550480000000 1.0
C      1  0.4675590000000  0.5354480000000  0.5462940000000 1.0
C      1  0.5033420000000  0.4867880000000  0.4263290000000 1.0
C      1  0.5131560000000  0.4731180000000  0.4497140000000 1.0
C      1  0.5259310000000  0.4407420000000  0.6001340000000 1.0
C      1  0.5011830000000  0.4305380000000  0.4331100000000 1.0
C      1  0.4927530000000  0.4428690000000  0.4104350000000 1.0
C      1  0.4488150000000  0.5470270000000  0.5291210000000 1.0
C      1  0.4310340000000  0.4992930000000  0.4768060000000 1.0
C      1  0.5171050000000  0.5539730000000  0.4706150000000 1.0
C      1  0.5860680000000  0.4947500000000  0.5551880000000 1.0
C      1  0.4858950000000  0.5761440000000  0.5707390000000 1.0
C      1  0.4497590000000  0.4928200000000  0.4976820000000 1.0
C      1  0.5263470000000  0.4953930000000  0.5315210000000 1.0
C      1  0.4928430000000  0.4708250000000  0.4051610000000 1.0
C      1  0.4833950000000  0.6002240000000  0.5803880000000 1.0
END
