TITL C-612600-6631-56 74471.6589397193 125000 -879.36199940462 0 0 146 (C1) n - 1
REM
REM in /home/nfs/bkarasulu/CARBON/AIRSS/Generating-Clusters/TERSOFF/Only-C1/FIRE-HFTN
REM
REM
REM
REM
REM
REM ./C.cell (11c1c37f851c82e70ff6c80c92926a4b)
REM AIRSS Version 0.9.1 bugfix July 2018 build 013d7b7c2542+ Fri, 06 Jul 2018 19:26:36 +0100
REM compiler GCC version 9.2.1 20190827 (Red Hat 9.2.1-1)
REM options -cpp -mtune=generic -march=x86-64 -g -O0 -fpre-include=/usr/include/finclude/math-vector-fortran.h
REM seed 302503043 -1631054291 -1368804564 1577688799 -1441746391 -1778576893 -195469486 26654639 1657507896 1657580944 541040361 -1173543561 -1945616118 -1880099060 -578657773 -1223639569 975058588 1983218926 1562632702 -2025064993 -2011809277 592210936 468797797 -1995243660 1916277710 1968334214 -1009164293 1644216399 -954917957 84912541 -1308145466 2052245038 -587303107
REM
CELL 1.54180   50.00000   50.00000   50.00000   90.00000   90.00000   90.00000
LATT -1
SFAC C  
C      1  0.4618610000000  0.4493910000000  0.5536230000000 1.0
C      1  0.4650590000000  0.4906540000000  0.3888750000000 1.0
C      1  0.5130210000000  0.4891860000000  0.4510340000000 1.0
C      1  0.5588320000000  0.4765960000000  0.3824760000000 1.0
C      1  0.4346140000000  0.4643390000000  0.5917480000000 1.0
C      1  0.4634050000000  0.6153750000000  0.5437160000000 1.0
C      1  0.5351630000000  0.4697770000000  0.3724340000000 1.0
C      1  0.4625330000000  0.5298730000000  0.4187740000000 1.0
C      1  0.4122110000000  0.4232340000000  0.4811470000000 1.0
C      1  0.4791890000000  0.5388430000000  0.4692630000000 1.0
C      1  0.5570260000000  0.4114040000000  0.5428610000000 1.0
C      1  0.5698550000000  0.5388010000000  0.4817750000000 1.0
C      1  0.5113440000000  0.6368210000000  0.5072470000000 1.0
C      1  0.5949120000000  0.5440750000000  0.5237920000000 1.0
C      1  0.5799230000000  0.5325750000000  0.5701260000000 1.0
C      1  0.5245490000000  0.4218990000000  0.5959510000000 1.0
C      1  0.4266490000000  0.4980960000000  0.4242560000000 1.0
C      1  0.5325530000000  0.5578590000000  0.5589380000000 1.0
C      1  0.4589260000000  0.3822310000000  0.4426820000000 1.0
C      1  0.6199440000000  0.4999990000000  0.5306510000000 1.0
C      1  0.5605090000000  0.4058280000000  0.5144980000000 1.0
C      1  0.4907300000000  0.4945740000000  0.3781870000000 1.0
C      1  0.5228590000000  0.5557020000000  0.5865610000000 1.0
C      1  0.4858080000000  0.5377520000000  0.4342850000000 1.0
C      1  0.5106570000000  0.4579110000000  0.4463660000000 1.0
C      1  0.4306410000000  0.4908090000000  0.5922250000000 1.0
C      1  0.4635140000000  0.5294150000000  0.5010460000000 1.0
C      1  0.5703620000000  0.6145510000000  0.4950770000000 1.0
C      1  0.4995210000000  0.5187290000000  0.6062220000000 1.0
C      1  0.5412580000000  0.4269960000000  0.4723480000000 1.0
C      1  0.5658740000000  0.4147840000000  0.4185020000000 1.0
C      1  0.5564600000000  0.6032250000000  0.5431890000000 1.0
C      1  0.5340800000000  0.5140090000000  0.4527080000000 1.0
C      1  0.6102150000000  0.4801550000000  0.5461690000000 1.0
C      1  0.5262960000000  0.5302500000000  0.6036900000000 1.0
C      1  0.5107610000000  0.5993450000000  0.4237350000000 1.0
C      1  0.4503410000000  0.5050470000000  0.4077660000000 1.0
C      1  0.5663410000000  0.4205720000000  0.5689320000000 1.0
C      1  0.5430590000000  0.5659830000000  0.4383530000000 1.0
C      1  0.4561260000000  0.5826370000000  0.4663970000000 1.0
C      1  0.4421020000000  0.5427320000000  0.4345240000000 1.0
C      1  0.5405940000000  0.4222640000000  0.4239910000000 1.0
C      1  0.4052430000000  0.5230590000000  0.4597080000000 1.0
C      1  0.4787650000000  0.4054290000000  0.5412400000000 1.0
C      1  0.4596340000000  0.5018680000000  0.4581540000000 1.0
C      1  0.5089460000000  0.4745350000000  0.3714170000000 1.0
C      1  0.4286300000000  0.4093910000000  0.4995780000000 1.0
C      1  0.4363990000000  0.5411760000000  0.5086740000000 1.0
C      1  0.5507070000000  0.5676360000000  0.5142420000000 1.0
C      1  0.5036560000000  0.4682530000000  0.5090570000000 1.0
C      1  0.5672020000000  0.4715100000000  0.4714940000000 1.0
C      1  0.4432700000000  0.4808350000000  0.5035920000000 1.0
C      1  0.4707780000000  0.4476570000000  0.4758190000000 1.0
C      1  0.5187250000000  0.5734440000000  0.4267880000000 1.0
C      1  0.4940370000000  0.5618400000000  0.5884020000000 1.0
C      1  0.5747650000000  0.4852140000000  0.4019330000000 1.0
C      1  0.4144540000000  0.5359810000000  0.5900510000000 1.0
C      1  0.4038170000000  0.4828460000000  0.4352080000000 1.0
C      1  0.5498060000000  0.4519380000000  0.4824190000000 1.0
C      1  0.5130540000000  0.6119270000000  0.4996670000000 1.0
C      1  0.4326980000000  0.4184350000000  0.5263900000000 1.0
C      1  0.4830600000000  0.4472240000000  0.4497560000000 1.0
C      1  0.4802700000000  0.5373350000000  0.5956130000000 1.0
C      1  0.4433220000000  0.5697700000000  0.5110420000000 1.0
C      1  0.5082640000000  0.5862140000000  0.4891100000000 1.0
C      1  0.5686400000000  0.4899830000000  0.5144520000000 1.0
C      1  0.5557450000000  0.4584230000000  0.6024410000000 1.0
C      1  0.3904780000000  0.5162210000000  0.5152600000000 1.0
C      1  0.4349790000000  0.5181130000000  0.5868480000000 1.0
C      1  0.5142140000000  0.3960720000000  0.5012530000000 1.0
C      1  0.5461840000000  0.5768060000000  0.5415910000000 1.0
C      1  0.4676640000000  0.5697420000000  0.5272700000000 1.0
C      1  0.5351940000000  0.4835470000000  0.5465170000000 1.0
C      1  0.4508620000000  0.3755720000000  0.4672590000000 1.0
C      1  0.4877300000000  0.4032090000000  0.5685560000000 1.0
C      1  0.5912220000000  0.5479860000000  0.5514630000000 1.0
C      1  0.3742960000000  0.4988730000000  0.5021560000000 1.0
C      1  0.4825130000000  0.5814800000000  0.5723670000000 1.0
C      1  0.5894430000000  0.4218450000000  0.4294290000000 1.0
C      1  0.5306420000000  0.4633060000000  0.4988650000000 1.0
C      1  0.3895230000000  0.4994270000000  0.4547140000000 1.0
C      1  0.4054150000000  0.4357090000000  0.4584910000000 1.0
C      1  0.4876070000000  0.4949380000000  0.4661400000000 1.0
C      1  0.5741560000000  0.5526370000000  0.5059440000000 1.0
C      1  0.5449310000000  0.5186710000000  0.4827100000000 1.0
C      1  0.5480520000000  0.5111950000000  0.6009160000000 1.0
C      1  0.4882430000000  0.4444180000000  0.4980730000000 1.0
C      1  0.5397690000000  0.4066810000000  0.4932360000000 1.0
C      1  0.5621610000000  0.4764150000000  0.5380610000000 1.0
C      1  0.5055420000000  0.5463710000000  0.3893000000000 1.0
C      1  0.4354440000000  0.5820860000000  0.4864500000000 1.0
C      1  0.4893890000000  0.4903190000000  0.4950240000000 1.0
C      1  0.4959360000000  0.4912530000000  0.6029720000000 1.0
C      1  0.5037230000000  0.5517710000000  0.4174300000000 1.0
C      1  0.5669480000000  0.6165230000000  0.5218150000000 1.0
C      1  0.6135320000000  0.5232700000000  0.5184720000000 1.0
C      1  0.4094250000000  0.5340640000000  0.5047660000000 1.0
C      1  0.4506510000000  0.6380400000000  0.5419660000000 1.0
C      1  0.5292380000000  0.4163790000000  0.5448930000000 1.0
C      1  0.5505580000000  0.4329530000000  0.5904770000000 1.0
C      1  0.3729360000000  0.4916110000000  0.4761000000000 1.0
C      1  0.4658770000000  0.4035490000000  0.4281680000000 1.0
C      1  0.4937160000000  0.3953170000000  0.5190500000000 1.0
C      1  0.4039280000000  0.4551950000000  0.4401930000000 1.0
C      1  0.5499580000000  0.5373460000000  0.4393880000000 1.0
C      1  0.5581780000000  0.5158680000000  0.5748240000000 1.0
C      1  0.5757620000000  0.5382710000000  0.4538800000000 1.0
C      1  0.5668110000000  0.6029940000000  0.4710080000000 1.0
C      1  0.4099150000000  0.5719070000000  0.4764080000000 1.0
C      1  0.4967260000000  0.4205840000000  0.5897420000000 1.0
C      1  0.4410040000000  0.3861880000000  0.4896910000000 1.0
C      1  0.4721180000000  0.5890850000000  0.5474620000000 1.0
C      1  0.5831880000000  0.4844340000000  0.4271860000000 1.0
C      1  0.5966180000000  0.4425840000000  0.4450440000000 1.0
C      1  0.5519770000000  0.4843390000000  0.6095020000000 1.0
C      1  0.5168770000000  0.4394520000000  0.5434940000000 1.0
C      1  0.5118880000000  0.5665150000000  0.3717990000000 1.0
C      1  0.4027170000000  0.5441630000000  0.4784180000000 1.0
C      1  0.4535240000000  0.4458940000000  0.5821790000000 1.0
C      1  0.4679290000000  0.5276990000000  0.5507760000000 1.0
C      1  0.4851220000000  0.4692100000000  0.5569910000000 1.0
C      1  0.5844860000000  0.4677330000000  0.4497140000000 1.0
C      1  0.4731330000000  0.4291280000000  0.4306890000000 1.0
C      1  0.5087230000000  0.5332930000000  0.5223310000000 1.0
C      1  0.5858450000000  0.4696070000000  0.5519740000000 1.0
C      1  0.4242360000000  0.4784840000000  0.5228790000000 1.0
C      1  0.4474680000000  0.5691120000000  0.4428270000000 1.0
C      1  0.5006300000000  0.5208140000000  0.3792510000000 1.0
C      1  0.5273220000000  0.5654270000000  0.4962810000000 1.0
C      1  0.4643480000000  0.4999670000000  0.5046730000000 1.0
C      1  0.4913750000000  0.4696060000000  0.5862670000000 1.0
C      1  0.5378040000000  0.5104240000000  0.5552410000000 1.0
C      1  0.4469200000000  0.4610230000000  0.4833500000000 1.0
C      1  0.4581700000000  0.4255840000000  0.5375310000000 1.0
C      1  0.4107150000000  0.4192530000000  0.5429420000000 1.0
C      1  0.5090950000000  0.4680790000000  0.5391720000000 1.0
C      1  0.5615820000000  0.4940510000000  0.4881140000000 1.0
C      1  0.4603090000000  0.5275030000000  0.5779080000000 1.0
C      1  0.5228100000000  0.5360520000000  0.4972220000000 1.0
C      1  0.5582010000000  0.5859330000000  0.4520700000000 1.0
C      1  0.4324910000000  0.5176890000000  0.4486960000000 1.0
C      1  0.5294060000000  0.4347500000000  0.4465930000000 1.0
C      1  0.4801590000000  0.4437210000000  0.5948930000000 1.0
C      1  0.4798720000000  0.5405460000000  0.5256760000000 1.0
C      1  0.4836930000000  0.5847040000000  0.4741790000000 1.0
C      1  0.5252070000000  0.5331970000000  0.5451580000000 1.0
END
