TITL C-612602-9376-332 -0.00180393550199693 125000 -1173.43869372549 0 0 190 (C1) n - 1
REM
REM in /home/nfs/bkarasulu/CARBON/AIRSS/Generating-Clusters/TERSOFF/Only-C1/FIRE-HFTN
REM
REM
REM
REM
REM
REM ./C.cell (11c1c37f851c82e70ff6c80c92926a4b)
REM AIRSS Version 0.9.1 bugfix July 2018 build 013d7b7c2542+ Fri, 06 Jul 2018 19:26:36 +0100
REM compiler GCC version 9.2.1 20190827 (Red Hat 9.2.1-1)
REM options -cpp -mtune=generic -march=x86-64 -g -O0 -fpre-include=/usr/include/finclude/math-vector-fortran.h
REM seed 1654932214 -1808810989 -191409147 -1037614895 1111702015 -2044976385 463337666 -322048866 508328284 -370331499 -1738368845 -1660937014 -557076098 1230629595 -1623678078 366780005 1774986450 204389188 820751220 1306442101 1783975701 -1916289879 -344424967 -36696581 -2104384317 -103841184 353441764 795817853 1027603875 -328829954 -894151797 1431755518 1289982765
REM
CELL 1.54180   50.00000   50.00000   50.00000   90.00000   90.00000   90.00000
LATT -1
SFAC C  
C      1  0.4585770000000  0.5564330000000  0.5991250000000 1.0
C      1  0.6108230000000  0.4393010000000  0.5212520000000 1.0
C      1  0.5104510000000  0.5975720000000  0.5430940000000 1.0
C      1  0.5856730000000  0.4329400000000  0.4074380000000 1.0
C      1  0.5017020000000  0.5031930000000  0.5195070000000 1.0
C      1  0.4530950000000  0.5065510000000  0.5152090000000 1.0
C      1  0.5705500000000  0.6139940000000  0.5149100000000 1.0
C      1  0.4658090000000  0.5210900000000  0.4692040000000 1.0
C      1  0.5481780000000  0.4894370000000  0.5102900000000 1.0
C      1  0.4716780000000  0.5414240000000  0.4215570000000 1.0
C      1  0.5237130000000  0.4257400000000  0.5498270000000 1.0
C      1  0.5960110000000  0.4356150000000  0.4970750000000 1.0
C      1  0.3853350000000  0.4857430000000  0.4889760000000 1.0
C      1  0.4460910000000  0.4817260000000  0.4535500000000 1.0
C      1  0.6725750000000  0.5800610000000  0.4718660000000 1.0
C      1  0.5042720000000  0.5521440000000  0.4842290000000 1.0
C      1  0.5713140000000  0.5797090000000  0.4252530000000 1.0
C      1  0.6688250000000  0.5835980000000  0.4453840000000 1.0
C      1  0.5151610000000  0.4955740000000  0.5467990000000 1.0
C      1  0.4980460000000  0.3731890000000  0.4945620000000 1.0
C      1  0.4431100000000  0.4795810000000  0.5195460000000 1.0
C      1  0.4849740000000  0.3748360000000  0.5181430000000 1.0
C      1  0.4740190000000  0.5144720000000  0.5683950000000 1.0
C      1  0.5599330000000  0.4587170000000  0.4530640000000 1.0
C      1  0.4855920000000  0.6003960000000  0.5578260000000 1.0
C      1  0.5758300000000  0.5692930000000  0.4986260000000 1.0
C      1  0.5563400000000  0.5061080000000  0.4673230000000 1.0
C      1  0.4421450000000  0.5059300000000  0.4674320000000 1.0
C      1  0.6297230000000  0.5566340000000  0.4855030000000 1.0
C      1  0.5052510000000  0.6071520000000  0.4923900000000 1.0
C      1  0.4020100000000  0.4436180000000  0.5173360000000 1.0
C      1  0.4832990000000  0.4680280000000  0.5814800000000 1.0
C      1  0.3992860000000  0.4632580000000  0.5386640000000 1.0
C      1  0.6461110000000  0.5787810000000  0.4318070000000 1.0
C      1  0.4648620000000  0.4449380000000  0.5789580000000 1.0
C      1  0.5235460000000  0.4571910000000  0.3796240000000 1.0
C      1  0.5586160000000  0.5486380000000  0.5064870000000 1.0
C      1  0.4913240000000  0.4772350000000  0.5088080000000 1.0
C      1  0.5385460000000  0.5113370000000  0.5521840000000 1.0
C      1  0.5819340000000  0.5744770000000  0.5453280000000 1.0
C      1  0.4729010000000  0.4176090000000  0.5757850000000 1.0
C      1  0.4886230000000  0.4336080000000  0.5150290000000 1.0
C      1  0.5138250000000  0.4255820000000  0.5032560000000 1.0
C      1  0.3845850000000  0.5093640000000  0.5071240000000 1.0
C      1  0.6252010000000  0.5320080000000  0.4992330000000 1.0
C      1  0.3770660000000  0.5371060000000  0.5015670000000 1.0
C      1  0.4421070000000  0.4073320000000  0.4615620000000 1.0
C      1  0.5982680000000  0.4425430000000  0.4290350000000 1.0
C      1  0.5602170000000  0.4333530000000  0.3994970000000 1.0
C      1  0.5430920000000  0.3985760000000  0.5912230000000 1.0
C      1  0.6314050000000  0.5061750000000  0.4845220000000 1.0
C      1  0.4569840000000  0.4021590000000  0.5563400000000 1.0
C      1  0.4726070000000  0.4581590000000  0.4147750000000 1.0
C      1  0.4374850000000  0.4965680000000  0.3618590000000 1.0
C      1  0.3919300000000  0.4553780000000  0.4911430000000 1.0
C      1  0.4944030000000  0.5310670000000  0.5742360000000 1.0
C      1  0.4303260000000  0.4766330000000  0.5870080000000 1.0
C      1  0.4589270000000  0.5670130000000  0.4290740000000 1.0
C      1  0.5704520000000  0.4090470000000  0.5498100000000 1.0
C      1  0.5804280000000  0.5879350000000  0.5198090000000 1.0
C      1  0.4466190000000  0.5488270000000  0.5730430000000 1.0
C      1  0.5292660000000  0.4514630000000  0.5654410000000 1.0
C      1  0.3944830000000  0.4128190000000  0.4611570000000 1.0
C      1  0.4888860000000  0.4717820000000  0.4794130000000 1.0
C      1  0.5601310000000  0.3927210000000  0.5708180000000 1.0
C      1  0.4877990000000  0.4102940000000  0.4317480000000 1.0
C      1  0.4361100000000  0.5471190000000  0.4935860000000 1.0
C      1  0.4300210000000  0.5241650000000  0.5098130000000 1.0
C      1  0.4415950000000  0.4129070000000  0.5084130000000 1.0
C      1  0.4199570000000  0.4286870000000  0.5730320000000 1.0
C      1  0.5183990000000  0.5449060000000  0.5720190000000 1.0
C      1  0.6024850000000  0.5023940000000  0.5268890000000 1.0
C      1  0.5279810000000  0.5020890000000  0.4728550000000 1.0
C      1  0.4324670000000  0.5954290000000  0.5004090000000 1.0
C      1  0.4956470000000  0.4102060000000  0.5911700000000 1.0
C      1  0.4288970000000  0.4120230000000  0.5519740000000 1.0
C      1  0.4235870000000  0.5048010000000  0.3830110000000 1.0
C      1  0.4285830000000  0.4962130000000  0.5657970000000 1.0
C      1  0.4147840000000  0.5389180000000  0.4494840000000 1.0
C      1  0.5984980000000  0.5747070000000  0.4198960000000 1.0
C      1  0.4608750000000  0.4331630000000  0.5090360000000 1.0
C      1  0.4877260000000  0.5360970000000  0.4710090000000 1.0
C      1  0.4168240000000  0.4017760000000  0.4503590000000 1.0
C      1  0.4748020000000  0.4862350000000  0.6043390000000 1.0
C      1  0.4190500000000  0.5589660000000  0.4052840000000 1.0
C      1  0.5200740000000  0.4444980000000  0.4267540000000 1.0
C      1  0.4551200000000  0.4330940000000  0.4601230000000 1.0
C      1  0.6546730000000  0.5694180000000  0.4889340000000 1.0
C      1  0.4153620000000  0.5356720000000  0.4209650000000 1.0
C      1  0.4193630000000  0.4474810000000  0.4217710000000 1.0
C      1  0.4700240000000  0.5476620000000  0.5283360000000 1.0
C      1  0.4594770000000  0.4864950000000  0.3508000000000 1.0
C      1  0.4064640000000  0.5826930000000  0.5017950000000 1.0
C      1  0.4412260000000  0.5763370000000  0.4082200000000 1.0
C      1  0.4819380000000  0.5113910000000  0.6160820000000 1.0
C      1  0.5085600000000  0.5897480000000  0.5153520000000 1.0
C      1  0.4229920000000  0.5094930000000  0.4106830000000 1.0
C      1  0.4081720000000  0.5102830000000  0.5227980000000 1.0
C      1  0.5578400000000  0.4594770000000  0.5549080000000 1.0
C      1  0.5721400000000  0.4174620000000  0.4975510000000 1.0
C      1  0.4187610000000  0.4860350000000  0.5383160000000 1.0
C      1  0.5286160000000  0.4319430000000  0.4784220000000 1.0
C      1  0.4449740000000  0.4495570000000  0.4121880000000 1.0
C      1  0.4704710000000  0.3838010000000  0.5391100000000 1.0
C      1  0.3576830000000  0.4639860000000  0.5736750000000 1.0
C      1  0.4963270000000  0.3907190000000  0.4482690000000 1.0
C      1  0.6144080000000  0.4579100000000  0.5405370000000 1.0
C      1  0.5369510000000  0.5467080000000  0.5940870000000 1.0
C      1  0.5503210000000  0.6244980000000  0.5002750000000 1.0
C      1  0.4651670000000  0.6255250000000  0.5106990000000 1.0
C      1  0.5644070000000  0.5077560000000  0.5633360000000 1.0
C      1  0.5112630000000  0.3809100000000  0.4704610000000 1.0
C      1  0.3775110000000  0.4630100000000  0.5561390000000 1.0
C      1  0.4696870000000  0.5357740000000  0.6156940000000 1.0
C      1  0.4497040000000  0.5751280000000  0.4560630000000 1.0
C      1  0.5946400000000  0.5472840000000  0.5453370000000 1.0
C      1  0.4350410000000  0.4893220000000  0.4274830000000 1.0
C      1  0.3385170000000  0.4649640000000  0.5913170000000 1.0
C      1  0.4539560000000  0.5963070000000  0.4763590000000 1.0
C      1  0.3877190000000  0.5625650000000  0.5017830000000 1.0
C      1  0.4696990000000  0.5824210000000  0.6014350000000 1.0
C      1  0.4442280000000  0.3953880000000  0.4870660000000 1.0
C      1  0.5313740000000  0.4162150000000  0.5243750000000 1.0
C      1  0.4192410000000  0.4195810000000  0.5250100000000 1.0
C      1  0.4461210000000  0.4839190000000  0.6092880000000 1.0
C      1  0.5365280000000  0.5957310000000  0.5552400000000 1.0
C      1  0.4926210000000  0.4577140000000  0.5301340000000 1.0
C      1  0.4606250000000  0.5913310000000  0.5454770000000 1.0
C      1  0.5601630000000  0.5814590000000  0.5644000000000 1.0
C      1  0.5842390000000  0.5734520000000  0.4721730000000 1.0
C      1  0.5041950000000  0.4883700000000  0.4346560000000 1.0
C      1  0.5047540000000  0.4689350000000  0.5575680000000 1.0
C      1  0.5395320000000  0.5228290000000  0.6098240000000 1.0
C      1  0.5517790000000  0.5796270000000  0.4054900000000 1.0
C      1  0.5394760000000  0.3870280000000  0.4707530000000 1.0
C      1  0.4456670000000  0.5991940000000  0.3932220000000 1.0
C      1  0.5064040000000  0.4665530000000  0.3616360000000 1.0
C      1  0.4364440000000  0.4499850000000  0.5803570000000 1.0
C      1  0.5251810000000  0.5047310000000  0.5016090000000 1.0
C      1  0.5430130000000  0.5994650000000  0.4606540000000 1.0
C      1  0.5512330000000  0.4670240000000  0.5262770000000 1.0
C      1  0.5683820000000  0.4967260000000  0.4917910000000 1.0
C      1  0.5753950000000  0.4354100000000  0.5587590000000 1.0
C      1  0.6135710000000  0.4827450000000  0.4844430000000 1.0
C      1  0.3929270000000  0.4406780000000  0.4652220000000 1.0
C      1  0.5381300000000  0.4959690000000  0.6139010000000 1.0
C      1  0.6029420000000  0.4559590000000  0.4765130000000 1.0
C      1  0.5765050000000  0.4823440000000  0.5618410000000 1.0
C      1  0.5677630000000  0.5166930000000  0.4452150000000 1.0
C      1  0.5563080000000  0.5671460000000  0.5891300000000 1.0
C      1  0.4493610000000  0.4589260000000  0.5007930000000 1.0
C      1  0.5349130000000  0.5496400000000  0.5216110000000 1.0
C      1  0.5318550000000  0.5389840000000  0.5473790000000 1.0
C      1  0.5345700000000  0.4691850000000  0.6108470000000 1.0
C      1  0.5311050000000  0.6141290000000  0.4817260000000 1.0
C      1  0.4741250000000  0.5152210000000  0.4130070000000 1.0
C      1  0.5300250000000  0.4531160000000  0.4555390000000 1.0
C      1  0.4600810000000  0.4615910000000  0.4711300000000 1.0
C      1  0.6115130000000  0.5669200000000  0.4655420000000 1.0
C      1  0.3873360000000  0.4806900000000  0.4405960000000 1.0
C      1  0.5350620000000  0.4452070000000  0.4022720000000 1.0
C      1  0.4774810000000  0.6131640000000  0.4869850000000 1.0
C      1  0.5126680000000  0.4785960000000  0.4612910000000 1.0
C      1  0.5226270000000  0.4174600000000  0.5979200000000 1.0
C      1  0.4457810000000  0.5196670000000  0.5686700000000 1.0
C      1  0.4838970000000  0.5995320000000  0.5860840000000 1.0
C      1  0.5595610000000  0.4096200000000  0.5231010000000 1.0
C      1  0.6015200000000  0.4822850000000  0.5472330000000 1.0
C      1  0.4921800000000  0.4372330000000  0.4236410000000 1.0
C      1  0.6099780000000  0.5306950000000  0.5253570000000 1.0
C      1  0.4594580000000  0.5589390000000  0.5045360000000 1.0
C      1  0.4839970000000  0.4762380000000  0.3511410000000 1.0
C      1  0.5653770000000  0.5840410000000  0.4528460000000 1.0
C      1  0.4770810000000  0.5201140000000  0.5230950000000 1.0
C      1  0.5934180000000  0.4930090000000  0.5017600000000 1.0
C      1  0.3984040000000  0.4548010000000  0.4402600000000 1.0
C      1  0.4303040000000  0.5561080000000  0.4663640000000 1.0
C      1  0.5511710000000  0.4124270000000  0.4773360000000 1.0
C      1  0.4148260000000  0.5142450000000  0.4631210000000 1.0
C      1  0.4479920000000  0.6062640000000  0.5241110000000 1.0
C      1  0.4819520000000  0.4870050000000  0.4171240000000 1.0
C      1  0.4504930000000  0.6207480000000  0.3793910000000 1.0
C      1  0.5142520000000  0.5630510000000  0.5080550000000 1.0
C      1  0.6196390000000  0.5721570000000  0.4382890000000 1.0
C      1  0.5295230000000  0.4458790000000  0.5951370000000 1.0
C      1  0.5878690000000  0.4538120000000  0.4524700000000 1.0
C      1  0.5820940000000  0.5299180000000  0.5646430000000 1.0
C      1  0.4572040000000  0.5628940000000  0.5497840000000 1.0
C      1  0.5318420000000  0.5788110000000  0.3887230000000 1.0
C      1  0.3928410000000  0.4965790000000  0.4630900000000 1.0
END
