TITL C-612605-9286-1295 0.137550227930707 125000 -446.527292606661 0 0 76 (C1) n - 1
REM
REM in /home/nfs/bkarasulu/CARBON/AIRSS/Generating-Clusters/TERSOFF/Only-C1/FIRE-HFTN
REM
REM
REM
REM
REM
REM ./C.cell (11c1c37f851c82e70ff6c80c92926a4b)
REM AIRSS Version 0.9.1 bugfix July 2018 build 013d7b7c2542+ Fri, 06 Jul 2018 19:26:36 +0100
REM compiler GCC version 9.2.1 20190827 (Red Hat 9.2.1-1)
REM options -cpp -mtune=generic -march=x86-64 -g -O0 -fpre-include=/usr/include/finclude/math-vector-fortran.h
REM seed 637907014 404757875 -1341598307 -45042107 -795379679 1807129301 283767034 -1675134114 527451865 1708950001 818734672 -640621064 -776679750 1305870808 981300827 -1082028719 -605389647 2031718613 -1635897384 -1134063684 990745799 -1972342274 774722028 -2135969971 -1620117171 1856860368 -27317548 -687433700 -1575575126 1663073580 -493624674 202185034 1507725989
REM
CELL 1.54180   50.00000   50.00000   50.00000   90.00000   90.00000   90.00000
LATT -1
SFAC C  
C      1  0.5205890000000  0.6130260000000  0.5178780000000 1.0
C      1  0.4482580000000  0.4441080000000  0.4405950000000 1.0
C      1  0.4862870000000  0.5631690000000  0.5567030000000 1.0
C      1  0.5468530000000  0.4930430000000  0.4663150000000 1.0
C      1  0.5253540000000  0.4503450000000  0.5936700000000 1.0
C      1  0.4312240000000  0.4498170000000  0.4190610000000 1.0
C      1  0.5116990000000  0.5501950000000  0.5528780000000 1.0
C      1  0.5568810000000  0.5110850000000  0.5428330000000 1.0
C      1  0.5210130000000  0.4556120000000  0.6194140000000 1.0
C      1  0.5565590000000  0.4092050000000  0.5174250000000 1.0
C      1  0.5286880000000  0.5622060000000  0.5331930000000 1.0
C      1  0.5759230000000  0.5072620000000  0.4133970000000 1.0
C      1  0.5209690000000  0.4524820000000  0.4140420000000 1.0
C      1  0.4612570000000  0.4933570000000  0.5904240000000 1.0
C      1  0.5292790000000  0.5904460000000  0.5322630000000 1.0
C      1  0.5409470000000  0.4685680000000  0.4069760000000 1.0
C      1  0.4909210000000  0.4932380000000  0.6287130000000 1.0
C      1  0.4643820000000  0.5560500000000  0.5402450000000 1.0
C      1  0.5188760000000  0.5505390000000  0.4032700000000 1.0
C      1  0.4375990000000  0.5143300000000  0.4846210000000 1.0
C      1  0.5071200000000  0.4727050000000  0.6346050000000 1.0
C      1  0.5001610000000  0.5219810000000  0.5909790000000 1.0
C      1  0.4836170000000  0.5824810000000  0.5759650000000 1.0
C      1  0.5110860000000  0.4632200000000  0.5098180000000 1.0
C      1  0.4326710000000  0.4660030000000  0.4866430000000 1.0
C      1  0.4482420000000  0.4814140000000  0.5705750000000 1.0
C      1  0.5221470000000  0.5644970000000  0.4684590000000 1.0
C      1  0.5171040000000  0.5272020000000  0.5691550000000 1.0
C      1  0.4617130000000  0.5048960000000  0.4028460000000 1.0
C      1  0.4092520000000  0.5172020000000  0.5348930000000 1.0
C      1  0.5210770000000  0.4544550000000  0.5664160000000 1.0
C      1  0.5370020000000  0.5681980000000  0.3970110000000 1.0
C      1  0.4827080000000  0.5132650000000  0.4193210000000 1.0
C      1  0.4679530000000  0.5461880000000  0.5141900000000 1.0
C      1  0.4826260000000  0.5047780000000  0.6044700000000 1.0
C      1  0.5566190000000  0.4683760000000  0.4683510000000 1.0
C      1  0.5303600000000  0.4780900000000  0.5240920000000 1.0
C      1  0.5839830000000  0.5436600000000  0.4493510000000 1.0
C      1  0.4250210000000  0.4670740000000  0.3978490000000 1.0
C      1  0.4981610000000  0.4725910000000  0.4870900000000 1.0
C      1  0.4898510000000  0.4868000000000  0.4662640000000 1.0
C      1  0.4304610000000  0.4908550000000  0.4993680000000 1.0
C      1  0.5617060000000  0.4444710000000  0.4788220000000 1.0
C      1  0.5658000000000  0.3829580000000  0.5565780000000 1.0
C      1  0.5203500000000  0.6379900000000  0.5288170000000 1.0
C      1  0.4040380000000  0.4623530000000  0.3810820000000 1.0
C      1  0.4574280000000  0.5313410000000  0.4947720000000 1.0
C      1  0.5005450000000  0.5328840000000  0.4106300000000 1.0
C      1  0.5598980000000  0.4872370000000  0.4062560000000 1.0
C      1  0.5120830000000  0.6081080000000  0.4915050000000 1.0
C      1  0.5033650000000  0.4398850000000  0.5237760000000 1.0
C      1  0.5417530000000  0.5457770000000  0.4809830000000 1.0
C      1  0.5614590000000  0.4242800000000  0.4961090000000 1.0
C      1  0.4859520000000  0.5014250000000  0.4444650000000 1.0
C      1  0.4749590000000  0.4376650000000  0.4348450000000 1.0
C      1  0.4992120000000  0.4412900000000  0.4244940000000 1.0
C      1  0.4239590000000  0.5207690000000  0.4611430000000 1.0
C      1  0.5534240000000  0.4949840000000  0.5206140000000 1.0
C      1  0.4378880000000  0.5554360000000  0.5498080000000 1.0
C      1  0.5081760000000  0.3879270000000  0.5668140000000 1.0
C      1  0.5349620000000  0.5067180000000  0.5613670000000 1.0
C      1  0.4416130000000  0.4894780000000  0.3949040000000 1.0
C      1  0.5121160000000  0.5888920000000  0.4729250000000 1.0
C      1  0.4356810000000  0.4796190000000  0.5471720000000 1.0
C      1  0.4158340000000  0.5407270000000  0.5459270000000 1.0
C      1  0.5488090000000  0.3991040000000  0.5424270000000 1.0
C      1  0.5255350000000  0.4795900000000  0.5537020000000 1.0
C      1  0.4090440000000  0.5272900000000  0.4407930000000 1.0
C      1  0.4396850000000  0.4498820000000  0.4666460000000 1.0
C      1  0.5853480000000  0.5271200000000  0.4284550000000 1.0
C      1  0.5233590000000  0.4061930000000  0.5532450000000 1.0
C      1  0.5394100000000  0.5489120000000  0.5107450000000 1.0
C      1  0.5377160000000  0.5172760000000  0.4725440000000 1.0
C      1  0.4230950000000  0.4940110000000  0.5266480000000 1.0
C      1  0.5139210000000  0.4325720000000  0.5490820000000 1.0
C      1  0.5693840000000  0.5518220000000  0.4702770000000 1.0
END
