TITL C-612604-1799-39 1360.35346642114 125000 -956.551036261354 0 0 156 (C1) n - 1
REM
REM in /home/nfs/bkarasulu/CARBON/AIRSS/Generating-Clusters/TERSOFF/Only-C1/FIRE-HFTN
REM
REM
REM
REM
REM
REM ./C.cell (11c1c37f851c82e70ff6c80c92926a4b)
REM AIRSS Version 0.9.1 bugfix July 2018 build 013d7b7c2542+ Fri, 06 Jul 2018 19:26:36 +0100
REM compiler GCC version 9.2.1 20190827 (Red Hat 9.2.1-1)
REM options -cpp -mtune=generic -march=x86-64 -g -O0 -fpre-include=/usr/include/finclude/math-vector-fortran.h
REM seed -1839193190 -1380769725 -1278806777 1804618613 -2058197133 1117076076 -1792531069 -1496567401 -1216753639 113101116 -998490396 -1908592934 -330594545 -1805202036 -458195578 -1022801164 1789468072 599541537 -1789792420 -1731337833 -1047314074 -1851574183 -1892330915 -1509054198 -748534455 -973800364 -1757400641 -1328177665 325006549 1615490839 -2017122379 538419927 486449209
REM
CELL 1.54180   50.00000   50.00000   50.00000   90.00000   90.00000   90.00000
LATT -1
SFAC C  
C      1  0.5991400000000  0.4905440000000  0.5292120000000 1.0
C      1  0.4730330000000  0.5294480000000  0.5282410000000 1.0
C      1  0.5227820000000  0.3951260000000  0.4755530000000 1.0
C      1  0.4756690000000  0.4986050000000  0.4401860000000 1.0
C      1  0.5378960000000  0.4250350000000  0.5082990000000 1.0
C      1  0.4822330000000  0.5628570000000  0.6206060000000 1.0
C      1  0.5088640000000  0.5208960000000  0.4694640000000 1.0
C      1  0.5908650000000  0.4939120000000  0.4452150000000 1.0
C      1  0.5193630000000  0.4715390000000  0.5186420000000 1.0
C      1  0.4244660000000  0.5733510000000  0.4676040000000 1.0
C      1  0.4352650000000  0.5616310000000  0.5648240000000 1.0
C      1  0.5593250000000  0.5908100000000  0.4689970000000 1.0
C      1  0.5107360000000  0.3831440000000  0.4996970000000 1.0
C      1  0.5616580000000  0.4513680000000  0.4239330000000 1.0
C      1  0.5088380000000  0.4777180000000  0.4598410000000 1.0
C      1  0.4460140000000  0.4303200000000  0.5335910000000 1.0
C      1  0.5140230000000  0.5103280000000  0.5695490000000 1.0
C      1  0.4278880000000  0.5087760000000  0.5587560000000 1.0
C      1  0.5685550000000  0.4778810000000  0.5917640000000 1.0
C      1  0.5157860000000  0.5473090000000  0.5069030000000 1.0
C      1  0.4190600000000  0.4569310000000  0.5655060000000 1.0
C      1  0.4244730000000  0.4860270000000  0.4157150000000 1.0
C      1  0.4509120000000  0.5271150000000  0.4063210000000 1.0
C      1  0.5130030000000  0.6133730000000  0.5770540000000 1.0
C      1  0.4050480000000  0.4542560000000  0.4894920000000 1.0
C      1  0.4958000000000  0.4518930000000  0.6002740000000 1.0
C      1  0.5377280000000  0.4180530000000  0.5590050000000 1.0
C      1  0.5688170000000  0.4743250000000  0.4080970000000 1.0
C      1  0.3969260000000  0.4706720000000  0.5419070000000 1.0
C      1  0.5152490000000  0.6345530000000  0.5920710000000 1.0
C      1  0.5184350000000  0.5174140000000  0.4980350000000 1.0
C      1  0.4094730000000  0.5599580000000  0.5583420000000 1.0
C      1  0.5452330000000  0.4132070000000  0.4822380000000 1.0
C      1  0.4921390000000  0.4243170000000  0.5896530000000 1.0
C      1  0.5294440000000  0.4915930000000  0.6107220000000 1.0
C      1  0.5254370000000  0.5673220000000  0.5710930000000 1.0
C      1  0.4282320000000  0.4214440000000  0.5137980000000 1.0
C      1  0.5204110000000  0.5551070000000  0.4440940000000 1.0
C      1  0.5328400000000  0.4959520000000  0.5573470000000 1.0
C      1  0.6252380000000  0.6201260000000  0.5288920000000 1.0
C      1  0.5095960000000  0.5897370000000  0.5620820000000 1.0
C      1  0.6150000000000  0.5083830000000  0.5138080000000 1.0
C      1  0.4743700000000  0.4575620000000  0.4870290000000 1.0
C      1  0.5577170000000  0.5298360000000  0.4547850000000 1.0
C      1  0.5547980000000  0.5027680000000  0.6000430000000 1.0
C      1  0.5071100000000  0.4001770000000  0.4521600000000 1.0
C      1  0.5786040000000  0.5407200000000  0.5394240000000 1.0
C      1  0.4496770000000  0.4965860000000  0.4043830000000 1.0
C      1  0.4722180000000  0.4831050000000  0.4164520000000 1.0
C      1  0.5217430000000  0.5828460000000  0.4365040000000 1.0
C      1  0.5694770000000  0.5338260000000  0.4775480000000 1.0
C      1  0.5895100000000  0.4690500000000  0.4615630000000 1.0
C      1  0.4767560000000  0.4110820000000  0.4895360000000 1.0
C      1  0.3891910000000  0.5452120000000  0.5491830000000 1.0
C      1  0.6091310000000  0.6011280000000  0.5212270000000 1.0
C      1  0.5173280000000  0.4455840000000  0.3841920000000 1.0
C      1  0.5487820000000  0.4653480000000  0.4791840000000 1.0
C      1  0.5699960000000  0.4516230000000  0.5385930000000 1.0
C      1  0.5364910000000  0.5559540000000  0.5227540000000 1.0
C      1  0.5346980000000  0.4082120000000  0.5322520000000 1.0
C      1  0.5332080000000  0.4497490000000  0.3630840000000 1.0
C      1  0.6098670000000  0.5424300000000  0.4432460000000 1.0
C      1  0.3925410000000  0.4691580000000  0.5117170000000 1.0
C      1  0.5946890000000  0.4988660000000  0.5568420000000 1.0
C      1  0.5569170000000  0.4621880000000  0.3608110000000 1.0
C      1  0.4558180000000  0.4048730000000  0.4736000000000 1.0
C      1  0.5337810000000  0.4517410000000  0.4306030000000 1.0
C      1  0.5928220000000  0.4804320000000  0.5779980000000 1.0
C      1  0.5976580000000  0.5539510000000  0.5227250000000 1.0
C      1  0.5432230000000  0.5496240000000  0.5818050000000 1.0
C      1  0.3931360000000  0.5385280000000  0.4590680000000 1.0
C      1  0.5306430000000  0.5943280000000  0.4623600000000 1.0
C      1  0.4376300000000  0.4841000000000  0.4704990000000 1.0
C      1  0.4697450000000  0.4658440000000  0.5925540000000 1.0
C      1  0.4840040000000  0.4568920000000  0.4174900000000 1.0
C      1  0.4205920000000  0.5546300000000  0.4909980000000 1.0
C      1  0.4620200000000  0.4125430000000  0.5503510000000 1.0
C      1  0.4532710000000  0.5042700000000  0.4576470000000 1.0
C      1  0.5161890000000  0.4444310000000  0.5074400000000 1.0
C      1  0.3958530000000  0.5400810000000  0.4886760000000 1.0
C      1  0.4906760000000  0.5917750000000  0.5403630000000 1.0
C      1  0.5548920000000  0.5353010000000  0.5261400000000 1.0
C      1  0.4560270000000  0.4578370000000  0.5344790000000 1.0
C      1  0.4862720000000  0.5086060000000  0.5688880000000 1.0
C      1  0.4952120000000  0.5670470000000  0.6428210000000 1.0
C      1  0.3893260000000  0.4920920000000  0.4676760000000 1.0
C      1  0.5045810000000  0.5497530000000  0.4023660000000 1.0
C      1  0.4889720000000  0.4110480000000  0.5398050000000 1.0
C      1  0.4111050000000  0.4738720000000  0.4688720000000 1.0
C      1  0.5705900000000  0.5875360000000  0.4951810000000 1.0
C      1  0.4266330000000  0.4587020000000  0.4260660000000 1.0
C      1  0.5310110000000  0.4624920000000  0.4569820000000 1.0
C      1  0.4423690000000  0.4381600000000  0.4400260000000 1.0
C      1  0.5103640000000  0.5895740000000  0.4832790000000 1.0
C      1  0.4414430000000  0.5945200000000  0.4772550000000 1.0
C      1  0.5778690000000  0.5834240000000  0.4485500000000 1.0
C      1  0.4726620000000  0.5990760000000  0.5211880000000 1.0
C      1  0.5698390000000  0.4978140000000  0.4241720000000 1.0
C      1  0.5118980000000  0.4515970000000  0.4111770000000 1.0
C      1  0.5921000000000  0.5804910000000  0.5128410000000 1.0
C      1  0.4149210000000  0.5551850000000  0.4446750000000 1.0
C      1  0.5009520000000  0.4925040000000  0.5058490000000 1.0
C      1  0.4510020000000  0.4832770000000  0.5193420000000 1.0
C      1  0.5975530000000  0.5663000000000  0.4419270000000 1.0
C      1  0.4601360000000  0.5509710000000  0.5723460000000 1.0
C      1  0.5818040000000  0.5243700000000  0.5625540000000 1.0
C      1  0.5778070000000  0.4442950000000  0.4475940000000 1.0
C      1  0.5827910000000  0.4689570000000  0.5177400000000 1.0
C      1  0.4321110000000  0.4998990000000  0.5344260000000 1.0
C      1  0.6088890000000  0.5157510000000  0.4470550000000 1.0
C      1  0.4633220000000  0.4215990000000  0.5783930000000 1.0
C      1  0.4774550000000  0.4818610000000  0.5697340000000 1.0
C      1  0.5759610000000  0.4690520000000  0.4883240000000 1.0
C      1  0.3835490000000  0.4958240000000  0.5491930000000 1.0
C      1  0.4759260000000  0.5020500000000  0.5189680000000 1.0
C      1  0.4470750000000  0.4471790000000  0.5837830000000 1.0
C      1  0.4678880000000  0.5482590000000  0.5076700000000 1.0
C      1  0.4936960000000  0.4765480000000  0.4825160000000 1.0
C      1  0.4194470000000  0.4304640000000  0.4882960000000 1.0
C      1  0.4972610000000  0.5625530000000  0.4908000000000 1.0
C      1  0.4260400000000  0.5356680000000  0.4225520000000 1.0
C      1  0.5612240000000  0.5269210000000  0.5841140000000 1.0
C      1  0.5384800000000  0.4885840000000  0.5312870000000 1.0
C      1  0.4536300000000  0.5309420000000  0.4665830000000 1.0
C      1  0.4356170000000  0.4232880000000  0.4650430000000 1.0
C      1  0.4460710000000  0.5418500000000  0.4917100000000 1.0
C      1  0.4097140000000  0.5094130000000  0.4257320000000 1.0
C      1  0.5486860000000  0.4572700000000  0.5857120000000 1.0
C      1  0.5021360000000  0.5025680000000  0.4490600000000 1.0
C      1  0.4975350000000  0.4393090000000  0.5454380000000 1.0
C      1  0.4896420000000  0.4353040000000  0.4959960000000 1.0
C      1  0.5717390000000  0.4730490000000  0.3803940000000 1.0
C      1  0.6162380000000  0.5354470000000  0.5118060000000 1.0
C      1  0.5440870000000  0.5111410000000  0.5145710000000 1.0
C      1  0.5536940000000  0.4419180000000  0.5615990000000 1.0
C      1  0.5254610000000  0.5368690000000  0.4210210000000 1.0
C      1  0.4730250000000  0.5310340000000  0.5567160000000 1.0
C      1  0.4568660000000  0.6010870000000  0.4989690000000 1.0
C      1  0.4710180000000  0.5584200000000  0.5970160000000 1.0
C      1  0.3827630000000  0.5214980000000  0.5357020000000 1.0
C      1  0.5662890000000  0.4228300000000  0.4646920000000 1.0
C      1  0.5090000000000  0.3945740000000  0.5263910000000 1.0
C      1  0.3823030000000  0.4940620000000  0.4963690000000 1.0
C      1  0.5226270000000  0.4642590000000  0.6004820000000 1.0
C      1  0.5098740000000  0.5798380000000  0.4092660000000 1.0
C      1  0.4876950000000  0.4131890000000  0.4383820000000 1.0
C      1  0.4704470000000  0.4350480000000  0.4309700000000 1.0
C      1  0.4767500000000  0.5400350000000  0.4003510000000 1.0
C      1  0.4803360000000  0.4616560000000  0.5489200000000 1.0
C      1  0.4509670000000  0.4721470000000  0.4919520000000 1.0
C      1  0.3914130000000  0.5120680000000  0.4480650000000 1.0
C      1  0.5500470000000  0.5200970000000  0.4283800000000 1.0
C      1  0.4721120000000  0.5477220000000  0.4530470000000 1.0
C      1  0.5168040000000  0.4128530000000  0.5789830000000 1.0
C      1  0.3846370000000  0.5206150000000  0.5070190000000 1.0
C      1  0.4995500000000  0.5481750000000  0.4636470000000 1.0
END
