TITL C-612606-7351-861 0.0178936894354878 125000 -787.587476852543 0 0 130 (C1) n - 1
REM
REM in /home/nfs/bkarasulu/CARBON/AIRSS/Generating-Clusters/TERSOFF/Only-C1/FIRE-HFTN
REM
REM
REM
REM
REM
REM ./C.cell (11c1c37f851c82e70ff6c80c92926a4b)
REM AIRSS Version 0.9.1 bugfix July 2018 build 013d7b7c2542+ Fri, 06 Jul 2018 19:26:36 +0100
REM compiler GCC version 9.2.1 20190827 (Red Hat 9.2.1-1)
REM options -cpp -mtune=generic -march=x86-64 -g -O0 -fpre-include=/usr/include/finclude/math-vector-fortran.h
REM seed -1867316478 1085000709 -2132276975 -75707648 1083386867 1706622789 603108732 8812924 585798778 -121034194 -813557756 2084829180 -1495126517 170900809 1214114713 -2022699484 -1255251281 944777165 -698927068 512961323 577308798 828377424 493854418 -700631102 -1786022281 -1567631685 -816001121 561330719 1112158186 -1503239030 1173574711 1511811966 297839187
REM
CELL 1.54180   50.00000   50.00000   50.00000   90.00000   90.00000   90.00000
LATT -1
SFAC C  
C      1  0.3962010000000  0.5515890000000  0.5122280000000 1.0
C      1  0.4751800000000  0.5240020000000  0.3529760000000 1.0
C      1  0.4767790000000  0.5220450000000  0.5713520000000 1.0
C      1  0.5359410000000  0.5900660000000  0.4811740000000 1.0
C      1  0.4270220000000  0.5783430000000  0.5356420000000 1.0
C      1  0.5160460000000  0.5998870000000  0.5323050000000 1.0
C      1  0.3924170000000  0.5395180000000  0.4622140000000 1.0
C      1  0.4340320000000  0.5449080000000  0.4802770000000 1.0
C      1  0.5662860000000  0.3962800000000  0.4970370000000 1.0
C      1  0.5064030000000  0.4738030000000  0.5338330000000 1.0
C      1  0.5799030000000  0.4704700000000  0.5747900000000 1.0
C      1  0.5567560000000  0.5245570000000  0.4334910000000 1.0
C      1  0.3879600000000  0.4832760000000  0.4710680000000 1.0
C      1  0.4522690000000  0.4859460000000  0.4849890000000 1.0
C      1  0.4543310000000  0.4264530000000  0.4757580000000 1.0
C      1  0.5707380000000  0.4975900000000  0.5385520000000 1.0
C      1  0.5518850000000  0.4752740000000  0.5760510000000 1.0
C      1  0.4379070000000  0.5330210000000  0.4529450000000 1.0
C      1  0.4430820000000  0.5207230000000  0.5261620000000 1.0
C      1  0.4076950000000  0.5348130000000  0.5581120000000 1.0
C      1  0.4601640000000  0.4408680000000  0.4506200000000 1.0
C      1  0.5422470000000  0.5311350000000  0.6049300000000 1.0
C      1  0.3867240000000  0.4760040000000  0.5194380000000 1.0
C      1  0.4770960000000  0.4787200000000  0.4240960000000 1.0
C      1  0.6247740000000  0.5224910000000  0.5659990000000 1.0
C      1  0.4544990000000  0.4704720000000  0.5790080000000 1.0
C      1  0.4473020000000  0.4430620000000  0.5733410000000 1.0
C      1  0.5762340000000  0.5297050000000  0.4544130000000 1.0
C      1  0.4354540000000  0.4824420000000  0.4614270000000 1.0
C      1  0.4760180000000  0.5460860000000  0.5092970000000 1.0
C      1  0.4389540000000  0.4756750000000  0.5083070000000 1.0
C      1  0.5301140000000  0.4670000000000  0.5926240000000 1.0
C      1  0.5514260000000  0.4469890000000  0.4692020000000 1.0
C      1  0.5257160000000  0.3752260000000  0.5176510000000 1.0
C      1  0.4327440000000  0.4485420000000  0.5131310000000 1.0
C      1  0.5252060000000  0.4919460000000  0.4239620000000 1.0
C      1  0.4729290000000  0.6147890000000  0.5521500000000 1.0
C      1  0.4290500000000  0.4966150000000  0.5233240000000 1.0
C      1  0.4285670000000  0.4331140000000  0.4889630000000 1.0
C      1  0.4856350000000  0.5622890000000  0.3786500000000 1.0
C      1  0.4390750000000  0.4594740000000  0.4457100000000 1.0
C      1  0.4945430000000  0.5174130000000  0.3984920000000 1.0
C      1  0.5267050000000  0.4836610000000  0.6152450000000 1.0
C      1  0.4761430000000  0.4233160000000  0.4946070000000 1.0
C      1  0.6177280000000  0.4981170000000  0.5569290000000 1.0
C      1  0.4901160000000  0.5221950000000  0.5021770000000 1.0
C      1  0.4589690000000  0.5242400000000  0.4354640000000 1.0
C      1  0.4577090000000  0.5844200000000  0.3135110000000 1.0
C      1  0.5326480000000  0.5680130000000  0.4385260000000 1.0
C      1  0.4833320000000  0.4749340000000  0.5793590000000 1.0
C      1  0.5300260000000  0.5792030000000  0.5411090000000 1.0
C      1  0.5896740000000  0.5417570000000  0.5956270000000 1.0
C      1  0.3876070000000  0.4643270000000  0.4923110000000 1.0
C      1  0.4003870000000  0.4390010000000  0.4843220000000 1.0
C      1  0.5300930000000  0.4650360000000  0.4296040000000 1.0
C      1  0.4937240000000  0.5001690000000  0.5692570000000 1.0
C      1  0.5424480000000  0.3782950000000  0.4521230000000 1.0
C      1  0.5118700000000  0.4846120000000  0.4717420000000 1.0
C      1  0.5892910000000  0.5532050000000  0.5521850000000 1.0
C      1  0.4041860000000  0.4918560000000  0.5363820000000 1.0
C      1  0.4809810000000  0.4040000000000  0.5154460000000 1.0
C      1  0.4756140000000  0.5531410000000  0.5377700000000 1.0
C      1  0.4098930000000  0.4948770000000  0.4577550000000 1.0
C      1  0.4664090000000  0.5399970000000  0.3327650000000 1.0
C      1  0.5479350000000  0.5260780000000  0.4047550000000 1.0
C      1  0.5536170000000  0.4615680000000  0.4453960000000 1.0
C      1  0.5100890000000  0.4437380000000  0.4332860000000 1.0
C      1  0.5667440000000  0.5498010000000  0.4758530000000 1.0
C      1  0.5938940000000  0.5091710000000  0.4651400000000 1.0
C      1  0.6026740000000  0.4655420000000  0.4929420000000 1.0
C      1  0.5413520000000  0.5538000000000  0.5398630000000 1.0
C      1  0.5269620000000  0.4977600000000  0.4904160000000 1.0
C      1  0.4448560000000  0.5937940000000  0.5217700000000 1.0
C      1  0.4321490000000  0.4907420000000  0.5769510000000 1.0
C      1  0.5808600000000  0.5746440000000  0.4876540000000 1.0
C      1  0.5446050000000  0.4943130000000  0.5541060000000 1.0
C      1  0.4961200000000  0.6043380000000  0.5121460000000 1.0
C      1  0.4697970000000  0.6078540000000  0.5243060000000 1.0
C      1  0.4190920000000  0.4393080000000  0.5358410000000 1.0
C      1  0.5009080000000  0.3842320000000  0.5132700000000 1.0
C      1  0.5545590000000  0.3968060000000  0.4709640000000 1.0
C      1  0.4051870000000  0.5502030000000  0.4855620000000 1.0
C      1  0.4485520000000  0.5385660000000  0.5032440000000 1.0
C      1  0.4216900000000  0.4389940000000  0.5624660000000 1.0
C      1  0.5506330000000  0.4571390000000  0.4956460000000 1.0
C      1  0.4088210000000  0.5560730000000  0.5375890000000 1.0
C      1  0.5496310000000  0.4846610000000  0.4991830000000 1.0
C      1  0.5381250000000  0.5376520000000  0.5163470000000 1.0
C      1  0.5353930000000  0.4356520000000  0.5380270000000 1.0
C      1  0.5158100000000  0.4962480000000  0.5499250000000 1.0
C      1  0.5627440000000  0.5317350000000  0.5016020000000 1.0
C      1  0.5926960000000  0.4860610000000  0.5542140000000 1.0
C      1  0.4100550000000  0.5053370000000  0.5620020000000 1.0
C      1  0.5626200000000  0.5955710000000  0.4917110000000 1.0
C      1  0.4828010000000  0.4522110000000  0.4353550000000 1.0
C      1  0.5538260000000  0.4380580000000  0.5168800000000 1.0
C      1  0.5179710000000  0.5212540000000  0.5040930000000 1.0
C      1  0.5139610000000  0.4501450000000  0.5495400000000 1.0
C      1  0.4828320000000  0.5675200000000  0.5627940000000 1.0
C      1  0.5614960000000  0.5420410000000  0.5879890000000 1.0
C      1  0.5521980000000  0.3789710000000  0.5145540000000 1.0
C      1  0.4777810000000  0.4954380000000  0.4969060000000 1.0
C      1  0.4768470000000  0.5782250000000  0.3584010000000 1.0
C      1  0.4758040000000  0.5071290000000  0.4189820000000 1.0
C      1  0.5072020000000  0.4567420000000  0.5777020000000 1.0
C      1  0.5123180000000  0.5273640000000  0.4548300000000 1.0
C      1  0.5613220000000  0.5492250000000  0.5593590000000 1.0
C      1  0.5761360000000  0.4216400000000  0.5077150000000 1.0
C      1  0.4900830000000  0.4474840000000  0.4982500000000 1.0
C      1  0.4855310000000  0.5338160000000  0.3776340000000 1.0
C      1  0.5941960000000  0.4931240000000  0.4893360000000 1.0
C      1  0.5411980000000  0.4216130000000  0.4641640000000 1.0
C      1  0.4606160000000  0.5283850000000  0.5481580000000 1.0
C      1  0.4722150000000  0.4099010000000  0.5418060000000 1.0
C      1  0.4657680000000  0.4237040000000  0.5639220000000 1.0
C      1  0.5324650000000  0.5119290000000  0.4443120000000 1.0
C      1  0.4664760000000  0.5684780000000  0.3337130000000 1.0
C      1  0.4852410000000  0.5468420000000  0.5825120000000 1.0
C      1  0.5100120000000  0.6001400000000  0.4874450000000 1.0
C      1  0.5314820000000  0.5100980000000  0.6175400000000 1.0
C      1  0.4106590000000  0.5216080000000  0.4488110000000 1.0
C      1  0.4913580000000  0.4728510000000  0.5103200000000 1.0
C      1  0.5407960000000  0.5662980000000  0.4645670000000 1.0
C      1  0.5227660000000  0.3907490000000  0.4367220000000 1.0
C      1  0.5720610000000  0.5026370000000  0.5083610000000 1.0
C      1  0.5978660000000  0.4391670000000  0.4994110000000 1.0
C      1  0.6074070000000  0.5433940000000  0.5726510000000 1.0
C      1  0.5223850000000  0.5099220000000  0.4010720000000 1.0
C      1  0.4793250000000  0.5946010000000  0.5690770000000 1.0
C      1  0.5205700000000  0.4189240000000  0.4430330000000 1.0
END
