TITL C-612602-9376-241 6.20804367523147 125000 -1193.3487306131 0 0 192 (C1) n - 1
REM
REM in /home/nfs/bkarasulu/CARBON/AIRSS/Generating-Clusters/TERSOFF/Only-C1/FIRE-HFTN
REM
REM
REM
REM
REM
REM ./C.cell (11c1c37f851c82e70ff6c80c92926a4b)
REM AIRSS Version 0.9.1 bugfix July 2018 build 013d7b7c2542+ Fri, 06 Jul 2018 19:26:36 +0100
REM compiler GCC version 9.2.1 20190827 (Red Hat 9.2.1-1)
REM options -cpp -mtune=generic -march=x86-64 -g -O0 -fpre-include=/usr/include/finclude/math-vector-fortran.h
REM seed 301853412 -1084199060 536749566 1506923057 1545763441 -2035445460 -2046368156 -557116773 -587729884 352027743 2006997512 -1583794211 -1799343229 -1179783973 1281247560 -1903966121 -1218744963 1661124529 243673148 -1930965275 1874498923 755978450 1622530446 -1561718365 -2012755575 -1510183730 -978854782 1192448656 -1713301526 593869617 -1395665347 -1523358824 1467513465
REM
CELL 1.54180   50.00000   50.00000   50.00000   90.00000   90.00000   90.00000
LATT -1
SFAC C  
C      1  0.5234200000000  0.5512220000000  0.5727570000000 1.0
C      1  0.5303540000000  0.4235200000000  0.4646880000000 1.0
C      1  0.4964360000000  0.5268480000000  0.5071900000000 1.0
C      1  0.5637840000000  0.5714240000000  0.4872360000000 1.0
C      1  0.4126220000000  0.5804210000000  0.4991610000000 1.0
C      1  0.6255830000000  0.5258580000000  0.5117360000000 1.0
C      1  0.3997010000000  0.4627500000000  0.3924200000000 1.0
C      1  0.4404100000000  0.4615170000000  0.4845370000000 1.0
C      1  0.4243640000000  0.5111170000000  0.4527590000000 1.0
C      1  0.5027550000000  0.5047870000000  0.4885500000000 1.0
C      1  0.4671630000000  0.4305300000000  0.6080410000000 1.0
C      1  0.4710670000000  0.5186800000000  0.5637920000000 1.0
C      1  0.5804580000000  0.4886240000000  0.5404280000000 1.0
C      1  0.4836120000000  0.4193860000000  0.4533050000000 1.0
C      1  0.5603010000000  0.5199460000000  0.6189530000000 1.0
C      1  0.4606830000000  0.3976500000000  0.4949610000000 1.0
C      1  0.5739940000000  0.5446090000000  0.6170870000000 1.0
C      1  0.4768240000000  0.5908620000000  0.3921440000000 1.0
C      1  0.5497080000000  0.6378460000000  0.3799700000000 1.0
C      1  0.4358310000000  0.5690970000000  0.5538810000000 1.0
C      1  0.4557550000000  0.5555860000000  0.4787330000000 1.0
C      1  0.4533820000000  0.4450750000000  0.5520180000000 1.0
C      1  0.4833430000000  0.6032450000000  0.5555360000000 1.0
C      1  0.3851420000000  0.4536480000000  0.4385330000000 1.0
C      1  0.4963550000000  0.5491520000000  0.3669820000000 1.0
C      1  0.4380220000000  0.5455650000000  0.4205880000000 1.0
C      1  0.5912920000000  0.5021130000000  0.4756480000000 1.0
C      1  0.5157130000000  0.5002460000000  0.3790220000000 1.0
C      1  0.5524630000000  0.6625090000000  0.3706570000000 1.0
C      1  0.4631130000000  0.5325040000000  0.4136180000000 1.0
C      1  0.4312910000000  0.5764960000000  0.4756590000000 1.0
C      1  0.5053920000000  0.5580810000000  0.4688130000000 1.0
C      1  0.4850660000000  0.6023960000000  0.5271930000000 1.0
C      1  0.5820710000000  0.5278060000000  0.4863280000000 1.0
C      1  0.5430380000000  0.5886290000000  0.3984250000000 1.0
C      1  0.5510770000000  0.5775870000000  0.5118130000000 1.0
C      1  0.4222710000000  0.5221030000000  0.4271360000000 1.0
C      1  0.4788610000000  0.6276110000000  0.5674060000000 1.0
C      1  0.4591900000000  0.4951160000000  0.5167010000000 1.0
C      1  0.6230030000000  0.4686290000000  0.5028480000000 1.0
C      1  0.4007450000000  0.4415720000000  0.4581950000000 1.0
C      1  0.6121310000000  0.4853720000000  0.5751460000000 1.0
C      1  0.4632500000000  0.5995990000000  0.4134150000000 1.0
C      1  0.4863910000000  0.5378310000000  0.6032970000000 1.0
C      1  0.4478250000000  0.5993450000000  0.4628940000000 1.0
C      1  0.4813390000000  0.5311070000000  0.4355750000000 1.0
C      1  0.5442780000000  0.4493120000000  0.4316650000000 1.0
C      1  0.4549270000000  0.3994050000000  0.5491130000000 1.0
C      1  0.5314210000000  0.4008520000000  0.5604620000000 1.0
C      1  0.5019390000000  0.4917390000000  0.5427770000000 1.0
C      1  0.5402490000000  0.5480820000000  0.5503640000000 1.0
C      1  0.3786490000000  0.5237970000000  0.4666090000000 1.0
C      1  0.5727040000000  0.4913490000000  0.4581450000000 1.0
C      1  0.4365490000000  0.4866630000000  0.5328830000000 1.0
C      1  0.4033890000000  0.5354650000000  0.5176090000000 1.0
C      1  0.6362750000000  0.5125160000000  0.4884790000000 1.0
C      1  0.4285730000000  0.5697730000000  0.4305670000000 1.0
C      1  0.4971870000000  0.3890740000000  0.5250000000000 1.0
C      1  0.5468130000000  0.6131980000000  0.3892570000000 1.0
C      1  0.5040320000000  0.4437400000000  0.5036540000000 1.0
C      1  0.5551700000000  0.6867670000000  0.3614980000000 1.0
C      1  0.5433670000000  0.5011470000000  0.3869040000000 1.0
C      1  0.5439240000000  0.4956290000000  0.4565890000000 1.0
C      1  0.6313260000000  0.4785900000000  0.5296870000000 1.0
C      1  0.5207610000000  0.4576970000000  0.6226260000000 1.0
C      1  0.3904340000000  0.5474900000000  0.4596490000000 1.0
C      1  0.5643030000000  0.4309140000000  0.5788250000000 1.0
C      1  0.4540600000000  0.4627480000000  0.4012690000000 1.0
C      1  0.3768460000000  0.4812390000000  0.4423500000000 1.0
C      1  0.5822340000000  0.5296270000000  0.4103060000000 1.0
C      1  0.6066520000000  0.4450520000000  0.5017250000000 1.0
C      1  0.3785250000000  0.4796310000000  0.4926330000000 1.0
C      1  0.4338330000000  0.3936260000000  0.4865630000000 1.0
C      1  0.4867330000000  0.5957230000000  0.4996290000000 1.0
C      1  0.5048330000000  0.3912720000000  0.5531480000000 1.0
C      1  0.5316740000000  0.4741140000000  0.4384340000000 1.0
C      1  0.4540120000000  0.5091750000000  0.3971210000000 1.0
C      1  0.4058590000000  0.4424710000000  0.5574690000000 1.0
C      1  0.4978250000000  0.5577210000000  0.5842010000000 1.0
C      1  0.5805270000000  0.4528660000000  0.5092690000000 1.0
C      1  0.5307280000000  0.5228720000000  0.4436610000000 1.0
C      1  0.4696600000000  0.6070740000000  0.4795930000000 1.0
C      1  0.5265530000000  0.4271300000000  0.4370790000000 1.0
C      1  0.5207930000000  0.4407770000000  0.4838070000000 1.0
C      1  0.4950500000000  0.4378960000000  0.5701380000000 1.0
C      1  0.4242740000000  0.5604030000000  0.5781160000000 1.0
C      1  0.4790750000000  0.5485690000000  0.4592870000000 1.0
C      1  0.4513170000000  0.4805450000000  0.6142120000000 1.0
C      1  0.6147750000000  0.5979420000000  0.5110830000000 1.0
C      1  0.5620170000000  0.5306410000000  0.5470070000000 1.0
C      1  0.5111180000000  0.3925200000000  0.4993550000000 1.0
C      1  0.5893540000000  0.5579720000000  0.5996790000000 1.0
C      1  0.4900760000000  0.4325310000000  0.4067520000000 1.0
C      1  0.4567100000000  0.5307800000000  0.6041290000000 1.0
C      1  0.5896660000000  0.5496490000000  0.4271810000000 1.0
C      1  0.5580140000000  0.4421790000000  0.5511630000000 1.0
C      1  0.3798880000000  0.4965390000000  0.4181180000000 1.0
C      1  0.6156840000000  0.5900630000000  0.5365780000000 1.0
C      1  0.4682440000000  0.4854800000000  0.3912000000000 1.0
C      1  0.6287880000000  0.4684410000000  0.5575340000000 1.0
C      1  0.4022130000000  0.5176890000000  0.5666840000000 1.0
C      1  0.4789800000000  0.3964700000000  0.5686330000000 1.0
C      1  0.4819290000000  0.4187710000000  0.5871850000000 1.0
C      1  0.3896250000000  0.4458020000000  0.4113510000000 1.0
C      1  0.4225030000000  0.4459340000000  0.4727790000000 1.0
C      1  0.5093270000000  0.5526380000000  0.5128080000000 1.0
C      1  0.5350690000000  0.4110820000000  0.6120920000000 1.0
C      1  0.4286890000000  0.3792230000000  0.4638340000000 1.0
C      1  0.5970550000000  0.5551890000000  0.5728090000000 1.0
C      1  0.5903070000000  0.5690600000000  0.4462030000000 1.0
C      1  0.4844710000000  0.4715320000000  0.4537260000000 1.0
C      1  0.5327280000000  0.5609960000000  0.5265510000000 1.0
C      1  0.4525840000000  0.4882370000000  0.4877110000000 1.0
C      1  0.4360470000000  0.4227470000000  0.5537640000000 1.0
C      1  0.4858830000000  0.5805190000000  0.5724260000000 1.0
C      1  0.6024040000000  0.5059860000000  0.5547750000000 1.0
C      1  0.5662110000000  0.5125230000000  0.3963880000000 1.0
C      1  0.5015240000000  0.4179150000000  0.4289800000000 1.0
C      1  0.4318500000000  0.5088420000000  0.4795740000000 1.0
C      1  0.6245670000000  0.5077760000000  0.5337330000000 1.0
C      1  0.5613600000000  0.5076380000000  0.5296710000000 1.0
C      1  0.5276450000000  0.4320150000000  0.6274790000000 1.0
C      1  0.4804710000000  0.4889070000000  0.4760460000000 1.0
C      1  0.4927670000000  0.5023400000000  0.5668200000000 1.0
C      1  0.5271280000000  0.4812670000000  0.5371910000000 1.0
C      1  0.5757510000000  0.4607190000000  0.5357320000000 1.0
C      1  0.5300960000000  0.4965740000000  0.4886450000000 1.0
C      1  0.4459860000000  0.5631250000000  0.5297520000000 1.0
C      1  0.4409090000000  0.5040680000000  0.6008460000000 1.0
C      1  0.4405280000000  0.5541820000000  0.6001920000000 1.0
C      1  0.5408530000000  0.4946030000000  0.5154020000000 1.0
C      1  0.4844350000000  0.4031050000000  0.4779940000000 1.0
C      1  0.3965940000000  0.4213800000000  0.5145780000000 1.0
C      1  0.5877390000000  0.5318100000000  0.5598930000000 1.0
C      1  0.4693550000000  0.5237310000000  0.5151700000000 1.0
C      1  0.5062800000000  0.5178190000000  0.6101960000000 1.0
C      1  0.3939030000000  0.4447380000000  0.5304440000000 1.0
C      1  0.4677380000000  0.3933430000000  0.5225200000000 1.0
C      1  0.5018730000000  0.5725400000000  0.4932020000000 1.0
C      1  0.5029500000000  0.5121920000000  0.4355590000000 1.0
C      1  0.4576750000000  0.4544630000000  0.6161640000000 1.0
C      1  0.6012520000000  0.5390390000000  0.5047910000000 1.0
C      1  0.6079150000000  0.4167560000000  0.5044090000000 1.0
C      1  0.5577930000000  0.5442970000000  0.4793890000000 1.0
C      1  0.4869410000000  0.5725690000000  0.3755850000000 1.0
C      1  0.4120010000000  0.5655790000000  0.4541310000000 1.0
C      1  0.5165840000000  0.4542360000000  0.5755990000000 1.0
C      1  0.4165910000000  0.4968840000000  0.5825080000000 1.0
C      1  0.5704560000000  0.4379530000000  0.4388670000000 1.0
C      1  0.4832420000000  0.4807730000000  0.5252310000000 1.0
C      1  0.6176760000000  0.4907650000000  0.4833530000000 1.0
C      1  0.5372400000000  0.5410800000000  0.4206930000000 1.0
C      1  0.4874490000000  0.4533390000000  0.5227950000000 1.0
C      1  0.5447810000000  0.4098250000000  0.5856990000000 1.0
C      1  0.5320020000000  0.5206580000000  0.6218690000000 1.0
C      1  0.4012820000000  0.5441190000000  0.5764890000000 1.0
C      1  0.5510800000000  0.4054700000000  0.4714030000000 1.0
C      1  0.4123050000000  0.4038970000000  0.5017560000000 1.0
C      1  0.5024880000000  0.4512370000000  0.3886600000000 1.0
C      1  0.4253180000000  0.5279900000000  0.5001320000000 1.0
C      1  0.5873500000000  0.4006810000000  0.5126720000000 1.0
C      1  0.4962530000000  0.4793910000000  0.3844870000000 1.0
C      1  0.5342680000000  0.4600990000000  0.5545510000000 1.0
C      1  0.5056930000000  0.5241940000000  0.3676580000000 1.0
C      1  0.6096980000000  0.5752960000000  0.5579630000000 1.0
C      1  0.4088550000000  0.4906340000000  0.5280280000000 1.0
C      1  0.5761680000000  0.4971280000000  0.6122970000000 1.0
C      1  0.5855890000000  0.5817830000000  0.4716410000000 1.0
C      1  0.4458860000000  0.5929560000000  0.4342560000000 1.0
C      1  0.5312110000000  0.5427360000000  0.4664030000000 1.0
C      1  0.3995390000000  0.5155120000000  0.5378740000000 1.0
C      1  0.4801500000000  0.4419070000000  0.5467780000000 1.0
C      1  0.5411300000000  0.3940450000000  0.4960430000000 1.0
C      1  0.3916870000000  0.4708520000000  0.5168950000000 1.0
C      1  0.5732850000000  0.4156810000000  0.4556260000000 1.0
C      1  0.5590800000000  0.4002000000000  0.5176460000000 1.0
C      1  0.4654800000000  0.4440010000000  0.4182550000000 1.0
C      1  0.3761960000000  0.4948430000000  0.4680090000000 1.0
C      1  0.5040930000000  0.4959200000000  0.5924560000000 1.0
C      1  0.4169020000000  0.4683530000000  0.5707430000000 1.0
C      1  0.4502280000000  0.5442240000000  0.5069970000000 1.0
C      1  0.5147420000000  0.4706670000000  0.5983560000000 1.0
C      1  0.5382320000000  0.5643490000000  0.4079000000000 1.0
C      1  0.4247340000000  0.5052640000000  0.4034270000000 1.0
C      1  0.4011080000000  0.4903190000000  0.3991210000000 1.0
C      1  0.4414150000000  0.4699720000000  0.5547800000000 1.0
C      1  0.5039950000000  0.4831220000000  0.4364630000000 1.0
C      1  0.6048950000000  0.5960310000000  0.4862690000000 1.0
C      1  0.5967670000000  0.4856630000000  0.5989490000000 1.0
C      1  0.5479190000000  0.4146410000000  0.5392520000000 1.0
C      1  0.4712920000000  0.4464110000000  0.4472250000000 1.0
C      1  0.3975070000000  0.5630820000000  0.5141950000000 1.0
END
