TITL C-612604-1799-1253 -17719.3102043397 125000 -1092.00656128822 0 0 176 (C1) n - 1
REM
REM in /home/nfs/bkarasulu/CARBON/AIRSS/Generating-Clusters/TERSOFF/Only-C1/FIRE-HFTN
REM
REM
REM
REM
REM
REM ./C.cell (11c1c37f851c82e70ff6c80c92926a4b)
REM AIRSS Version 0.9.1 bugfix July 2018 build 013d7b7c2542+ Fri, 06 Jul 2018 19:26:36 +0100
REM compiler GCC version 9.2.1 20190827 (Red Hat 9.2.1-1)
REM options -cpp -mtune=generic -march=x86-64 -g -O0 -fpre-include=/usr/include/finclude/math-vector-fortran.h
REM seed 918643230 973687859 923397870 -422170399 1357491153 330935729 1423445094 -1317905400 1616096667 995317222 -242451434 -1264520850 132413420 630765088 313865566 157766300 -1869856343 1955848500 -604480113 -1546966696 -531116173 -1333278917 1118836419 748835411 -2095876045 790890071 -731500369 -704489977 -84160767 1721631156 1521744628 380075900 888280609
REM
CELL 1.54180   50.00000   50.00000   50.00000   90.00000   90.00000   90.00000
LATT -1
SFAC C  
C      1  0.3764390000000  0.4967400000000  0.5280260000000 1.0
C      1  0.5199090000000  0.4807420000000  0.3637200000000 1.0
C      1  0.4479060000000  0.4617710000000  0.4608960000000 1.0
C      1  0.5469680000000  0.4365040000000  0.5593610000000 1.0
C      1  0.4625400000000  0.5141400000000  0.5433180000000 1.0
C      1  0.5265860000000  0.4540400000000  0.3723750000000 1.0
C      1  0.5662660000000  0.4248960000000  0.4091070000000 1.0
C      1  0.4780650000000  0.5047600000000  0.3645690000000 1.0
C      1  0.5729570000000  0.5527530000000  0.5072280000000 1.0
C      1  0.5910550000000  0.4958140000000  0.4316980000000 1.0
C      1  0.4861410000000  0.4282440000000  0.5170020000000 1.0
C      1  0.5366530000000  0.4847590000000  0.4241560000000 1.0
C      1  0.5374880000000  0.5068430000000  0.5161190000000 1.0
C      1  0.5698560000000  0.4626110000000  0.4953100000000 1.0
C      1  0.5702320000000  0.5779010000000  0.4934660000000 1.0
C      1  0.5826870000000  0.4929760000000  0.4590530000000 1.0
C      1  0.5683970000000  0.4665040000000  0.4654240000000 1.0
C      1  0.4416600000000  0.4040860000000  0.5361600000000 1.0
C      1  0.4963820000000  0.6193130000000  0.5161800000000 1.0
C      1  0.4711360000000  0.5369170000000  0.3999660000000 1.0
C      1  0.4436710000000  0.5578380000000  0.6021190000000 1.0
C      1  0.4695680000000  0.4196360000000  0.4142180000000 1.0
C      1  0.5097240000000  0.3862620000000  0.4992190000000 1.0
C      1  0.4679960000000  0.4623700000000  0.4378370000000 1.0
C      1  0.5224790000000  0.4616000000000  0.5266030000000 1.0
C      1  0.4783540000000  0.5251580000000  0.4442070000000 1.0
C      1  0.5007440000000  0.5836930000000  0.5624870000000 1.0
C      1  0.4991930000000  0.5115230000000  0.6314830000000 1.0
C      1  0.4364980000000  0.4013030000000  0.5092920000000 1.0
C      1  0.5509810000000  0.5619410000000  0.4427980000000 1.0
C      1  0.5295850000000  0.4732270000000  0.6344190000000 1.0
C      1  0.3710150000000  0.4702120000000  0.5189700000000 1.0
C      1  0.5728600000000  0.4039030000000  0.5068060000000 1.0
C      1  0.3909000000000  0.4343440000000  0.4883870000000 1.0
C      1  0.4790010000000  0.6215470000000  0.5367910000000 1.0
C      1  0.4912030000000  0.4139390000000  0.4572400000000 1.0
C      1  0.5302850000000  0.4224950000000  0.5775720000000 1.0
C      1  0.5113600000000  0.5824830000000  0.4242250000000 1.0
C      1  0.4563850000000  0.5419360000000  0.5471900000000 1.0
C      1  0.5670250000000  0.4698430000000  0.5227940000000 1.0
C      1  0.4638330000000  0.5453230000000  0.4277840000000 1.0
C      1  0.4260350000000  0.5985280000000  0.5070770000000 1.0
C      1  0.4823780000000  0.4737400000000  0.5957890000000 1.0
C      1  0.4748350000000  0.5121120000000  0.6738750000000 1.0
C      1  0.5080100000000  0.5209400000000  0.4379100000000 1.0
C      1  0.4603500000000  0.4683780000000  0.6137110000000 1.0
C      1  0.4475590000000  0.5459180000000  0.4933160000000 1.0
C      1  0.5479110000000  0.4136060000000  0.5059120000000 1.0
C      1  0.5814880000000  0.4454220000000  0.4230440000000 1.0
C      1  0.4602480000000  0.4124750000000  0.5572840000000 1.0
C      1  0.5799700000000  0.4419310000000  0.4512990000000 1.0
C      1  0.4970690000000  0.4907430000000  0.4965230000000 1.0
C      1  0.5887320000000  0.5226380000000  0.4222920000000 1.0
C      1  0.4408250000000  0.4846620000000  0.5040610000000 1.0
C      1  0.5107230000000  0.4408050000000  0.5130000000000 1.0
C      1  0.5283770000000  0.3863860000000  0.4757380000000 1.0
C      1  0.5010020000000  0.6014590000000  0.4946680000000 1.0
C      1  0.5532260000000  0.5809560000000  0.3988560000000 1.0
C      1  0.5505740000000  0.5809040000000  0.4732780000000 1.0
C      1  0.6279520000000  0.4445030000000  0.4967070000000 1.0
C      1  0.4814350000000  0.4551340000000  0.5725780000000 1.0
C      1  0.5744830000000  0.5164530000000  0.4734010000000 1.0
C      1  0.5568520000000  0.4822210000000  0.4047590000000 1.0
C      1  0.5563500000000  0.5516570000000  0.5315430000000 1.0
C      1  0.4873980000000  0.3999580000000  0.5517030000000 1.0
C      1  0.4786190000000  0.5017440000000  0.6489180000000 1.0
C      1  0.4621880000000  0.5231580000000  0.4994720000000 1.0
C      1  0.5699460000000  0.5370250000000  0.5814630000000 1.0
C      1  0.5560190000000  0.6098060000000  0.5569740000000 1.0
C      1  0.4250460000000  0.5443440000000  0.4745010000000 1.0
C      1  0.5268700000000  0.5959450000000  0.4822240000000 1.0
C      1  0.4629260000000  0.4435030000000  0.5108640000000 1.0
C      1  0.4596030000000  0.6044570000000  0.5499470000000 1.0
C      1  0.5623800000000  0.4977500000000  0.5260960000000 1.0
C      1  0.5474240000000  0.5236510000000  0.4708520000000 1.0
C      1  0.5187060000000  0.4532470000000  0.4533740000000 1.0
C      1  0.5082990000000  0.5377790000000  0.4900250000000 1.0
C      1  0.5258400000000  0.5010410000000  0.6325870000000 1.0
C      1  0.5305640000000  0.5385060000000  0.4502870000000 1.0
C      1  0.5336570000000  0.5255840000000  0.4958080000000 1.0
C      1  0.5430830000000  0.6030100000000  0.5810030000000 1.0
C      1  0.4208030000000  0.4522540000000  0.4563790000000 1.0
C      1  0.5409080000000  0.4693500000000  0.4485470000000 1.0
C      1  0.4927540000000  0.4110240000000  0.4282050000000 1.0
C      1  0.5660870000000  0.4264730000000  0.3807830000000 1.0
C      1  0.4012000000000  0.4839330000000  0.5690960000000 1.0
C      1  0.5313460000000  0.4488140000000  0.6239000000000 1.0
C      1  0.4076270000000  0.5227410000000  0.4662470000000 1.0
C      1  0.5440690000000  0.4114970000000  0.4244250000000 1.0
C      1  0.5712990000000  0.5441140000000  0.4190830000000 1.0
C      1  0.5266640000000  0.4278170000000  0.4938740000000 1.0
C      1  0.4728340000000  0.5877930000000  0.5714540000000 1.0
C      1  0.4623210000000  0.4808460000000  0.6386530000000 1.0
C      1  0.5877410000000  0.5306810000000  0.4948680000000 1.0
C      1  0.4117830000000  0.5024310000000  0.4446670000000 1.0
C      1  0.4938890000000  0.4671000000000  0.4516690000000 1.0
C      1  0.5000280000000  0.5750330000000  0.3994010000000 1.0
C      1  0.3868460000000  0.5092650000000  0.4819770000000 1.0
C      1  0.4885070000000  0.4921990000000  0.4071500000000 1.0
C      1  0.4232750000000  0.5913610000000  0.4805010000000 1.0
C      1  0.5502230000000  0.4018710000000  0.4525980000000 1.0
C      1  0.4685290000000  0.5683020000000  0.5938000000000 1.0
C      1  0.5280880000000  0.5582410000000  0.5319690000000 1.0
C      1  0.4075790000000  0.5278090000000  0.5489950000000 1.0
C      1  0.4284990000000  0.5090690000000  0.5979900000000 1.0
C      1  0.4912800000000  0.5228360000000  0.6060070000000 1.0
C      1  0.6258380000000  0.4963120000000  0.5059200000000 1.0
C      1  0.4316900000000  0.5360700000000  0.5891510000000 1.0
C      1  0.5608600000000  0.5536500000000  0.3938770000000 1.0
C      1  0.3934140000000  0.5030200000000  0.5496770000000 1.0
C      1  0.4853240000000  0.4730520000000  0.5509660000000 1.0
C      1  0.5174210000000  0.4180050000000  0.4144990000000 1.0
C      1  0.4811050000000  0.5003320000000  0.5584060000000 1.0
C      1  0.5901900000000  0.4094490000000  0.4854600000000 1.0
C      1  0.5511720000000  0.4420630000000  0.3643120000000 1.0
C      1  0.4859300000000  0.5022600000000  0.5868540000000 1.0
C      1  0.4217420000000  0.4824220000000  0.5883730000000 1.0
C      1  0.4461730000000  0.4883870000000  0.4746120000000 1.0
C      1  0.5429230000000  0.5388540000000  0.3778230000000 1.0
C      1  0.4023390000000  0.4364490000000  0.5473310000000 1.0
C      1  0.4618790000000  0.4455410000000  0.4160670000000 1.0
C      1  0.5397290000000  0.5827330000000  0.4238950000000 1.0
C      1  0.4879980000000  0.4697370000000  0.4801910000000 1.0
C      1  0.4652820000000  0.4189630000000  0.4711810000000 1.0
C      1  0.6113450000000  0.5187680000000  0.5044380000000 1.0
C      1  0.5759070000000  0.6003810000000  0.5097910000000 1.0
C      1  0.5162600000000  0.5658610000000  0.6022870000000 1.0
C      1  0.3791380000000  0.4599700000000  0.4937020000000 1.0
C      1  0.5147730000000  0.4381040000000  0.3933620000000 1.0
C      1  0.4643710000000  0.5672230000000  0.5045070000000 1.0
C      1  0.4528360000000  0.5686420000000  0.4444970000000 1.0
C      1  0.4604890000000  0.5082030000000  0.4589930000000 1.0
C      1  0.4301740000000  0.5402690000000  0.5606310000000 1.0
C      1  0.5312480000000  0.4305870000000  0.6044730000000 1.0
C      1  0.4406060000000  0.4595490000000  0.5179450000000 1.0
C      1  0.5154180000000  0.5324730000000  0.3740930000000 1.0
C      1  0.6148420000000  0.4220630000000  0.4903480000000 1.0
C      1  0.5172120000000  0.4870440000000  0.5161400000000 1.0
C      1  0.4927750000000  0.3999890000000  0.5222760000000 1.0
C      1  0.4581640000000  0.4381820000000  0.5735620000000 1.0
C      1  0.5822820000000  0.4734320000000  0.4145920000000 1.0
C      1  0.3757690000000  0.5157410000000  0.5068570000000 1.0
C      1  0.4947670000000  0.5496480000000  0.3880320000000 1.0
C      1  0.5123990000000  0.4987410000000  0.4210740000000 1.0
C      1  0.5478480000000  0.4551500000000  0.5385620000000 1.0
C      1  0.5473700000000  0.5168790000000  0.6240750000000 1.0
C      1  0.5752580000000  0.4154340000000  0.4618340000000 1.0
C      1  0.4518080000000  0.5056790000000  0.5188730000000 1.0
C      1  0.4915150000000  0.5515790000000  0.6022430000000 1.0
C      1  0.5068000000000  0.5065040000000  0.3623490000000 1.0
C      1  0.5627450000000  0.5279530000000  0.6053980000000 1.0
C      1  0.5682000000000  0.5449410000000  0.5561500000000 1.0
C      1  0.5688200000000  0.6104450000000  0.5335880000000 1.0
C      1  0.4997120000000  0.5751180000000  0.4492110000000 1.0
C      1  0.5017510000000  0.5662600000000  0.5398730000000 1.0
C      1  0.4704260000000  0.5089450000000  0.3919090000000 1.0
C      1  0.4030080000000  0.4749160000000  0.4523330000000 1.0
C      1  0.4146790000000  0.4290990000000  0.4730870000000 1.0
C      1  0.5098000000000  0.4050520000000  0.5684860000000 1.0
C      1  0.4200510000000  0.4506240000000  0.5343110000000 1.0
C      1  0.5214470000000  0.5847950000000  0.5818240000000 1.0
C      1  0.4885790000000  0.5180950000000  0.4934240000000 1.0
C      1  0.4742540000000  0.5825040000000  0.4582420000000 1.0
C      1  0.3848890000000  0.4806290000000  0.4744500000000 1.0
C      1  0.5518620000000  0.6147840000000  0.6048220000000 1.0
C      1  0.5150790000000  0.4287780000000  0.4675930000000 1.0
C      1  0.4375400000000  0.4112600000000  0.4817650000000 1.0
C      1  0.4389650000000  0.4597350000000  0.5950340000000 1.0
C      1  0.4661180000000  0.4482990000000  0.4816430000000 1.0
C      1  0.4744140000000  0.5595230000000  0.5310260000000 1.0
C      1  0.4770180000000  0.5863460000000  0.4868790000000 1.0
C      1  0.6312660000000  0.4703800000000  0.5024650000000 1.0
C      1  0.4365630000000  0.6001050000000  0.5325360000000 1.0
C      1  0.5599010000000  0.6251270000000  0.6273510000000 1.0
C      1  0.5112000000000  0.5552900000000  0.4670080000000 1.0
C      1  0.4282160000000  0.5697770000000  0.4609320000000 1.0
END
