TITL C-612602-9376-1262 1.12865740585566 125000 -1055.62020146918 0 0 173 (C1) n - 1
REM
REM in /home/nfs/bkarasulu/CARBON/AIRSS/Generating-Clusters/TERSOFF/Only-C1/FIRE-HFTN
REM
REM
REM
REM
REM
REM ./C.cell (11c1c37f851c82e70ff6c80c92926a4b)
REM AIRSS Version 0.9.1 bugfix July 2018 build 013d7b7c2542+ Fri, 06 Jul 2018 19:26:36 +0100
REM compiler GCC version 9.2.1 20190827 (Red Hat 9.2.1-1)
REM options -cpp -mtune=generic -march=x86-64 -g -O0 -fpre-include=/usr/include/finclude/math-vector-fortran.h
REM seed -14101191 314429128 -194640136 1644444425 183912852 146667535 351630087 776471131 -699411491 1493695784 2127059380 1330351078 1509240668 -2081076001 -1971725813 478351188 1515881258 -1051751853 580657853 1894660996 -1641135182 1293305869 347438672 -1996891825 -1192428384 873312633 -1306893239 -1486810785 -1016803769 825381117 -698597095 535688181 1944508445
REM
CELL 1.54180   50.00000   50.00000   50.00000   90.00000   90.00000   90.00000
LATT -1
SFAC C  
C      1  0.5673550000000  0.5403720000000  0.5741980000000 1.0
C      1  0.3916740000000  0.4559330000000  0.4926580000000 1.0
C      1  0.4847640000000  0.4822330000000  0.5476200000000 1.0
C      1  0.4063340000000  0.3993160000000  0.5431600000000 1.0
C      1  0.4956880000000  0.5285410000000  0.5520870000000 1.0
C      1  0.4159280000000  0.5418960000000  0.5166670000000 1.0
C      1  0.5971310000000  0.5668860000000  0.5484610000000 1.0
C      1  0.5074630000000  0.4720390000000  0.5671930000000 1.0
C      1  0.4318080000000  0.4831030000000  0.5147180000000 1.0
C      1  0.4591220000000  0.4757290000000  0.4159220000000 1.0
C      1  0.5689200000000  0.4545890000000  0.4714070000000 1.0
C      1  0.3807790000000  0.5037560000000  0.5122770000000 1.0
C      1  0.5583540000000  0.5638600000000  0.5868220000000 1.0
C      1  0.4318030000000  0.3835920000000  0.4774310000000 1.0
C      1  0.4575310000000  0.4023220000000  0.3858050000000 1.0
C      1  0.4651010000000  0.4971720000000  0.5657670000000 1.0
C      1  0.4806420000000  0.4690540000000  0.4344480000000 1.0
C      1  0.5557910000000  0.4757570000000  0.3823670000000 1.0
C      1  0.4451310000000  0.5388820000000  0.5187290000000 1.0
C      1  0.5227140000000  0.5999760000000  0.4640840000000 1.0
C      1  0.4859450000000  0.5476610000000  0.4029340000000 1.0
C      1  0.4096210000000  0.5622430000000  0.4975830000000 1.0
C      1  0.6359730000000  0.4652220000000  0.4765220000000 1.0
C      1  0.4680100000000  0.5297770000000  0.4215890000000 1.0
C      1  0.4744390000000  0.4640520000000  0.5259430000000 1.0
C      1  0.5167800000000  0.5012380000000  0.5063630000000 1.0
C      1  0.5888330000000  0.4650920000000  0.4875660000000 1.0
C      1  0.4388290000000  0.5508860000000  0.4605370000000 1.0
C      1  0.4706530000000  0.5528620000000  0.5172830000000 1.0
C      1  0.4582310000000  0.4234480000000  0.4966890000000 1.0
C      1  0.5018970000000  0.4902790000000  0.4373890000000 1.0
C      1  0.4481920000000  0.4636140000000  0.5962520000000 1.0
C      1  0.5458320000000  0.4471520000000  0.4851390000000 1.0
C      1  0.6115760000000  0.4775980000000  0.4758650000000 1.0
C      1  0.5542300000000  0.4934190000000  0.5640020000000 1.0
C      1  0.5376110000000  0.4735520000000  0.5503070000000 1.0
C      1  0.5823530000000  0.4642670000000  0.5156730000000 1.0
C      1  0.3852570000000  0.4747810000000  0.5229830000000 1.0
C      1  0.5091450000000  0.5516290000000  0.4735890000000 1.0
C      1  0.4894240000000  0.5738410000000  0.4150730000000 1.0
C      1  0.5192040000000  0.4531170000000  0.4820300000000 1.0
C      1  0.5639080000000  0.3924020000000  0.4782640000000 1.0
C      1  0.5587100000000  0.4472710000000  0.5995860000000 1.0
C      1  0.5542510000000  0.4706150000000  0.5251100000000 1.0
C      1  0.4305980000000  0.4986330000000  0.4467900000000 1.0
C      1  0.5172040000000  0.5784580000000  0.4207500000000 1.0
C      1  0.5441360000000  0.4589760000000  0.4288280000000 1.0
C      1  0.5191960000000  0.4270440000000  0.5814840000000 1.0
C      1  0.4999330000000  0.5041200000000  0.5325860000000 1.0
C      1  0.4909710000000  0.5848230000000  0.5955850000000 1.0
C      1  0.4897080000000  0.5185910000000  0.4435550000000 1.0
C      1  0.4824310000000  0.3927500000000  0.4527360000000 1.0
C      1  0.4806580000000  0.4472730000000  0.4538450000000 1.0
C      1  0.4515140000000  0.5545470000000  0.4354520000000 1.0
C      1  0.3935090000000  0.4710840000000  0.4436350000000 1.0
C      1  0.5851490000000  0.5795700000000  0.5263070000000 1.0
C      1  0.4678530000000  0.5800280000000  0.4348810000000 1.0
C      1  0.5426520000000  0.6142350000000  0.4777090000000 1.0
C      1  0.4448530000000  0.4600470000000  0.5242090000000 1.0
C      1  0.3934130000000  0.5006600000000  0.4862500000000 1.0
C      1  0.5462840000000  0.5230930000000  0.5614770000000 1.0
C      1  0.5177640000000  0.3887440000000  0.4944180000000 1.0
C      1  0.5233690000000  0.6005310000000  0.4362770000000 1.0
C      1  0.5035740000000  0.6359010000000  0.5054090000000 1.0
C      1  0.5083060000000  0.5798250000000  0.4794170000000 1.0
C      1  0.4281660000000  0.5710530000000  0.4779570000000 1.0
C      1  0.5390230000000  0.4269150000000  0.6014070000000 1.0
C      1  0.4053630000000  0.4610630000000  0.5694020000000 1.0
C      1  0.6000790000000  0.4903370000000  0.5519890000000 1.0
C      1  0.4436140000000  0.5423130000000  0.5628720000000 1.0
C      1  0.4570530000000  0.3984150000000  0.4396790000000 1.0
C      1  0.6086760000000  0.5025970000000  0.4631600000000 1.0
C      1  0.5455520000000  0.5349100000000  0.5321960000000 1.0
C      1  0.4719540000000  0.3709600000000  0.5090660000000 1.0
C      1  0.5102920000000  0.5402230000000  0.4473900000000 1.0
C      1  0.4496680000000  0.4906340000000  0.5886120000000 1.0
C      1  0.4128900000000  0.4408800000000  0.4782940000000 1.0
C      1  0.5687310000000  0.4485000000000  0.4437400000000 1.0
C      1  0.5777730000000  0.4219140000000  0.4388510000000 1.0
C      1  0.5328100000000  0.5344680000000  0.4022800000000 1.0
C      1  0.5136780000000  0.4961070000000  0.5876910000000 1.0
C      1  0.4887030000000  0.6388190000000  0.4826430000000 1.0
C      1  0.3852570000000  0.4763840000000  0.4718070000000 1.0
C      1  0.5448040000000  0.5858530000000  0.5798990000000 1.0
C      1  0.4665980000000  0.4901840000000  0.4787550000000 1.0
C      1  0.5302740000000  0.4886150000000  0.6095410000000 1.0
C      1  0.5217980000000  0.5469850000000  0.5200210000000 1.0
C      1  0.5991550000000  0.5296850000000  0.4639380000000 1.0
C      1  0.5293910000000  0.4237730000000  0.5547670000000 1.0
C      1  0.4966390000000  0.5899310000000  0.5038820000000 1.0
C      1  0.5788510000000  0.4788790000000  0.5681720000000 1.0
C      1  0.4413860000000  0.5301550000000  0.6160980000000 1.0
C      1  0.5453460000000  0.5047770000000  0.4598650000000 1.0
C      1  0.5236260000000  0.4376070000000  0.4372520000000 1.0
C      1  0.5612760000000  0.5194410000000  0.5098110000000 1.0
C      1  0.5490260000000  0.5288940000000  0.4828650000000 1.0
C      1  0.4983200000000  0.3769060000000  0.5118520000000 1.0
C      1  0.4211310000000  0.5245650000000  0.5719630000000 1.0
C      1  0.4585750000000  0.5505540000000  0.6194250000000 1.0
C      1  0.4736960000000  0.4518260000000  0.6020610000000 1.0
C      1  0.6045460000000  0.4704740000000  0.5322610000000 1.0
C      1  0.5461240000000  0.4940630000000  0.5113190000000 1.0
C      1  0.6000910000000  0.5403960000000  0.4926970000000 1.0
C      1  0.3969160000000  0.4804580000000  0.5504940000000 1.0
C      1  0.5598070000000  0.5016910000000  0.3786630000000 1.0
C      1  0.4985300000000  0.5979100000000  0.5715680000000 1.0
C      1  0.5397530000000  0.4312550000000  0.3878740000000 1.0
C      1  0.5747380000000  0.4004870000000  0.4550750000000 1.0
C      1  0.4484270000000  0.3726950000000  0.4958720000000 1.0
C      1  0.4759670000000  0.6243450000000  0.4634680000000 1.0
C      1  0.4770660000000  0.6056890000000  0.5547560000000 1.0
C      1  0.4318810000000  0.4011770000000  0.4546360000000 1.0
C      1  0.5061950000000  0.5295700000000  0.3913420000000 1.0
C      1  0.4743380000000  0.5150470000000  0.4694950000000 1.0
C      1  0.5985580000000  0.5179910000000  0.5420460000000 1.0
C      1  0.4348730000000  0.4582470000000  0.4174340000000 1.0
C      1  0.4803170000000  0.4753820000000  0.4984090000000 1.0
C      1  0.4861350000000  0.4373230000000  0.5342380000000 1.0
C      1  0.5071510000000  0.4406300000000  0.4597510000000 1.0
C      1  0.4960470000000  0.5494810000000  0.5315790000000 1.0
C      1  0.5122460000000  0.4273760000000  0.5322150000000 1.0
C      1  0.4673800000000  0.5826810000000  0.5105940000000 1.0
C      1  0.4064820000000  0.4953060000000  0.4348590000000 1.0
C      1  0.4646710000000  0.5983420000000  0.4591660000000 1.0
C      1  0.4565180000000  0.4001770000000  0.4117560000000 1.0
C      1  0.5463230000000  0.3961500000000  0.5006710000000 1.0
C      1  0.4772870000000  0.4313870000000  0.5607630000000 1.0
C      1  0.4439640000000  0.5699840000000  0.5544030000000 1.0
C      1  0.3964530000000  0.5233010000000  0.5287560000000 1.0
C      1  0.5907250000000  0.5221450000000  0.5137530000000 1.0
C      1  0.5050050000000  0.3916800000000  0.4681800000000 1.0
C      1  0.4233410000000  0.4154700000000  0.5318040000000 1.0
C      1  0.4581360000000  0.5911270000000  0.5393170000000 1.0
C      1  0.4654690000000  0.5024760000000  0.4038720000000 1.0
C      1  0.4374530000000  0.4554860000000  0.4730410000000 1.0
C      1  0.5577370000000  0.4258120000000  0.5496120000000 1.0
C      1  0.5316210000000  0.5519030000000  0.4274060000000 1.0
C      1  0.5114650000000  0.6109860000000  0.5170930000000 1.0
C      1  0.4677790000000  0.5258970000000  0.5622110000000 1.0
C      1  0.5924110000000  0.5673210000000  0.4997650000000 1.0
C      1  0.5260000000000  0.5975160000000  0.5624820000000 1.0
C      1  0.5587040000000  0.5235500000000  0.3959190000000 1.0
C      1  0.5598230000000  0.6000990000000  0.4940100000000 1.0
C      1  0.4037380000000  0.5099980000000  0.5538550000000 1.0
C      1  0.4511160000000  0.5880110000000  0.4839410000000 1.0
C      1  0.5195580000000  0.5316840000000  0.4936090000000 1.0
C      1  0.5835520000000  0.5384130000000  0.4388930000000 1.0
C      1  0.5595840000000  0.4094020000000  0.5243990000000 1.0
C      1  0.5817350000000  0.5280660000000  0.4124270000000 1.0
C      1  0.5315870000000  0.4862980000000  0.4408380000000 1.0
C      1  0.5584000000000  0.5532680000000  0.4427720000000 1.0
C      1  0.4108360000000  0.4478420000000  0.4329760000000 1.0
C      1  0.5466120000000  0.4554850000000  0.3990410000000 1.0
C      1  0.5602090000000  0.5973790000000  0.5231680000000 1.0
C      1  0.4207800000000  0.4991690000000  0.4957750000000 1.0
C      1  0.4553430000000  0.5339710000000  0.4751380000000 1.0
C      1  0.4763400000000  0.5689100000000  0.6113700000000 1.0
C      1  0.5078250000000  0.4759850000000  0.4933570000000 1.0
C      1  0.5717380000000  0.4495460000000  0.5731390000000 1.0
C      1  0.5508260000000  0.4712290000000  0.6130970000000 1.0
C      1  0.5918380000000  0.5409340000000  0.5589090000000 1.0
C      1  0.4130520000000  0.4246540000000  0.4530920000000 1.0
C      1  0.5568610000000  0.5554030000000  0.4709620000000 1.0
C      1  0.4439680000000  0.4811310000000  0.4648250000000 1.0
C      1  0.4323110000000  0.5121880000000  0.5961680000000 1.0
C      1  0.4899720000000  0.5055960000000  0.3862480000000 1.0
C      1  0.4607740000000  0.4387670000000  0.4726800000000 1.0
C      1  0.4948960000000  0.4454400000000  0.5816580000000 1.0
C      1  0.4240110000000  0.4520140000000  0.5869050000000 1.0
C      1  0.5709870000000  0.5764160000000  0.4831400000000 1.0
C      1  0.4408880000000  0.4321170000000  0.5182150000000 1.0
C      1  0.5336270000000  0.6034990000000  0.5351810000000 1.0
C      1  0.5173950000000  0.5216180000000  0.5726970000000 1.0
END
