TITL C-612600-6631-660 0.680162859265005 125000 -160.007238024056 0 0 29 (C1) n - 1
REM
REM in /home/nfs/bkarasulu/CARBON/AIRSS/Generating-Clusters/TERSOFF/Only-C1/FIRE-HFTN
REM
REM
REM
REM
REM
REM ./C.cell (11c1c37f851c82e70ff6c80c92926a4b)
REM AIRSS Version 0.9.1 bugfix July 2018 build 013d7b7c2542+ Fri, 06 Jul 2018 19:26:36 +0100
REM compiler GCC version 9.2.1 20190827 (Red Hat 9.2.1-1)
REM options -cpp -mtune=generic -march=x86-64 -g -O0 -fpre-include=/usr/include/finclude/math-vector-fortran.h
REM seed 206851963 1858281042 657102361 -1854474881 -1460023056 -726956552 -1484829437 1821423085 608022311 -273501607 -1583997086 1387442127 2063632571 -874235006 -297166381 -1266569664 -450346446 1083085831 428157093 -1420094421 -426282250 1936982457 139007940 1827085347 1585116509 -829494739 564748319 537953362 1616810027 -1969595721 -506983846 -196289696 1024417976
REM
CELL 1.54180   50.00000   50.00000   50.00000   90.00000   90.00000   90.00000
LATT -1
SFAC C  
C      1  0.5603130000000  0.4973110000000  0.5832870000000 1.0
C      1  0.4564610000000  0.4601120000000  0.4197630000000 1.0
C      1  0.4656910000000  0.5351220000000  0.4516780000000 1.0
C      1  0.4223820000000  0.5150160000000  0.4613900000000 1.0
C      1  0.5626730000000  0.4806940000000  0.6032350000000 1.0
C      1  0.4614690000000  0.5260200000000  0.5332820000000 1.0
C      1  0.4858680000000  0.4719170000000  0.4620660000000 1.0
C      1  0.5885030000000  0.5735100000000  0.5348320000000 1.0
C      1  0.4837280000000  0.5274790000000  0.4698740000000 1.0
C      1  0.6051920000000  0.5932340000000  0.5313600000000 1.0
C      1  0.5537090000000  0.5323080000000  0.5421470000000 1.0
C      1  0.5319230000000  0.5291490000000  0.5249610000000 1.0
C      1  0.5715480000000  0.5534610000000  0.5383690000000 1.0
C      1  0.4396760000000  0.5300640000000  0.4474010000000 1.0
C      1  0.5294980000000  0.4550240000000  0.5189510000000 1.0
C      1  0.5112310000000  0.5225690000000  0.5098310000000 1.0
C      1  0.4417770000000  0.4924090000000  0.5042820000000 1.0
C      1  0.4722970000000  0.4646050000000  0.4405280000000 1.0
C      1  0.4888210000000  0.5105590000000  0.4941710000000 1.0
C      1  0.4397270000000  0.4569130000000  0.3994600000000 1.0
C      1  0.4635000000000  0.5096620000000  0.5113380000000 1.0
C      1  0.4961610000000  0.4824670000000  0.4858570000000 1.0
C      1  0.5576350000000  0.5142750000000  0.5631140000000 1.0
C      1  0.5127200000000  0.4671250000000  0.5024090000000 1.0
C      1  0.5471220000000  0.4437050000000  0.5351910000000 1.0
C      1  0.4243480000000  0.5004810000000  0.4837660000000 1.0
C      1  0.5647100000000  0.4322480000000  0.5506510000000 1.0
C      1  0.4381870000000  0.4685930000000  0.5172360000000 1.0
C      1  0.4231310000000  0.4539690000000  0.3795710000000 1.0
END
