TITL C-612601-4209-1265 0.00057242291702932 125000 -739.883021423003 0 0 122 (C1) n - 1
REM
REM in /home/nfs/bkarasulu/CARBON/AIRSS/Generating-Clusters/TERSOFF/Only-C1/FIRE-HFTN
REM
REM
REM
REM
REM
REM ./C.cell (11c1c37f851c82e70ff6c80c92926a4b)
REM AIRSS Version 0.9.1 bugfix July 2018 build 013d7b7c2542+ Fri, 06 Jul 2018 19:26:36 +0100
REM compiler GCC version 9.2.1 20190827 (Red Hat 9.2.1-1)
REM options -cpp -mtune=generic -march=x86-64 -g -O0 -fpre-include=/usr/include/finclude/math-vector-fortran.h
REM seed -14999916 558685576 1394509010 606208749 432122359 641835504 1621905390 -1653262187 1280081728 -702888354 -1811464188 -973796181 1695268028 312833444 337305450 1417564695 -687875462 -98509939 1161268167 1347986125 1003275497 262259487 1132584699 -1225769391 428387024 1583724389 2131192446 -765190738 165351049 1985398662 -618938123 996563009 1246926332
REM
CELL 1.54180   50.00000   50.00000   50.00000   90.00000   90.00000   90.00000
LATT -1
SFAC C  
C      1  0.5133980000000  0.4756930000000  0.4755380000000 1.0
C      1  0.4233990000000  0.4260750000000  0.5417480000000 1.0
C      1  0.5707670000000  0.4800960000000  0.4437010000000 1.0
C      1  0.3774050000000  0.4783160000000  0.5192630000000 1.0
C      1  0.5464750000000  0.4217070000000  0.4502270000000 1.0
C      1  0.4974420000000  0.5745640000000  0.4583730000000 1.0
C      1  0.4668960000000  0.4776630000000  0.3972550000000 1.0
C      1  0.4859210000000  0.4416520000000  0.4170570000000 1.0
C      1  0.5337750000000  0.4274590000000  0.6070660000000 1.0
C      1  0.5184350000000  0.5388050000000  0.4327070000000 1.0
C      1  0.4693650000000  0.4552080000000  0.4961970000000 1.0
C      1  0.5056960000000  0.4886800000000  0.4287690000000 1.0
C      1  0.5798500000000  0.5060950000000  0.5400070000000 1.0
C      1  0.6137770000000  0.4713760000000  0.5143280000000 1.0
C      1  0.5029180000000  0.4030770000000  0.4580350000000 1.0
C      1  0.5612000000000  0.4350500000000  0.4322820000000 1.0
C      1  0.4913600000000  0.4933990000000  0.4776310000000 1.0
C      1  0.4621310000000  0.5350370000000  0.4097750000000 1.0
C      1  0.4990220000000  0.4618950000000  0.6027750000000 1.0
C      1  0.6080050000000  0.4997470000000  0.4695360000000 1.0
C      1  0.4953030000000  0.5190170000000  0.4885040000000 1.0
C      1  0.5392630000000  0.5041000000000  0.5081620000000 1.0
C      1  0.4558990000000  0.4336630000000  0.4812300000000 1.0
C      1  0.5560120000000  0.4917360000000  0.4652630000000 1.0
C      1  0.5776090000000  0.5403810000000  0.4788110000000 1.0
C      1  0.4040330000000  0.5143680000000  0.5338750000000 1.0
C      1  0.4133640000000  0.4926240000000  0.4919470000000 1.0
C      1  0.5396420000000  0.4800860000000  0.4887300000000 1.0
C      1  0.4295600000000  0.6216730000000  0.4522760000000 1.0
C      1  0.4767660000000  0.5288110000000  0.5388110000000 1.0
C      1  0.5627970000000  0.5158390000000  0.5193650000000 1.0
C      1  0.6276440000000  0.5440360000000  0.4760400000000 1.0
C      1  0.5048370000000  0.5015600000000  0.5812930000000 1.0
C      1  0.3932560000000  0.5008720000000  0.5120200000000 1.0
C      1  0.5987060000000  0.4872490000000  0.4451320000000 1.0
C      1  0.4366550000000  0.5266540000000  0.4484280000000 1.0
C      1  0.4782070000000  0.5559400000000  0.4158820000000 1.0
C      1  0.5680930000000  0.4911990000000  0.5943540000000 1.0
C      1  0.4551160000000  0.4749650000000  0.5615130000000 1.0
C      1  0.4387610000000  0.5416390000000  0.5668040000000 1.0
C      1  0.4439880000000  0.4133160000000  0.4961000000000 1.0
C      1  0.5606150000000  0.5641780000000  0.5232070000000 1.0
C      1  0.4232560000000  0.5632710000000  0.5224590000000 1.0
C      1  0.4540020000000  0.4398210000000  0.4526230000000 1.0
C      1  0.5947090000000  0.4608360000000  0.5322540000000 1.0
C      1  0.4509970000000  0.5221820000000  0.5860270000000 1.0
C      1  0.5338670000000  0.5763170000000  0.5210530000000 1.0
C      1  0.5411760000000  0.4666840000000  0.4019510000000 1.0
C      1  0.4331320000000  0.4106570000000  0.5203710000000 1.0
C      1  0.6161050000000  0.4826430000000  0.4238760000000 1.0
C      1  0.5257940000000  0.5157620000000  0.5930670000000 1.0
C      1  0.4213640000000  0.4161890000000  0.5670990000000 1.0
C      1  0.5594880000000  0.4362270000000  0.5092780000000 1.0
C      1  0.4288120000000  0.5039210000000  0.5412930000000 1.0
C      1  0.5387890000000  0.4609500000000  0.5713040000000 1.0
C      1  0.4778600000000  0.5609910000000  0.6018420000000 1.0
C      1  0.4683860000000  0.4239130000000  0.4323000000000 1.0
C      1  0.5800640000000  0.4788170000000  0.5489660000000 1.0
C      1  0.3964900000000  0.4977860000000  0.4515850000000 1.0
C      1  0.5202760000000  0.4253790000000  0.4596590000000 1.0
C      1  0.5437670000000  0.4066270000000  0.6191210000000 1.0
C      1  0.3951860000000  0.4521730000000  0.4856570000000 1.0
C      1  0.4627870000000  0.4696170000000  0.4477240000000 1.0
C      1  0.5174940000000  0.5125070000000  0.4281920000000 1.0
C      1  0.6054400000000  0.5280210000000  0.4745960000000 1.0
C      1  0.4781140000000  0.4730890000000  0.5444740000000 1.0
C      1  0.5099170000000  0.4520410000000  0.4601580000000 1.0
C      1  0.3935110000000  0.4546460000000  0.5153600000000 1.0
C      1  0.5509810000000  0.5109520000000  0.6010620000000 1.0
C      1  0.5819040000000  0.4372310000000  0.5239610000000 1.0
C      1  0.5235700000000  0.4688400000000  0.5488360000000 1.0
C      1  0.4641620000000  0.4799660000000  0.4773320000000 1.0
C      1  0.6170180000000  0.4837050000000  0.4908660000000 1.0
C      1  0.4930940000000  0.5735840000000  0.5532170000000 1.0
C      1  0.4864580000000  0.4574600000000  0.5199830000000 1.0
C      1  0.4736220000000  0.5591540000000  0.5348040000000 1.0
C      1  0.4381030000000  0.5973000000000  0.4557980000000 1.0
C      1  0.4469050000000  0.5726440000000  0.4599250000000 1.0
C      1  0.5203280000000  0.5859740000000  0.4990120000000 1.0
C      1  0.4929840000000  0.4628150000000  0.4383180000000 1.0
C      1  0.4968600000000  0.5772800000000  0.4867340000000 1.0
C      1  0.4854920000000  0.4864170000000  0.5964920000000 1.0
C      1  0.4695890000000  0.5369470000000  0.4880570000000 1.0
C      1  0.4785890000000  0.5618900000000  0.5033920000000 1.0
C      1  0.5589460000000  0.5201770000000  0.4663240000000 1.0
C      1  0.5238830000000  0.4500090000000  0.5938620000000 1.0
C      1  0.5165960000000  0.4552570000000  0.5240850000000 1.0
C      1  0.4857750000000  0.5753250000000  0.5805970000000 1.0
C      1  0.4430670000000  0.5601220000000  0.5433890000000 1.0
C      1  0.4593130000000  0.4928620000000  0.5847100000000 1.0
C      1  0.5592410000000  0.4621010000000  0.4241380000000 1.0
C      1  0.5431350000000  0.5741200000000  0.5655220000000 1.0
C      1  0.5206550000000  0.5770830000000  0.5473150000000 1.0
C      1  0.4992490000000  0.5593160000000  0.4346300000000 1.0
C      1  0.4005240000000  0.4768890000000  0.4710140000000 1.0
C      1  0.5701480000000  0.5893970000000  0.4530770000000 1.0
C      1  0.4153810000000  0.4528230000000  0.5352890000000 1.0
C      1  0.5754910000000  0.5667340000000  0.4656950000000 1.0
C      1  0.6319860000000  0.4779680000000  0.4037500000000 1.0
C      1  0.5649490000000  0.4730560000000  0.5727480000000 1.0
C      1  0.4301870000000  0.4755760000000  0.5475150000000 1.0
C      1  0.5692390000000  0.5417530000000  0.5081180000000 1.0
C      1  0.4890310000000  0.4583410000000  0.3935470000000 1.0
C      1  0.4091280000000  0.5239160000000  0.4563890000000 1.0
C      1  0.4413930000000  0.4959950000000  0.4887740000000 1.0
C      1  0.5629390000000  0.6113000000000  0.4409200000000 1.0
C      1  0.5390900000000  0.4549500000000  0.5060190000000 1.0
C      1  0.4548870000000  0.4872160000000  0.4228460000000 1.0
C      1  0.5988580000000  0.5227520000000  0.5509170000000 1.0
C      1  0.5010210000000  0.5149800000000  0.5359040000000 1.0
C      1  0.4808780000000  0.4006560000000  0.4424690000000 1.0
C      1  0.5170720000000  0.4641100000000  0.3888650000000 1.0
C      1  0.4092130000000  0.5560280000000  0.5002090000000 1.0
C      1  0.4646890000000  0.5377870000000  0.6059500000000 1.0
C      1  0.5137960000000  0.5171610000000  0.5108840000000 1.0
C      1  0.4489920000000  0.5153180000000  0.4255250000000 1.0
C      1  0.5032530000000  0.4906830000000  0.5530880000000 1.0
C      1  0.4018520000000  0.5422730000000  0.4777410000000 1.0
C      1  0.4523920000000  0.5159750000000  0.5302160000000 1.0
C      1  0.4527060000000  0.5452630000000  0.4638560000000 1.0
C      1  0.4510050000000  0.5184670000000  0.5023650000000 1.0
C      1  0.5662330000000  0.5675370000000  0.5516400000000 1.0
END
