TITL C-612605-9286-162 0.897183730288168 125000 -1168.27994738248 0 0 190 (C1) n - 1
REM
REM in /home/nfs/bkarasulu/CARBON/AIRSS/Generating-Clusters/TERSOFF/Only-C1/FIRE-HFTN
REM
REM
REM
REM
REM
REM ./C.cell (11c1c37f851c82e70ff6c80c92926a4b)
REM AIRSS Version 0.9.1 bugfix July 2018 build 013d7b7c2542+ Fri, 06 Jul 2018 19:26:36 +0100
REM compiler GCC version 9.2.1 20190827 (Red Hat 9.2.1-1)
REM options -cpp -mtune=generic -march=x86-64 -g -O0 -fpre-include=/usr/include/finclude/math-vector-fortran.h
REM seed 1096299805 -703631442 461327445 -1308943137 708930381 1398770728 122467078 736430272 -1596572859 2033267784 -2122069911 4949799 -186572976 -1437219913 -456479400 -1216169032 539725502 89223826 1682233990 591659593 -1626990763 408866203 -468117908 1483781498 -431382687 -2076102996 25699388 -1399476841 457955003 617228994 579688972 1876314626 -1407267068
REM
CELL 1.54180   50.00000   50.00000   50.00000   90.00000   90.00000   90.00000
LATT -1
SFAC C  
C      1  0.6293880000000  0.5155060000000  0.4844490000000 1.0
C      1  0.5390800000000  0.5842310000000  0.4368320000000 1.0
C      1  0.5609290000000  0.4906220000000  0.4827170000000 1.0
C      1  0.5105730000000  0.6049550000000  0.5497200000000 1.0
C      1  0.5157380000000  0.5630820000000  0.5685050000000 1.0
C      1  0.4774870000000  0.4734290000000  0.5822720000000 1.0
C      1  0.5196970000000  0.3876060000000  0.5308720000000 1.0
C      1  0.5886130000000  0.5381660000000  0.6108690000000 1.0
C      1  0.6141040000000  0.4994360000000  0.4422060000000 1.0
C      1  0.4120610000000  0.5328040000000  0.5725270000000 1.0
C      1  0.5766180000000  0.4742480000000  0.4198940000000 1.0
C      1  0.4825140000000  0.5159290000000  0.4490750000000 1.0
C      1  0.4648530000000  0.5166380000000  0.5600040000000 1.0
C      1  0.5190980000000  0.4267050000000  0.4972380000000 1.0
C      1  0.5660610000000  0.5790170000000  0.4282170000000 1.0
C      1  0.5179050000000  0.5184240000000  0.5093730000000 1.0
C      1  0.5224150000000  0.4576250000000  0.6108200000000 1.0
C      1  0.4604930000000  0.6099080000000  0.5555150000000 1.0
C      1  0.4366120000000  0.5858140000000  0.5899030000000 1.0
C      1  0.3939580000000  0.4581430000000  0.4230830000000 1.0
C      1  0.3799140000000  0.5295940000000  0.4269590000000 1.0
C      1  0.5428050000000  0.4124020000000  0.4943630000000 1.0
C      1  0.4905770000000  0.5355830000000  0.4722410000000 1.0
C      1  0.4190060000000  0.4838530000000  0.5473380000000 1.0
C      1  0.4356500000000  0.5935850000000  0.4676510000000 1.0
C      1  0.6160000000000  0.5231660000000  0.4600540000000 1.0
C      1  0.4504750000000  0.4996460000000  0.5127050000000 1.0
C      1  0.6145370000000  0.5157780000000  0.5564020000000 1.0
C      1  0.5604030000000  0.4726040000000  0.5037780000000 1.0
C      1  0.4879090000000  0.4607300000000  0.3764250000000 1.0
C      1  0.4005670000000  0.4387330000000  0.5074180000000 1.0
C      1  0.5734700000000  0.5606440000000  0.4992320000000 1.0
C      1  0.4554630000000  0.5953630000000  0.5109500000000 1.0
C      1  0.4710130000000  0.5326610000000  0.4282010000000 1.0
C      1  0.3926150000000  0.4921470000000  0.5092440000000 1.0
C      1  0.4007150000000  0.5071080000000  0.4855060000000 1.0
C      1  0.5185780000000  0.4271180000000  0.4329660000000 1.0
C      1  0.5857310000000  0.4411680000000  0.5866620000000 1.0
C      1  0.5457080000000  0.5207180000000  0.6394990000000 1.0
C      1  0.3891530000000  0.5566760000000  0.4266900000000 1.0
C      1  0.5181530000000  0.4530140000000  0.5068580000000 1.0
C      1  0.4965470000000  0.5996440000000  0.4119680000000 1.0
C      1  0.4480850000000  0.4271040000000  0.4989270000000 1.0
C      1  0.5346080000000  0.5432290000000  0.5634030000000 1.0
C      1  0.6036630000000  0.4474120000000  0.4913680000000 1.0
C      1  0.5740410000000  0.5722830000000  0.5789030000000 1.0
C      1  0.6229720000000  0.4509610000000  0.5526250000000 1.0
C      1  0.5549840000000  0.4683010000000  0.3992080000000 1.0
C      1  0.3989090000000  0.5685150000000  0.4516240000000 1.0
C      1  0.4207050000000  0.4268210000000  0.4895260000000 1.0
C      1  0.3706560000000  0.5228020000000  0.4527360000000 1.0
C      1  0.4997430000000  0.4682240000000  0.4594730000000 1.0
C      1  0.5869510000000  0.4276800000000  0.5048440000000 1.0
C      1  0.5266850000000  0.5643130000000  0.4532200000000 1.0
C      1  0.5057590000000  0.5156060000000  0.5326980000000 1.0
C      1  0.4960550000000  0.3896490000000  0.5142960000000 1.0
C      1  0.4545110000000  0.5221740000000  0.4094430000000 1.0
C      1  0.4492910000000  0.5290630000000  0.6120250000000 1.0
C      1  0.4947270000000  0.4122400000000  0.4962570000000 1.0
C      1  0.6094800000000  0.4448360000000  0.5748860000000 1.0
C      1  0.5698600000000  0.5413860000000  0.4763230000000 1.0
C      1  0.3913260000000  0.4826270000000  0.4113280000000 1.0
C      1  0.5742610000000  0.4112250000000  0.4599740000000 1.0
C      1  0.5667450000000  0.5322440000000  0.6276470000000 1.0
C      1  0.4051770000000  0.5241310000000  0.3861240000000 1.0
C      1  0.5411540000000  0.3975780000000  0.5444420000000 1.0
C      1  0.4740680000000  0.5227350000000  0.6220740000000 1.0
C      1  0.4837430000000  0.5904930000000  0.5102560000000 1.0
C      1  0.5440130000000  0.6031930000000  0.4931840000000 1.0
C      1  0.4117380000000  0.4882730000000  0.4660350000000 1.0
C      1  0.6275570000000  0.4968000000000  0.5430680000000 1.0
C      1  0.3931900000000  0.4661620000000  0.4690100000000 1.0
C      1  0.4416110000000  0.5626090000000  0.3800300000000 1.0
C      1  0.4705230000000  0.4718280000000  0.4255690000000 1.0
C      1  0.5728860000000  0.5146030000000  0.4893820000000 1.0
C      1  0.4961230000000  0.4689210000000  0.5050760000000 1.0
C      1  0.4258830000000  0.5854650000000  0.4169990000000 1.0
C      1  0.5214380000000  0.6010510000000  0.4223760000000 1.0
C      1  0.4977290000000  0.5605890000000  0.4545040000000 1.0
C      1  0.5404760000000  0.5393190000000  0.4645790000000 1.0
C      1  0.5646480000000  0.4333340000000  0.4453760000000 1.0
C      1  0.4606880000000  0.4592330000000  0.5390310000000 1.0
C      1  0.4529290000000  0.4893520000000  0.4869720000000 1.0
C      1  0.5091390000000  0.5931550000000  0.5231260000000 1.0
C      1  0.4509150000000  0.3612600000000  0.5210720000000 1.0
C      1  0.5537650000000  0.5900040000000  0.5750360000000 1.0
C      1  0.5337530000000  0.4726200000000  0.5473330000000 1.0
C      1  0.5437130000000  0.4896520000000  0.4595680000000 1.0
C      1  0.5298830000000  0.4757830000000  0.6313460000000 1.0
C      1  0.5315540000000  0.5164720000000  0.5744830000000 1.0
C      1  0.5177640000000  0.5299240000000  0.4843140000000 1.0
C      1  0.5374710000000  0.4346010000000  0.5995690000000 1.0
C      1  0.3969770000000  0.4464630000000  0.4489850000000 1.0
C      1  0.5053690000000  0.4085620000000  0.5775570000000 1.0
C      1  0.5235500000000  0.5033830000000  0.6362850000000 1.0
C      1  0.3868240000000  0.5290640000000  0.4754670000000 1.0
C      1  0.5923360000000  0.5389850000000  0.4553940000000 1.0
C      1  0.5699130000000  0.4121810000000  0.4876920000000 1.0
C      1  0.5349730000000  0.5574670000000  0.3819660000000 1.0
C      1  0.5473480000000  0.4919170000000  0.3846520000000 1.0
C      1  0.4351570000000  0.5838090000000  0.4944530000000 1.0
C      1  0.5401210000000  0.4644910000000  0.5204250000000 1.0
C      1  0.5448720000000  0.5450740000000  0.4041860000000 1.0
C      1  0.5100160000000  0.4551750000000  0.5538840000000 1.0
C      1  0.5098220000000  0.4418730000000  0.4111850000000 1.0
C      1  0.4917430000000  0.5249350000000  0.5547290000000 1.0
C      1  0.5516820000000  0.5626830000000  0.5182880000000 1.0
C      1  0.4278940000000  0.5316080000000  0.5949460000000 1.0
C      1  0.3884610000000  0.3617910000000  0.4948560000000 1.0
C      1  0.5390290000000  0.5150000000000  0.4445930000000 1.0
C      1  0.5982150000000  0.5737700000000  0.5045810000000 1.0
C      1  0.3908060000000  0.5109870000000  0.4073930000000 1.0
C      1  0.4804560000000  0.5593870000000  0.4312560000000 1.0
C      1  0.4242160000000  0.3558850000000  0.5272440000000 1.0
C      1  0.6141050000000  0.5366150000000  0.6208470000000 1.0
C      1  0.4531510000000  0.4357010000000  0.5256150000000 1.0
C      1  0.5081990000000  0.4269530000000  0.5578510000000 1.0
C      1  0.4842630000000  0.4564870000000  0.4051330000000 1.0
C      1  0.4047960000000  0.3677000000000  0.5762000000000 1.0
C      1  0.4208610000000  0.5864450000000  0.4452880000000 1.0
C      1  0.6214270000000  0.4670290000000  0.5050300000000 1.0
C      1  0.5013970000000  0.5140220000000  0.6202250000000 1.0
C      1  0.4500180000000  0.5810910000000  0.4013540000000 1.0
C      1  0.4725140000000  0.4263070000000  0.4834720000000 1.0
C      1  0.5464680000000  0.4977950000000  0.5573290000000 1.0
C      1  0.5847690000000  0.5460700000000  0.5835290000000 1.0
C      1  0.4904700000000  0.5536880000000  0.5616220000000 1.0
C      1  0.6334250000000  0.5354430000000  0.5033540000000 1.0
C      1  0.6215010000000  0.4773910000000  0.4587590000000 1.0
C      1  0.4389930000000  0.4803020000000  0.4642450000000 1.0
C      1  0.6206830000000  0.5579030000000  0.5101270000000 1.0
C      1  0.6029830000000  0.4557750000000  0.4619590000000 1.0
C      1  0.5341630000000  0.5852340000000  0.5118890000000 1.0
C      1  0.4768640000000  0.4480780000000  0.4646950000000 1.0
C      1  0.4694560000000  0.5391490000000  0.4936100000000 1.0
C      1  0.4952930000000  0.4628610000000  0.6017270000000 1.0
C      1  0.4084210000000  0.3184880000000  0.5009480000000 1.0
C      1  0.4045930000000  0.5678400000000  0.4055260000000 1.0
C      1  0.5124510000000  0.5134050000000  0.5941050000000 1.0
C      1  0.5894700000000  0.5263460000000  0.5625120000000 1.0
C      1  0.4068570000000  0.5514240000000  0.5252970000000 1.0
C      1  0.5280170000000  0.4659750000000  0.4574430000000 1.0
C      1  0.4548320000000  0.5279750000000  0.5155950000000 1.0
C      1  0.4542810000000  0.4609770000000  0.4481930000000 1.0
C      1  0.4038740000000  0.5298350000000  0.5444870000000 1.0
C      1  0.4477700000000  0.6147040000000  0.5305920000000 1.0
C      1  0.4439900000000  0.4816470000000  0.5338580000000 1.0
C      1  0.5252660000000  0.5063620000000  0.3944770000000 1.0
C      1  0.4091000000000  0.4636310000000  0.5641010000000 1.0
C      1  0.5262200000000  0.5893450000000  0.5676830000000 1.0
C      1  0.3979650000000  0.5553250000000  0.4769580000000 1.0
C      1  0.5834530000000  0.5315720000000  0.4281690000000 1.0
C      1  0.5596060000000  0.4180960000000  0.5530110000000 1.0
C      1  0.4011660000000  0.5022640000000  0.5347240000000 1.0
C      1  0.4883140000000  0.4891430000000  0.4421340000000 1.0
C      1  0.5022260000000  0.5105570000000  0.3806300000000 1.0
C      1  0.3949180000000  0.4292000000000  0.5331530000000 1.0
C      1  0.5314390000000  0.4504430000000  0.3926170000000 1.0
C      1  0.4306260000000  0.6353150000000  0.5259720000000 1.0
C      1  0.3984430000000  0.4397790000000  0.5576190000000 1.0
C      1  0.4748310000000  0.3718370000000  0.5168840000000 1.0
C      1  0.4133840000000  0.5643690000000  0.5002580000000 1.0
C      1  0.4120310000000  0.4252990000000  0.4617410000000 1.0
C      1  0.5328680000000  0.5220750000000  0.4168070000000 1.0
C      1  0.5376510000000  0.4406480000000  0.4484220000000 1.0
C      1  0.4754340000000  0.5810070000000  0.4136910000000 1.0
C      1  0.4827900000000  0.4632890000000  0.5563380000000 1.0
C      1  0.6256550000000  0.4706760000000  0.5328160000000 1.0
C      1  0.5791240000000  0.4258140000000  0.5326310000000 1.0
C      1  0.4069670000000  0.3450280000000  0.5074380000000 1.0
C      1  0.3899820000000  0.4639020000000  0.4982450000000 1.0
C      1  0.5832220000000  0.4539770000000  0.4406850000000 1.0
C      1  0.3697890000000  0.3766350000000  0.4843560000000 1.0
C      1  0.5864350000000  0.5969170000000  0.4306070000000 1.0
C      1  0.5598240000000  0.4318140000000  0.5798740000000 1.0
C      1  0.5146860000000  0.4565480000000  0.3688900000000 1.0
C      1  0.5687260000000  0.5529210000000  0.4164540000000 1.0
C      1  0.4630300000000  0.5619330000000  0.5559840000000 1.0
C      1  0.4620450000000  0.4967850000000  0.5797510000000 1.0
C      1  0.5902910000000  0.5014780000000  0.4245270000000 1.0
C      1  0.6304530000000  0.4866580000000  0.4855890000000 1.0
C      1  0.5513290000000  0.5430300000000  0.5397020000000 1.0
C      1  0.4143170000000  0.3613720000000  0.5527810000000 1.0
C      1  0.4155010000000  0.5505370000000  0.3848360000000 1.0
C      1  0.5210520000000  0.4110290000000  0.5995670000000 1.0
C      1  0.5669710000000  0.5180160000000  0.5459360000000 1.0
C      1  0.4525830000000  0.5854140000000  0.5678080000000 1.0
C      1  0.4516860000000  0.5374050000000  0.5431300000000 1.0
C      1  0.6003830000000  0.6010090000000  0.5040160000000 1.0
C      1  0.4873450000000  0.6183410000000  0.5586900000000 1.0
END
