TITL C-612602-9376-75 -2083.32282621947 125000 -1151.09114178132 0 0 189 (C1) n - 1
REM
REM in /home/nfs/bkarasulu/CARBON/AIRSS/Generating-Clusters/TERSOFF/Only-C1/FIRE-HFTN
REM
REM
REM
REM
REM
REM ./C.cell (11c1c37f851c82e70ff6c80c92926a4b)
REM AIRSS Version 0.9.1 bugfix July 2018 build 013d7b7c2542+ Fri, 06 Jul 2018 19:26:36 +0100
REM compiler GCC version 9.2.1 20190827 (Red Hat 9.2.1-1)
REM options -cpp -mtune=generic -march=x86-64 -g -O0 -fpre-include=/usr/include/finclude/math-vector-fortran.h
REM seed -1092153265 -197335780 -1700921453 -1429256173 109075445 -570554541 470270913 -1019788742 1039168556 263898086 -11298140 2026938628 -1847058778 -1300409448 1455966877 -1913879366 -908694064 -531709660 668148327 1058385234 -1716975434 258260934 -821377248 -555155941 -505179512 119376783 1405800279 -1814327845 825431763 296065058 -19215148 -776417903 1100562049
REM
CELL 1.54180   50.00000   50.00000   50.00000   90.00000   90.00000   90.00000
LATT -1
SFAC C  
C      1  0.4477790000000  0.5694210000000  0.4661990000000 1.0
C      1  0.4712670000000  0.4762200000000  0.4564740000000 1.0
C      1  0.5778500000000  0.5674350000000  0.4171530000000 1.0
C      1  0.6246050000000  0.5048760000000  0.5201870000000 1.0
C      1  0.4681990000000  0.4176540000000  0.5757490000000 1.0
C      1  0.4103450000000  0.4400610000000  0.4622310000000 1.0
C      1  0.4545680000000  0.5769520000000  0.5149460000000 1.0
C      1  0.5465010000000  0.5996380000000  0.4794750000000 1.0
C      1  0.3757510000000  0.3991040000000  0.5179500000000 1.0
C      1  0.4310960000000  0.4732920000000  0.6103650000000 1.0
C      1  0.5186800000000  0.4266570000000  0.4132370000000 1.0
C      1  0.5461960000000  0.4731010000000  0.4132070000000 1.0
C      1  0.5452330000000  0.4068200000000  0.5629080000000 1.0
C      1  0.4817760000000  0.5698070000000  0.5165890000000 1.0
C      1  0.4489240000000  0.5452920000000  0.4820080000000 1.0
C      1  0.5206410000000  0.4573710000000  0.4205140000000 1.0
C      1  0.4290610000000  0.5143600000000  0.5462420000000 1.0
C      1  0.5213220000000  0.4348820000000  0.5923840000000 1.0
C      1  0.4319400000000  0.5241850000000  0.5196530000000 1.0
C      1  0.6280400000000  0.5223690000000  0.4967310000000 1.0
C      1  0.5008190000000  0.4544250000000  0.5959820000000 1.0
C      1  0.5398620000000  0.4537380000000  0.4726120000000 1.0
C      1  0.3919640000000  0.5100890000000  0.4879280000000 1.0
C      1  0.4972890000000  0.3884510000000  0.4807760000000 1.0
C      1  0.5629950000000  0.5029140000000  0.5603870000000 1.0
C      1  0.4950800000000  0.5281000000000  0.5507230000000 1.0
C      1  0.5504290000000  0.4255240000000  0.4746690000000 1.0
C      1  0.5980680000000  0.5872860000000  0.5361470000000 1.0
C      1  0.6116770000000  0.4510680000000  0.4668820000000 1.0
C      1  0.3890510000000  0.5366930000000  0.4724660000000 1.0
C      1  0.4468820000000  0.6130930000000  0.4343170000000 1.0
C      1  0.4780380000000  0.6091570000000  0.5496550000000 1.0
C      1  0.4018700000000  0.5074050000000  0.5544890000000 1.0
C      1  0.4452490000000  0.5253720000000  0.3946530000000 1.0
C      1  0.4413760000000  0.4644350000000  0.5015270000000 1.0
C      1  0.4881470000000  0.5549540000000  0.4402060000000 1.0
C      1  0.4450100000000  0.4724110000000  0.5500330000000 1.0
C      1  0.4899910000000  0.4963380000000  0.3336110000000 1.0
C      1  0.4432600000000  0.5724680000000  0.5683550000000 1.0
C      1  0.5037500000000  0.4715400000000  0.5721350000000 1.0
C      1  0.6229830000000  0.4641360000000  0.4881730000000 1.0
C      1  0.4440300000000  0.4313980000000  0.5830020000000 1.0
C      1  0.5298870000000  0.4990780000000  0.5263500000000 1.0
C      1  0.4382770000000  0.4889480000000  0.4877790000000 1.0
C      1  0.5909460000000  0.4341200000000  0.4557880000000 1.0
C      1  0.4387690000000  0.4017610000000  0.5283330000000 1.0
C      1  0.5178250000000  0.4525170000000  0.4506910000000 1.0
C      1  0.5634030000000  0.5595050000000  0.4938750000000 1.0
C      1  0.4966420000000  0.4715630000000  0.4100800000000 1.0
C      1  0.5376870000000  0.3987010000000  0.5370740000000 1.0
C      1  0.4022940000000  0.4554930000000  0.5704420000000 1.0
C      1  0.4833070000000  0.6027890000000  0.4645070000000 1.0
C      1  0.4511440000000  0.4997120000000  0.5550520000000 1.0
C      1  0.4914930000000  0.4549640000000  0.5504720000000 1.0
C      1  0.4865180000000  0.4658570000000  0.5251520000000 1.0
C      1  0.4865740000000  0.4079920000000  0.5315050000000 1.0
C      1  0.5086050000000  0.4073610000000  0.4636320000000 1.0
C      1  0.6426400000000  0.4611690000000  0.5325530000000 1.0
C      1  0.4583330000000  0.6176790000000  0.4602830000000 1.0
C      1  0.4404470000000  0.5925130000000  0.4174930000000 1.0
C      1  0.4815920000000  0.4934340000000  0.5215550000000 1.0
C      1  0.4369320000000  0.4431320000000  0.4215450000000 1.0
C      1  0.4848620000000  0.4029610000000  0.5937680000000 1.0
C      1  0.6420290000000  0.5132040000000  0.4733180000000 1.0
C      1  0.4756780000000  0.5084800000000  0.5444800000000 1.0
C      1  0.5363700000000  0.5496480000000  0.4244120000000 1.0
C      1  0.4307280000000  0.5654260000000  0.4188050000000 1.0
C      1  0.5894950000000  0.4026510000000  0.4942580000000 1.0
C      1  0.4727050000000  0.4925230000000  0.6101980000000 1.0
C      1  0.4438220000000  0.4996060000000  0.6101250000000 1.0
C      1  0.3860870000000  0.5269350000000  0.5394150000000 1.0
C      1  0.5146820000000  0.4966740000000  0.5846570000000 1.0
C      1  0.3895350000000  0.4827840000000  0.4708310000000 1.0
C      1  0.4937320000000  0.4782900000000  0.3832630000000 1.0
C      1  0.5227600000000  0.4618130000000  0.4963140000000 1.0
C      1  0.5129470000000  0.5408750000000  0.4370380000000 1.0
C      1  0.6123830000000  0.5154800000000  0.5464980000000 1.0
C      1  0.5938380000000  0.5003650000000  0.5656160000000 1.0
C      1  0.4918430000000  0.5256730000000  0.4815510000000 1.0
C      1  0.5018190000000  0.6085720000000  0.4853160000000 1.0
C      1  0.4962070000000  0.4532820000000  0.5019430000000 1.0
C      1  0.3762300000000  0.5162490000000  0.5142180000000 1.0
C      1  0.4821270000000  0.4272760000000  0.5525100000000 1.0
C      1  0.4578630000000  0.4219040000000  0.4275520000000 1.0
C      1  0.6002590000000  0.5028570000000  0.5934840000000 1.0
C      1  0.3921960000000  0.4538840000000  0.4808850000000 1.0
C      1  0.4787810000000  0.4481190000000  0.4778710000000 1.0
C      1  0.5434640000000  0.5441770000000  0.4798480000000 1.0
C      1  0.5046800000000  0.5961320000000  0.5493980000000 1.0
C      1  0.4630850000000  0.5534740000000  0.5761930000000 1.0
C      1  0.5105940000000  0.5501070000000  0.6348290000000 1.0
C      1  0.4487340000000  0.4515330000000  0.6031950000000 1.0
C      1  0.5360920000000  0.4084270000000  0.4562140000000 1.0
C      1  0.4023830000000  0.4640540000000  0.5257190000000 1.0
C      1  0.4775980000000  0.4766910000000  0.4297400000000 1.0
C      1  0.4893970000000  0.5501530000000  0.5673850000000 1.0
C      1  0.5609920000000  0.5249450000000  0.4662290000000 1.0
C      1  0.4168700000000  0.4165160000000  0.5398830000000 1.0
C      1  0.4344020000000  0.4276630000000  0.4701520000000 1.0
C      1  0.4705700000000  0.3862800000000  0.4901200000000 1.0
C      1  0.3911220000000  0.5414070000000  0.4439120000000 1.0
C      1  0.4759540000000  0.4626340000000  0.6078860000000 1.0
C      1  0.3965400000000  0.4822340000000  0.5672240000000 1.0
C      1  0.4756010000000  0.5763480000000  0.4560750000000 1.0
C      1  0.5783580000000  0.5210300000000  0.5160870000000 1.0
C      1  0.5518530000000  0.5291200000000  0.4088440000000 1.0
C      1  0.3995710000000  0.5541940000000  0.5401230000000 1.0
C      1  0.5212340000000  0.4922260000000  0.4977160000000 1.0
C      1  0.5710870000000  0.4989430000000  0.4741100000000 1.0
C      1  0.5948950000000  0.5258440000000  0.6070140000000 1.0
C      1  0.6127120000000  0.5462500000000  0.4932690000000 1.0
C      1  0.4559400000000  0.5978530000000  0.5650960000000 1.0
C      1  0.4378190000000  0.5520870000000  0.5100640000000 1.0
C      1  0.4095210000000  0.5625010000000  0.4375040000000 1.0
C      1  0.4974420000000  0.4337550000000  0.4603980000000 1.0
C      1  0.6112920000000  0.5448490000000  0.5520410000000 1.0
C      1  0.5777380000000  0.4197950000000  0.4768490000000 1.0
C      1  0.5335180000000  0.3917600000000  0.5845920000000 1.0
C      1  0.4209340000000  0.5078530000000  0.4986770000000 1.0
C      1  0.5041260000000  0.5625910000000  0.5044930000000 1.0
C      1  0.3908550000000  0.4451130000000  0.5083250000000 1.0
C      1  0.5127710000000  0.4069460000000  0.5973320000000 1.0
C      1  0.5480680000000  0.5730180000000  0.5400000000000 1.0
C      1  0.5948140000000  0.4776080000000  0.4196410000000 1.0
C      1  0.4880350000000  0.5063920000000  0.3091710000000 1.0
C      1  0.6298630000000  0.4766190000000  0.5136500000000 1.0
C      1  0.5881420000000  0.5565770000000  0.5683870000000 1.0
C      1  0.5034720000000  0.5296220000000  0.6203820000000 1.0
C      1  0.6275730000000  0.5057250000000  0.4501630000000 1.0
C      1  0.4657180000000  0.5359500000000  0.4377030000000 1.0
C      1  0.4643620000000  0.3971090000000  0.5165620000000 1.0
C      1  0.5274800000000  0.4974950000000  0.4674130000000 1.0
C      1  0.5511140000000  0.5903120000000  0.4543100000000 1.0
C      1  0.4507590000000  0.6056520000000  0.5093910000000 1.0
C      1  0.5790500000000  0.4961700000000  0.5014050000000 1.0
C      1  0.4183850000000  0.5730340000000  0.4635220000000 1.0
C      1  0.5535980000000  0.5726350000000  0.4323540000000 1.0
C      1  0.3936440000000  0.4194650000000  0.5216890000000 1.0
C      1  0.4843050000000  0.5267090000000  0.2608230000000 1.0
C      1  0.4514600000000  0.4428700000000  0.4866800000000 1.0
C      1  0.4002020000000  0.5618970000000  0.4851650000000 1.0
C      1  0.4673540000000  0.6215210000000  0.5265580000000 1.0
C      1  0.5431530000000  0.4164210000000  0.4288180000000 1.0
C      1  0.5747710000000  0.5776410000000  0.5510360000000 1.0
C      1  0.4473080000000  0.5417380000000  0.4164700000000 1.0
C      1  0.4286710000000  0.5226930000000  0.6034220000000 1.0
C      1  0.4531920000000  0.3854250000000  0.4675050000000 1.0
C      1  0.4435000000000  0.6180510000000  0.4847150000000 1.0
C      1  0.4476380000000  0.4088400000000  0.4526520000000 1.0
C      1  0.4305100000000  0.4645060000000  0.5272520000000 1.0
C      1  0.5462360000000  0.5013360000000  0.4068380000000 1.0
C      1  0.4166460000000  0.5597120000000  0.5654860000000 1.0
C      1  0.5727270000000  0.4354380000000  0.4315020000000 1.0
C      1  0.4088200000000  0.5627790000000  0.5129340000000 1.0
C      1  0.6190320000000  0.5687700000000  0.5371320000000 1.0
C      1  0.5462610000000  0.4828870000000  0.5441860000000 1.0
C      1  0.5718600000000  0.4610280000000  0.4186230000000 1.0
C      1  0.4919480000000  0.4866750000000  0.3582070000000 1.0
C      1  0.5731380000000  0.4505320000000  0.5301750000000 1.0
C      1  0.5768510000000  0.5430520000000  0.4039800000000 1.0
C      1  0.6227450000000  0.5680620000000  0.4802350000000 1.0
C      1  0.5641020000000  0.5258910000000  0.5401710000000 1.0
C      1  0.5417610000000  0.5442240000000  0.5397950000000 1.0
C      1  0.5424540000000  0.5060410000000  0.5831670000000 1.0
C      1  0.5522360000000  0.4550030000000  0.5494490000000 1.0
C      1  0.5517640000000  0.4804400000000  0.4650620000000 1.0
C      1  0.5809770000000  0.4701860000000  0.5129740000000 1.0
C      1  0.5263300000000  0.6027930000000  0.5001900000000 1.0
C      1  0.4965910000000  0.5074910000000  0.6049100000000 1.0
C      1  0.4198430000000  0.4323390000000  0.5656030000000 1.0
C      1  0.5157620000000  0.5146790000000  0.4487530000000 1.0
C      1  0.5050230000000  0.5736480000000  0.5674840000000 1.0
C      1  0.4562940000000  0.4962510000000  0.4678720000000 1.0
C      1  0.5420050000000  0.4358930000000  0.5691110000000 1.0
C      1  0.4008080000000  0.4801180000000  0.4429030000000 1.0
C      1  0.4941100000000  0.5038410000000  0.4990700000000 1.0
C      1  0.5201430000000  0.5253640000000  0.5374830000000 1.0
C      1  0.4150780000000  0.5410750000000  0.5884650000000 1.0
C      1  0.4868150000000  0.4194500000000  0.4160240000000 1.0
C      1  0.5143270000000  0.5445480000000  0.4855940000000 1.0
C      1  0.4861390000000  0.5166080000000  0.2847860000000 1.0
C      1  0.5868340000000  0.5490350000000  0.5955160000000 1.0
C      1  0.6694040000000  0.5122120000000  0.4733650000000 1.0
C      1  0.4148340000000  0.4549190000000  0.4370080000000 1.0
C      1  0.5276930000000  0.5938330000000  0.5297440000000 1.0
C      1  0.5860940000000  0.5449220000000  0.5023370000000 1.0
C      1  0.6128290000000  0.4935100000000  0.4314730000000 1.0
C      1  0.4648080000000  0.5245720000000  0.4667080000000 1.0
C      1  0.5129080000000  0.3993570000000  0.5268930000000 1.0
END
