TITL C-612606-7351-1165 -0.00169586083793603 125000 -1152.58664011437 0 0 186 (C1) n - 1
REM
REM in /home/nfs/bkarasulu/CARBON/AIRSS/Generating-Clusters/TERSOFF/Only-C1/FIRE-HFTN
REM
REM
REM
REM
REM
REM ./C.cell (11c1c37f851c82e70ff6c80c92926a4b)
REM AIRSS Version 0.9.1 bugfix July 2018 build 013d7b7c2542+ Fri, 06 Jul 2018 19:26:36 +0100
REM compiler GCC version 9.2.1 20190827 (Red Hat 9.2.1-1)
REM options -cpp -mtune=generic -march=x86-64 -g -O0 -fpre-include=/usr/include/finclude/math-vector-fortran.h
REM seed -2016394266 -435612371 -308243631 -446012757 -992495264 -1052417306 123745656 -890957311 332371001 1089949253 -240367786 -1519531589 815242136 -1114847075 -354947987 -616223266 643020209 -436536690 1651697929 -1042013592 738395909 -1105177541 1576476530 -2118572182 692570541 1303574637 -1160675544 746563809 -1507786789 -410673352 -862269935 -763567774 92966215
REM
CELL 1.54180   50.00000   50.00000   50.00000   90.00000   90.00000   90.00000
LATT -1
SFAC C  
C      1  0.6345660000000  0.5028400000000  0.5488220000000 1.0
C      1  0.4289640000000  0.4247940000000  0.4756420000000 1.0
C      1  0.5150570000000  0.5231060000000  0.5504880000000 1.0
C      1  0.5737640000000  0.4047630000000  0.4845400000000 1.0
C      1  0.4927480000000  0.6310720000000  0.5184650000000 1.0
C      1  0.5274600000000  0.4835830000000  0.4613020000000 1.0
C      1  0.4603450000000  0.5479100000000  0.4600150000000 1.0
C      1  0.5812520000000  0.5864860000000  0.4861090000000 1.0
C      1  0.5829400000000  0.5545910000000  0.5813290000000 1.0
C      1  0.4331020000000  0.4622690000000  0.5180800000000 1.0
C      1  0.4144360000000  0.5182010000000  0.4864060000000 1.0
C      1  0.6287250000000  0.5680760000000  0.5019840000000 1.0
C      1  0.4326590000000  0.4008460000000  0.5346840000000 1.0
C      1  0.4732320000000  0.4488740000000  0.5331340000000 1.0
C      1  0.4321630000000  0.5369930000000  0.4206490000000 1.0
C      1  0.5222810000000  0.4770600000000  0.5601730000000 1.0
C      1  0.5365720000000  0.4752790000000  0.4366990000000 1.0
C      1  0.3846730000000  0.4051390000000  0.4754720000000 1.0
C      1  0.3858220000000  0.5238240000000  0.4294210000000 1.0
C      1  0.6173190000000  0.4605720000000  0.4752350000000 1.0
C      1  0.4249280000000  0.5119370000000  0.6016570000000 1.0
C      1  0.3580440000000  0.5310180000000  0.4342020000000 1.0
C      1  0.5006590000000  0.4399940000000  0.5866880000000 1.0
C      1  0.5574020000000  0.5003140000000  0.5968360000000 1.0
C      1  0.5054420000000  0.5955520000000  0.4591760000000 1.0
C      1  0.4731820000000  0.4077910000000  0.5614530000000 1.0
C      1  0.6384380000000  0.5487690000000  0.5188860000000 1.0
C      1  0.5656580000000  0.4807080000000  0.5253690000000 1.0
C      1  0.5091120000000  0.5652860000000  0.5354800000000 1.0
C      1  0.4215030000000  0.5972290000000  0.5174140000000 1.0
C      1  0.4520800000000  0.4275790000000  0.5688900000000 1.0
C      1  0.3792880000000  0.4529380000000  0.5244950000000 1.0
C      1  0.4998980000000  0.4426780000000  0.5271180000000 1.0
C      1  0.5718710000000  0.4408180000000  0.4162390000000 1.0
C      1  0.4378410000000  0.5131560000000  0.4057450000000 1.0
C      1  0.4977790000000  0.3890480000000  0.4908870000000 1.0
C      1  0.4990330000000  0.4393540000000  0.6148560000000 1.0
C      1  0.4830190000000  0.4862250000000  0.5844640000000 1.0
C      1  0.6036330000000  0.5179500000000  0.5194640000000 1.0
C      1  0.5342020000000  0.5613910000000  0.5756270000000 1.0
C      1  0.5619540000000  0.5050480000000  0.5448000000000 1.0
C      1  0.4177430000000  0.6237700000000  0.5226920000000 1.0
C      1  0.5102860000000  0.5569480000000  0.5917820000000 1.0
C      1  0.5770340000000  0.4332670000000  0.4801890000000 1.0
C      1  0.3568750000000  0.4844530000000  0.4281830000000 1.0
C      1  0.5494330000000  0.4276710000000  0.4290510000000 1.0
C      1  0.5151730000000  0.5088270000000  0.4131480000000 1.0
C      1  0.4085220000000  0.4101900000000  0.4893060000000 1.0
C      1  0.4835600000000  0.4333100000000  0.4282000000000 1.0
C      1  0.5689530000000  0.5368890000000  0.4632300000000 1.0
C      1  0.6097470000000  0.5814320000000  0.4874280000000 1.0
C      1  0.4832560000000  0.6036200000000  0.5111660000000 1.0
C      1  0.6312700000000  0.4524610000000  0.4990530000000 1.0
C      1  0.5616600000000  0.4594350000000  0.3947350000000 1.0
C      1  0.5615100000000  0.4341160000000  0.5444630000000 1.0
C      1  0.4818090000000  0.4955970000000  0.5058220000000 1.0
C      1  0.5443290000000  0.3948760000000  0.5197520000000 1.0
C      1  0.4410980000000  0.5820260000000  0.5314990000000 1.0
C      1  0.3816640000000  0.4802100000000  0.5249440000000 1.0
C      1  0.4928110000000  0.5858330000000  0.4352970000000 1.0
C      1  0.4656850000000  0.5487230000000  0.5944550000000 1.0
C      1  0.5277920000000  0.5790710000000  0.4939530000000 1.0
C      1  0.4057460000000  0.5837260000000  0.4983990000000 1.0
C      1  0.5090210000000  0.5354970000000  0.4957510000000 1.0
C      1  0.4598930000000  0.4530150000000  0.5580450000000 1.0
C      1  0.5568930000000  0.5507770000000  0.5894480000000 1.0
C      1  0.4991840000000  0.4186280000000  0.5673030000000 1.0
C      1  0.5565380000000  0.4780770000000  0.4987840000000 1.0
C      1  0.6202490000000  0.4863270000000  0.4641230000000 1.0
C      1  0.5935860000000  0.4731910000000  0.5611400000000 1.0
C      1  0.5585440000000  0.4617350000000  0.6263160000000 1.0
C      1  0.5410830000000  0.6183500000000  0.5336940000000 1.0
C      1  0.4903210000000  0.4985230000000  0.4229120000000 1.0
C      1  0.4805690000000  0.6469000000000  0.4971140000000 1.0
C      1  0.5081680000000  0.4531760000000  0.5028720000000 1.0
C      1  0.4049160000000  0.4960580000000  0.5299640000000 1.0
C      1  0.6198320000000  0.4778650000000  0.5485490000000 1.0
C      1  0.4259500000000  0.4794860000000  0.5380960000000 1.0
C      1  0.5383930000000  0.4932240000000  0.4155800000000 1.0
C      1  0.4843900000000  0.5014660000000  0.4504790000000 1.0
C      1  0.5971870000000  0.4442630000000  0.4630510000000 1.0
C      1  0.5067610000000  0.4400750000000  0.4433190000000 1.0
C      1  0.4098700000000  0.4101310000000  0.5177270000000 1.0
C      1  0.4188040000000  0.4711770000000  0.4589850000000 1.0
C      1  0.4611310000000  0.5384560000000  0.5096660000000 1.0
C      1  0.4180340000000  0.4934600000000  0.4733950000000 1.0
C      1  0.5401750000000  0.4102770000000  0.4509980000000 1.0
C      1  0.4218160000000  0.4447240000000  0.4571720000000 1.0
C      1  0.5490140000000  0.3938500000000  0.4722530000000 1.0
C      1  0.4624150000000  0.3949500000000  0.5358280000000 1.0
C      1  0.4882910000000  0.5348360000000  0.3708030000000 1.0
C      1  0.4319020000000  0.5575900000000  0.5437310000000 1.0
C      1  0.5399980000000  0.4162910000000  0.5381850000000 1.0
C      1  0.3416280000000  0.5085780000000  0.4337130000000 1.0
C      1  0.5934380000000  0.4439550000000  0.4345770000000 1.0
C      1  0.4748840000000  0.4805420000000  0.4060130000000 1.0
C      1  0.6066530000000  0.5105900000000  0.4654310000000 1.0
C      1  0.5192790000000  0.5365390000000  0.4100100000000 1.0
C      1  0.4995350000000  0.4826870000000  0.4657230000000 1.0
C      1  0.4739120000000  0.5237170000000  0.4655820000000 1.0
C      1  0.4815400000000  0.5232260000000  0.4951040000000 1.0
C      1  0.5763580000000  0.5366570000000  0.4898680000000 1.0
C      1  0.5324290000000  0.5016660000000  0.5506660000000 1.0
C      1  0.4527180000000  0.4299490000000  0.4899360000000 1.0
C      1  0.5027630000000  0.4613710000000  0.6303620000000 1.0
C      1  0.5898610000000  0.5250740000000  0.4462220000000 1.0
C      1  0.6253570000000  0.4618510000000  0.5252210000000 1.0
C      1  0.5917880000000  0.5443640000000  0.5584000000000 1.0
C      1  0.3656550000000  0.4149500000000  0.4595680000000 1.0
C      1  0.5796240000000  0.5293290000000  0.5357560000000 1.0
C      1  0.4729650000000  0.5740680000000  0.4207230000000 1.0
C      1  0.5623150000000  0.5894940000000  0.4624630000000 1.0
C      1  0.4586090000000  0.5135440000000  0.5503570000000 1.0
C      1  0.5989740000000  0.5188540000000  0.4919150000000 1.0
C      1  0.5129170000000  0.5607290000000  0.5080920000000 1.0
C      1  0.4753980000000  0.4085580000000  0.4421570000000 1.0
C      1  0.5083560000000  0.4490090000000  0.3870490000000 1.0
C      1  0.3924710000000  0.4291460000000  0.5330050000000 1.0
C      1  0.4023440000000  0.4287620000000  0.5602880000000 1.0
C      1  0.3979220000000  0.4476610000000  0.5802290000000 1.0
C      1  0.5583200000000  0.5984660000000  0.5284020000000 1.0
C      1  0.5410840000000  0.5374140000000  0.4568720000000 1.0
C      1  0.6517890000000  0.4343700000000  0.4962470000000 1.0
C      1  0.4485100000000  0.5720140000000  0.4624500000000 1.0
C      1  0.4123760000000  0.4677430000000  0.5901960000000 1.0
C      1  0.4845800000000  0.3944490000000  0.4645900000000 1.0
C      1  0.5356010000000  0.4510410000000  0.3828380000000 1.0
C      1  0.4164530000000  0.5184580000000  0.5156990000000 1.0
C      1  0.5191810000000  0.4263660000000  0.4649810000000 1.0
C      1  0.4689190000000  0.5885330000000  0.5317250000000 1.0
C      1  0.4868520000000  0.5193990000000  0.5502740000000 1.0
C      1  0.5704350000000  0.5801440000000  0.4361470000000 1.0
C      1  0.4550340000000  0.4469440000000  0.5118080000000 1.0
C      1  0.4407350000000  0.5975210000000  0.4582940000000 1.0
C      1  0.5012270000000  0.4671580000000  0.5760710000000 1.0
C      1  0.4089730000000  0.5401970000000  0.4685190000000 1.0
C      1  0.5798240000000  0.5109460000000  0.4006630000000 1.0
C      1  0.4845810000000  0.4524320000000  0.4045040000000 1.0
C      1  0.5373590000000  0.5465500000000  0.4292300000000 1.0
C      1  0.5691370000000  0.5783440000000  0.5118970000000 1.0
C      1  0.3511840000000  0.4579280000000  0.4336370000000 1.0
C      1  0.5693500000000  0.5496240000000  0.5146700000000 1.0
C      1  0.4933780000000  0.4746380000000  0.4917520000000 1.0
C      1  0.4275610000000  0.4156940000000  0.5603690000000 1.0
C      1  0.4799870000000  0.3878370000000  0.5140460000000 1.0
C      1  0.3835080000000  0.4952870000000  0.4227520000000 1.0
C      1  0.4141410000000  0.5578390000000  0.5645340000000 1.0
C      1  0.5296530000000  0.4493590000000  0.4297500000000 1.0
C      1  0.5743630000000  0.4940070000000  0.5726910000000 1.0
C      1  0.4846930000000  0.5640120000000  0.5789320000000 1.0
C      1  0.4712670000000  0.5261740000000  0.6095260000000 1.0
C      1  0.4506800000000  0.5588400000000  0.4163160000000 1.0
C      1  0.4095230000000  0.5358640000000  0.4394390000000 1.0
C      1  0.5297840000000  0.5239010000000  0.4801310000000 1.0
C      1  0.5153370000000  0.4854090000000  0.6215430000000 1.0
C      1  0.5331370000000  0.5905330000000  0.4686020000000 1.0
C      1  0.4960350000000  0.5073620000000  0.6065540000000 1.0
C      1  0.5280570000000  0.4409170000000  0.4874460000000 1.0
C      1  0.5258300000000  0.5495510000000  0.5510890000000 1.0
C      1  0.4130970000000  0.5285130000000  0.6179850000000 1.0
C      1  0.5139340000000  0.4245840000000  0.5437990000000 1.0
C      1  0.4013730000000  0.5644860000000  0.4804540000000 1.0
C      1  0.4859240000000  0.5743840000000  0.5503590000000 1.0
C      1  0.4307630000000  0.4888890000000  0.5869400000000 1.0
C      1  0.4722840000000  0.6301580000000  0.4748250000000 1.0
C      1  0.5278270000000  0.3887740000000  0.4947130000000 1.0
C      1  0.4576330000000  0.4988060000000  0.3910730000000 1.0
C      1  0.4484860000000  0.6233190000000  0.4614170000000 1.0
C      1  0.4508670000000  0.4872890000000  0.5647290000000 1.0
C      1  0.4405480000000  0.5316950000000  0.5307320000000 1.0
C      1  0.5829170000000  0.5326010000000  0.4192400000000 1.0
C      1  0.5752680000000  0.4585680000000  0.5424610000000 1.0
C      1  0.5067400000000  0.5465130000000  0.3868100000000 1.0
C      1  0.5721500000000  0.3939110000000  0.5109730000000 1.0
C      1  0.5621130000000  0.4887510000000  0.3999200000000 1.0
C      1  0.5172980000000  0.5301010000000  0.6035060000000 1.0
C      1  0.5440560000000  0.4820390000000  0.6147520000000 1.0
C      1  0.4873640000000  0.6049240000000  0.4807130000000 1.0
C      1  0.5180350000000  0.6318390000000  0.5306670000000 1.0
C      1  0.5464890000000  0.5264410000000  0.6007630000000 1.0
C      1  0.5408830000000  0.4966430000000  0.4828400000000 1.0
C      1  0.5641940000000  0.5560210000000  0.4212720000000 1.0
C      1  0.6294960000000  0.5239250000000  0.5300080000000 1.0
C      1  0.3542910000000  0.4339890000000  0.4448270000000 1.0
C      1  0.5552350000000  0.4504600000000  0.4891880000000 1.0
C      1  0.4706690000000  0.5143560000000  0.3709940000000 1.0
END
