TITL C-612604-1799-530 0.0137380148101703 125000 -580.181637443464 0 0 95 (C1) n - 1
REM
REM in /home/nfs/bkarasulu/CARBON/AIRSS/Generating-Clusters/TERSOFF/Only-C1/FIRE-HFTN
REM
REM
REM
REM
REM
REM ./C.cell (11c1c37f851c82e70ff6c80c92926a4b)
REM AIRSS Version 0.9.1 bugfix July 2018 build 013d7b7c2542+ Fri, 06 Jul 2018 19:26:36 +0100
REM compiler GCC version 9.2.1 20190827 (Red Hat 9.2.1-1)
REM options -cpp -mtune=generic -march=x86-64 -g -O0 -fpre-include=/usr/include/finclude/math-vector-fortran.h
REM seed -1415615533 -748480293 983482974 298293938 1543404600 253476667 -168423934 -1663064757 99094465 384023007 -290369053 825927664 -1783503332 -46187447 -1118824264 586727614 -466649255 -324740168 -334017134 1998302783 180240178 1437220322 -1446337339 812139305 319022658 -860346677 -95489123 -932740767 331476413 1046499040 -66502234 -202387692 631177878
REM
CELL 1.54180   50.00000   50.00000   50.00000   90.00000   90.00000   90.00000
LATT -1
SFAC C  
C      1  0.5686060000000  0.4714290000000  0.4530650000000 1.0
C      1  0.5045550000000  0.4204890000000  0.5140540000000 1.0
C      1  0.5229460000000  0.4952810000000  0.5370950000000 1.0
C      1  0.4913960000000  0.4368190000000  0.4377330000000 1.0
C      1  0.5129800000000  0.4257840000000  0.5414020000000 1.0
C      1  0.5216310000000  0.6096590000000  0.4839660000000 1.0
C      1  0.4997680000000  0.4534720000000  0.4167350000000 1.0
C      1  0.4537230000000  0.4673960000000  0.4877190000000 1.0
C      1  0.5269070000000  0.5524870000000  0.5213640000000 1.0
C      1  0.4777320000000  0.5698800000000  0.4813740000000 1.0
C      1  0.4962570000000  0.4392230000000  0.5616570000000 1.0
C      1  0.5078250000000  0.5348340000000  0.5161070000000 1.0
C      1  0.3971900000000  0.5188690000000  0.4295220000000 1.0
C      1  0.4766220000000  0.4994020000000  0.5173970000000 1.0
C      1  0.5427560000000  0.4305890000000  0.4764210000000 1.0
C      1  0.4382810000000  0.5074020000000  0.5696690000000 1.0
C      1  0.4279840000000  0.5036020000000  0.4643700000000 1.0
C      1  0.5572470000000  0.4491170000000  0.4631210000000 1.0
C      1  0.5718870000000  0.5664470000000  0.4727770000000 1.0
C      1  0.3581080000000  0.4774760000000  0.5168030000000 1.0
C      1  0.5622060000000  0.4693490000000  0.5212080000000 1.0
C      1  0.4938510000000  0.5584050000000  0.5624730000000 1.0
C      1  0.5588500000000  0.5810860000000  0.4916090000000 1.0
C      1  0.4304610000000  0.4859750000000  0.5267280000000 1.0
C      1  0.5691650000000  0.4928120000000  0.5879660000000 1.0
C      1  0.4761550000000  0.5004740000000  0.4602190000000 1.0
C      1  0.5084790000000  0.4744840000000  0.4029360000000 1.0
C      1  0.5160760000000  0.4998000000000  0.3994220000000 1.0
C      1  0.4542450000000  0.4825990000000  0.5119760000000 1.0
C      1  0.5222180000000  0.5144660000000  0.5575670000000 1.0
C      1  0.4855010000000  0.4099910000000  0.4326720000000 1.0
C      1  0.4505630000000  0.5305370000000  0.5752050000000 1.0
C      1  0.5500600000000  0.4317550000000  0.5728670000000 1.0
C      1  0.4691780000000  0.5354880000000  0.4149540000000 1.0
C      1  0.3467090000000  0.5231190000000  0.4155120000000 1.0
C      1  0.5252080000000  0.5348300000000  0.4560200000000 1.0
C      1  0.6033070000000  0.4445320000000  0.5150690000000 1.0
C      1  0.5354630000000  0.5940090000000  0.5031140000000 1.0
C      1  0.3826480000000  0.4857010000000  0.5137630000000 1.0
C      1  0.4892520000000  0.4469970000000  0.4638070000000 1.0
C      1  0.5049720000000  0.5531860000000  0.4454690000000 1.0
C      1  0.5748090000000  0.4965300000000  0.4452170000000 1.0
C      1  0.5625630000000  0.4207750000000  0.5284550000000 1.0
C      1  0.5409340000000  0.5276630000000  0.4318450000000 1.0
C      1  0.5473470000000  0.4782340000000  0.5973860000000 1.0
C      1  0.4965250000000  0.5410110000000  0.4199070000000 1.0
C      1  0.5380710000000  0.4529470000000  0.5860870000000 1.0
C      1  0.4348340000000  0.4836930000000  0.5547760000000 1.0
C      1  0.5001390000000  0.4844430000000  0.5240690000000 1.0
C      1  0.4234580000000  0.5164250000000  0.4387830000000 1.0
C      1  0.6284320000000  0.4448480000000  0.5081590000000 1.0
C      1  0.4776980000000  0.4252120000000  0.5045760000000 1.0
C      1  0.4163580000000  0.5132360000000  0.4896450000000 1.0
C      1  0.5678100000000  0.5237530000000  0.4403920000000 1.0
C      1  0.5777440000000  0.5464370000000  0.4552220000000 1.0
C      1  0.4821040000000  0.5266630000000  0.5088770000000 1.0
C      1  0.5250110000000  0.4194680000000  0.4936300000000 1.0
C      1  0.4699800000000  0.5275350000000  0.4634620000000 1.0
C      1  0.4726290000000  0.5898630000000  0.5001990000000 1.0
C      1  0.5687220000000  0.5242100000000  0.5000550000000 1.0
C      1  0.5761060000000  0.4449820000000  0.5213910000000 1.0
C      1  0.4953740000000  0.5790720000000  0.5412340000000 1.0
C      1  0.5842860000000  0.5271970000000  0.5218890000000 1.0
C      1  0.4272790000000  0.5570840000000  0.5185630000000 1.0
C      1  0.5826760000000  0.5076850000000  0.5703400000000 1.0
C      1  0.5230200000000  0.4893190000000  0.6089270000000 1.0
C      1  0.5208180000000  0.5802190000000  0.5245770000000 1.0
C      1  0.5087260000000  0.4531220000000  0.5833240000000 1.0
C      1  0.4683210000000  0.4430540000000  0.5601110000000 1.0
C      1  0.5198800000000  0.5245770000000  0.4118650000000 1.0
C      1  0.5444510000000  0.4907910000000  0.5184850000000 1.0
C      1  0.5007690000000  0.4751090000000  0.6003500000000 1.0
C      1  0.4192830000000  0.5397910000000  0.4995170000000 1.0
C      1  0.4700690000000  0.5843090000000  0.5276750000000 1.0
C      1  0.4955480000000  0.5754610000000  0.4597620000000 1.0
C      1  0.4472690000000  0.4594980000000  0.5627100000000 1.0
C      1  0.4087680000000  0.4945140000000  0.5104320000000 1.0
C      1  0.5088090000000  0.6002750000000  0.4620220000000 1.0
C      1  0.4514990000000  0.4859360000000  0.4658030000000 1.0
C      1  0.5710060000000  0.3963440000000  0.5195180000000 1.0
C      1  0.5882900000000  0.5203840000000  0.5474860000000 1.0
C      1  0.5243600000000  0.5126560000000  0.4742810000000 1.0
C      1  0.5452230000000  0.5086050000000  0.4951930000000 1.0
C      1  0.4685020000000  0.4428530000000  0.4839070000000 1.0
C      1  0.3717880000000  0.5210370000000  0.4223190000000 1.0
C      1  0.4687810000000  0.5500910000000  0.5729810000000 1.0
C      1  0.5142440000000  0.5387740000000  0.5660610000000 1.0
C      1  0.5414870000000  0.4230760000000  0.5473800000000 1.0
C      1  0.4448010000000  0.5721110000000  0.5326750000000 1.0
C      1  0.4448350000000  0.5265510000000  0.4226290000000 1.0
C      1  0.5034390000000  0.4934260000000  0.4668040000000 1.0
C      1  0.5059530000000  0.4670190000000  0.4759050000000 1.0
C      1  0.4724030000000  0.5423650000000  0.4867190000000 1.0
C      1  0.5075910000000  0.4658430000000  0.5040710000000 1.0
C      1  0.4802140000000  0.3846770000000  0.4294460000000 1.0
END
