TITL C-612605-9286-383 4.18922413900638e-05 125000 -891.892549848773 0 0 144 (C1) n - 1
REM
REM in /home/nfs/bkarasulu/CARBON/AIRSS/Generating-Clusters/TERSOFF/Only-C1/FIRE-HFTN
REM
REM
REM
REM
REM
REM ./C.cell (11c1c37f851c82e70ff6c80c92926a4b)
REM AIRSS Version 0.9.1 bugfix July 2018 build 013d7b7c2542+ Fri, 06 Jul 2018 19:26:36 +0100
REM compiler GCC version 9.2.1 20190827 (Red Hat 9.2.1-1)
REM options -cpp -mtune=generic -march=x86-64 -g -O0 -fpre-include=/usr/include/finclude/math-vector-fortran.h
REM seed 412558389 1168388654 -1012651463 714491330 -1698154074 1004976252 -413758660 -1999074249 -2035305358 1224678020 183062826 -1182269764 1749975145 -1694391894 977546380 -1510531344 144033117 1527229661 329226093 -1001773302 1409865917 -826255025 -992500138 202084936 -1640348364 1060437371 -92715592 1159624949 1005523014 -31147716 -289585300 -178080449 -192359854
REM
CELL 1.54180   50.00000   50.00000   50.00000   90.00000   90.00000   90.00000
LATT -1
SFAC C  
C      1  0.5572290000000  0.4530630000000  0.5890860000000 1.0
C      1  0.5522570000000  0.4804660000000  0.5877390000000 1.0
C      1  0.4081200000000  0.5148430000000  0.5956420000000 1.0
C      1  0.4832020000000  0.4952560000000  0.4964840000000 1.0
C      1  0.4554260000000  0.4201460000000  0.5425240000000 1.0
C      1  0.4738890000000  0.4996970000000  0.4672660000000 1.0
C      1  0.5386180000000  0.4377440000000  0.6050840000000 1.0
C      1  0.5105830000000  0.5742300000000  0.4942960000000 1.0
C      1  0.5867920000000  0.5547170000000  0.4589310000000 1.0
C      1  0.4203850000000  0.5882510000000  0.5336210000000 1.0
C      1  0.5307310000000  0.5283160000000  0.4548800000000 1.0
C      1  0.4660580000000  0.5393340000000  0.4370220000000 1.0
C      1  0.4924070000000  0.4189860000000  0.4179160000000 1.0
C      1  0.5720110000000  0.5111530000000  0.4081500000000 1.0
C      1  0.3994290000000  0.5033030000000  0.4915160000000 1.0
C      1  0.5334630000000  0.4446660000000  0.4155290000000 1.0
C      1  0.4885610000000  0.4783750000000  0.4252000000000 1.0
C      1  0.4749500000000  0.5098740000000  0.6240950000000 1.0
C      1  0.5127050000000  0.4955120000000  0.5615300000000 1.0
C      1  0.4100430000000  0.4779240000000  0.4839420000000 1.0
C      1  0.4355520000000  0.4404610000000  0.4602650000000 1.0
C      1  0.5949200000000  0.5016310000000  0.4235170000000 1.0
C      1  0.4352190000000  0.4434020000000  0.4071380000000 1.0
C      1  0.4550660000000  0.4026520000000  0.5202820000000 1.0
C      1  0.5181090000000  0.4244460000000  0.4284180000000 1.0
C      1  0.4706230000000  0.4513140000000  0.5800540000000 1.0
C      1  0.4592520000000  0.4675990000000  0.5358150000000 1.0
C      1  0.5058870000000  0.5677240000000  0.5423400000000 1.0
C      1  0.4968070000000  0.5614800000000  0.5159840000000 1.0
C      1  0.5077420000000  0.5469640000000  0.6134760000000 1.0
C      1  0.5617560000000  0.4388510000000  0.5639360000000 1.0
C      1  0.5697360000000  0.4296320000000  0.4768720000000 1.0
C      1  0.3940460000000  0.5344280000000  0.5822740000000 1.0
C      1  0.5755900000000  0.4951320000000  0.4997730000000 1.0
C      1  0.4839740000000  0.5343910000000  0.4152500000000 1.0
C      1  0.4336320000000  0.4721850000000  0.5261170000000 1.0
C      1  0.5015830000000  0.3945780000000  0.4979940000000 1.0
C      1  0.4949810000000  0.4928390000000  0.4482460000000 1.0
C      1  0.4125670000000  0.4635890000000  0.4583830000000 1.0
C      1  0.4510570000000  0.5244450000000  0.5411320000000 1.0
C      1  0.5870820000000  0.4689410000000  0.5043440000000 1.0
C      1  0.5893820000000  0.5168030000000  0.4890780000000 1.0
C      1  0.4164440000000  0.4828540000000  0.4385060000000 1.0
C      1  0.4090120000000  0.5749270000000  0.5538390000000 1.0
C      1  0.5791130000000  0.4579950000000  0.4136500000000 1.0
C      1  0.5557070000000  0.5194710000000  0.5608570000000 1.0
C      1  0.5638160000000  0.5593440000000  0.5360830000000 1.0
C      1  0.5872640000000  0.4519950000000  0.4807930000000 1.0
C      1  0.5054860000000  0.4783540000000  0.5400280000000 1.0
C      1  0.5484450000000  0.4162220000000  0.4667790000000 1.0
C      1  0.5149400000000  0.5570330000000  0.5899220000000 1.0
C      1  0.5015040000000  0.5174220000000  0.5024480000000 1.0
C      1  0.4919390000000  0.5119520000000  0.5698830000000 1.0
C      1  0.5325250000000  0.4072200000000  0.5382310000000 1.0
C      1  0.5738180000000  0.5382110000000  0.4780390000000 1.0
C      1  0.4779910000000  0.4489800000000  0.4848710000000 1.0
C      1  0.4360870000000  0.5071490000000  0.4036880000000 1.0
C      1  0.5373500000000  0.4782050000000  0.4602670000000 1.0
C      1  0.5434750000000  0.5391470000000  0.4814790000000 1.0
C      1  0.5825120000000  0.5159900000000  0.5496820000000 1.0
C      1  0.5459550000000  0.5455420000000  0.5549040000000 1.0
C      1  0.5242150000000  0.5070090000000  0.3975820000000 1.0
C      1  0.4998260000000  0.5961770000000  0.4800880000000 1.0
C      1  0.4366350000000  0.5210260000000  0.5973470000000 1.0
C      1  0.5520990000000  0.4647190000000  0.4078940000000 1.0
C      1  0.4121290000000  0.5287030000000  0.4859390000000 1.0
C      1  0.4329470000000  0.4880970000000  0.3847710000000 1.0
C      1  0.6008230000000  0.4194640000000  0.5436360000000 1.0
C      1  0.4547430000000  0.5152200000000  0.4493320000000 1.0
C      1  0.4985780000000  0.4016690000000  0.4699000000000 1.0
C      1  0.4835330000000  0.5382750000000  0.5098610000000 1.0
C      1  0.4380220000000  0.5498010000000  0.5859110000000 1.0
C      1  0.5211180000000  0.5557120000000  0.5626700000000 1.0
C      1  0.4938460000000  0.5285400000000  0.6268190000000 1.0
C      1  0.4660460000000  0.5917170000000  0.5664050000000 1.0
C      1  0.4599060000000  0.4742020000000  0.5943230000000 1.0
C      1  0.3906710000000  0.4705890000000  0.5579020000000 1.0
C      1  0.5252310000000  0.4618130000000  0.5296610000000 1.0
C      1  0.5218140000000  0.5006070000000  0.4537130000000 1.0
C      1  0.6278450000000  0.5119250000000  0.4581850000000 1.0
C      1  0.5200840000000  0.4273600000000  0.5848540000000 1.0
C      1  0.5906240000000  0.4653130000000  0.5327950000000 1.0
C      1  0.5284250000000  0.5981880000000  0.4386210000000 1.0
C      1  0.5226050000000  0.4123480000000  0.4547550000000 1.0
C      1  0.4556090000000  0.5334350000000  0.5151530000000 1.0
C      1  0.5481070000000  0.4961410000000  0.5057550000000 1.0
C      1  0.6168500000000  0.5136740000000  0.4829060000000 1.0
C      1  0.4323570000000  0.4691540000000  0.4987630000000 1.0
C      1  0.4815790000000  0.4802920000000  0.5234050000000 1.0
C      1  0.5872490000000  0.5418480000000  0.5364140000000 1.0
C      1  0.5241890000000  0.3995050000000  0.5140410000000 1.0
C      1  0.5842840000000  0.4411460000000  0.5467570000000 1.0
C      1  0.6127180000000  0.5204460000000  0.4357090000000 1.0
C      1  0.5395380000000  0.4988770000000  0.5709480000000 1.0
C      1  0.5380740000000  0.5667880000000  0.4944350000000 1.0
C      1  0.4376660000000  0.5705920000000  0.4919970000000 1.0
C      1  0.4621520000000  0.5664320000000  0.4450210000000 1.0
C      1  0.4791480000000  0.6038060000000  0.5435750000000 1.0
C      1  0.4512100000000  0.4550070000000  0.4825150000000 1.0
C      1  0.4815460000000  0.5855950000000  0.4376060000000 1.0
C      1  0.5307220000000  0.5183570000000  0.5007500000000 1.0
C      1  0.4371830000000  0.4046490000000  0.4984090000000 1.0
C      1  0.4442740000000  0.5745940000000  0.4650700000000 1.0
C      1  0.4315040000000  0.4613690000000  0.3876410000000 1.0
C      1  0.4402210000000  0.5896760000000  0.5135760000000 1.0
C      1  0.5034290000000  0.5964990000000  0.4517330000000 1.0
C      1  0.5370700000000  0.4701150000000  0.5063030000000 1.0
C      1  0.4112890000000  0.5557100000000  0.5739660000000 1.0
C      1  0.5489250000000  0.4932970000000  0.4023660000000 1.0
C      1  0.5509080000000  0.5780680000000  0.5185450000000 1.0
C      1  0.4556990000000  0.5007160000000  0.6055310000000 1.0
C      1  0.5384930000000  0.4335760000000  0.6318200000000 1.0
C      1  0.5494560000000  0.5566640000000  0.4188320000000 1.0
C      1  0.5285180000000  0.5412730000000  0.4300160000000 1.0
C      1  0.4682630000000  0.5197850000000  0.5608770000000 1.0
C      1  0.4857860000000  0.4709680000000  0.4003350000000 1.0
C      1  0.5039550000000  0.4490890000000  0.4802690000000 1.0
C      1  0.4707170000000  0.4048550000000  0.4589870000000 1.0
C      1  0.4785400000000  0.3887950000000  0.5132700000000 1.0
C      1  0.4434550000000  0.4109240000000  0.4716140000000 1.0
C      1  0.5467530000000  0.5841130000000  0.4245590000000 1.0
C      1  0.4348160000000  0.5030300000000  0.4318310000000 1.0
C      1  0.3744130000000  0.5039640000000  0.5041750000000 1.0
C      1  0.4569740000000  0.5705960000000  0.5809560000000 1.0
C      1  0.4687880000000  0.4175890000000  0.4327100000000 1.0
C      1  0.3508170000000  0.5062980000000  0.5149890000000 1.0
C      1  0.5111100000000  0.5284900000000  0.4111170000000 1.0
C      1  0.5935870000000  0.4902230000000  0.5468270000000 1.0
C      1  0.4115290000000  0.4746870000000  0.5428140000000 1.0
C      1  0.5371510000000  0.4226040000000  0.5610580000000 1.0
C      1  0.6035810000000  0.5472490000000  0.4389670000000 1.0
C      1  0.4648410000000  0.6046110000000  0.5178550000000 1.0
C      1  0.4462560000000  0.4356060000000  0.4315910000000 1.0
C      1  0.3997930000000  0.5427560000000  0.4653750000000 1.0
C      1  0.5287570000000  0.4613690000000  0.4811770000000 1.0
C      1  0.5078480000000  0.5971750000000  0.5418660000000 1.0
C      1  0.5946840000000  0.4737970000000  0.4311770000000 1.0
C      1  0.5679660000000  0.5396280000000  0.4055330000000 1.0
C      1  0.4613130000000  0.4456010000000  0.5536000000000 1.0
C      1  0.4933700000000  0.4359840000000  0.5872180000000 1.0
C      1  0.4342210000000  0.5425950000000  0.4988890000000 1.0
C      1  0.5349900000000  0.6004020000000  0.5309270000000 1.0
C      1  0.4804700000000  0.6109190000000  0.4947370000000 1.0
C      1  0.5987200000000  0.4631730000000  0.4570870000000 1.0
END
