TITL C-612607-4507-774 0.000470040000242977 125000 -936.208326126483 0 0 153 (C1) n - 1
REM
REM in /home/nfs/bkarasulu/CARBON/AIRSS/Generating-Clusters/TERSOFF/Only-C1/FIRE-HFTN
REM
REM
REM
REM
REM
REM ./C.cell (11c1c37f851c82e70ff6c80c92926a4b)
REM AIRSS Version 0.9.1 bugfix July 2018 build 013d7b7c2542+ Fri, 06 Jul 2018 19:26:36 +0100
REM compiler GCC version 9.2.1 20190827 (Red Hat 9.2.1-1)
REM options -cpp -mtune=generic -march=x86-64 -g -O0 -fpre-include=/usr/include/finclude/math-vector-fortran.h
REM seed 1445945461 -399268726 -2113420213 1116853664 1554390702 -676529069 -166754019 -1079580885 -2071343222 -509911564 -997383277 1169144198 893901480 -1219142265 1398728501 1717136051 -1413774101 -1971943676 -1438132391 2073111624 -1919992545 -1585979351 -251781383 286176656 -698658857 -2146483931 644755882 -1993561543 1659985816 -14067323 -170366454 1035906048 -667242307
REM
CELL 1.54180   50.00000   50.00000   50.00000   90.00000   90.00000   90.00000
LATT -1
SFAC C  
C      1  0.4606850000000  0.5122440000000  0.5044940000000 1.0
C      1  0.5549880000000  0.4889080000000  0.4930910000000 1.0
C      1  0.6077860000000  0.5681050000000  0.5107830000000 1.0
C      1  0.6025790000000  0.4527690000000  0.4921120000000 1.0
C      1  0.5531350000000  0.4097670000000  0.4578970000000 1.0
C      1  0.4957960000000  0.4481370000000  0.4108990000000 1.0
C      1  0.5296140000000  0.3928580000000  0.4962690000000 1.0
C      1  0.4485160000000  0.5258020000000  0.4827260000000 1.0
C      1  0.4474950000000  0.5907560000000  0.5462540000000 1.0
C      1  0.5255380000000  0.4189900000000  0.5448070000000 1.0
C      1  0.5772390000000  0.4257020000000  0.4539830000000 1.0
C      1  0.3852490000000  0.4697170000000  0.4916920000000 1.0
C      1  0.4406850000000  0.4765070000000  0.5957000000000 1.0
C      1  0.5898130000000  0.5277730000000  0.4698120000000 1.0
C      1  0.5278960000000  0.5407380000000  0.5149810000000 1.0
C      1  0.6037580000000  0.4709740000000  0.5391330000000 1.0
C      1  0.4672590000000  0.5538470000000  0.4033690000000 1.0
C      1  0.4087430000000  0.5617380000000  0.5237640000000 1.0
C      1  0.4455420000000  0.5588400000000  0.5923880000000 1.0
C      1  0.4557240000000  0.4287100000000  0.4220410000000 1.0
C      1  0.4421640000000  0.5978000000000  0.4676030000000 1.0
C      1  0.5989980000000  0.4778390000000  0.4783970000000 1.0
C      1  0.5688090000000  0.4766450000000  0.5727590000000 1.0
C      1  0.3997050000000  0.4471770000000  0.4795530000000 1.0
C      1  0.5687580000000  0.5344930000000  0.5398040000000 1.0
C      1  0.4770170000000  0.4727150000000  0.5592560000000 1.0
C      1  0.4966910000000  0.5237730000000  0.4178740000000 1.0
C      1  0.4491190000000  0.5309680000000  0.4091330000000 1.0
C      1  0.4846140000000  0.3822990000000  0.4758620000000 1.0
C      1  0.4141300000000  0.4641250000000  0.5508860000000 1.0
C      1  0.5221680000000  0.4180610000000  0.4541970000000 1.0
C      1  0.5665830000000  0.5247250000000  0.5900550000000 1.0
C      1  0.4335070000000  0.5740480000000  0.5274920000000 1.0
C      1  0.4538230000000  0.5546640000000  0.4832510000000 1.0
C      1  0.5642910000000  0.5806100000000  0.4542240000000 1.0
C      1  0.4265290000000  0.4802560000000  0.5720860000000 1.0
C      1  0.5096190000000  0.4604680000000  0.3891670000000 1.0
C      1  0.5197810000000  0.5296640000000  0.5845150000000 1.0
C      1  0.4510380000000  0.3874370000000  0.5150560000000 1.0
C      1  0.4108490000000  0.4266030000000  0.4968000000000 1.0
C      1  0.4915190000000  0.4061460000000  0.5147610000000 1.0
C      1  0.5028070000000  0.5693700000000  0.6125910000000 1.0
C      1  0.4823160000000  0.5737940000000  0.5191650000000 1.0
C      1  0.5447880000000  0.5265610000000  0.4026550000000 1.0
C      1  0.5589800000000  0.4501210000000  0.5677820000000 1.0
C      1  0.5726050000000  0.5397600000000  0.4898560000000 1.0
C      1  0.4660340000000  0.4535200000000  0.4108400000000 1.0
C      1  0.4669780000000  0.4771780000000  0.4650180000000 1.0
C      1  0.4288380000000  0.4303570000000  0.5194920000000 1.0
C      1  0.4464650000000  0.5442060000000  0.5707890000000 1.0
C      1  0.5742350000000  0.4297900000000  0.5254800000000 1.0
C      1  0.5233860000000  0.4445640000000  0.4697790000000 1.0
C      1  0.6070040000000  0.5051470000000  0.4748760000000 1.0
C      1  0.5552010000000  0.3995260000000  0.4863650000000 1.0
C      1  0.4168030000000  0.5497470000000  0.4513600000000 1.0
C      1  0.4480510000000  0.4114000000000  0.5313390000000 1.0
C      1  0.4880610000000  0.6105830000000  0.4921120000000 1.0
C      1  0.5278350000000  0.4990300000000  0.5881130000000 1.0
C      1  0.5165900000000  0.4583710000000  0.5162080000000 1.0
C      1  0.4896930000000  0.5257970000000  0.6284640000000 1.0
C      1  0.5837570000000  0.4872970000000  0.5507210000000 1.0
C      1  0.4187600000000  0.4606310000000  0.4614620000000 1.0
C      1  0.5154830000000  0.5826690000000  0.4435090000000 1.0
C      1  0.5238120000000  0.4832730000000  0.5266680000000 1.0
C      1  0.4498400000000  0.4771360000000  0.4059000000000 1.0
C      1  0.4577620000000  0.4855440000000  0.6140900000000 1.0
C      1  0.3875870000000  0.4765570000000  0.5485700000000 1.0
C      1  0.5465970000000  0.5839980000000  0.5299790000000 1.0
C      1  0.5487920000000  0.5866660000000  0.4779940000000 1.0
C      1  0.4770410000000  0.4957220000000  0.5438550000000 1.0
C      1  0.5262780000000  0.6051530000000  0.5284280000000 1.0
C      1  0.4918680000000  0.5711740000000  0.6392680000000 1.0
C      1  0.5183700000000  0.5655330000000  0.4208490000000 1.0
C      1  0.4977720000000  0.4569920000000  0.5704050000000 1.0
C      1  0.6559560000000  0.4777980000000  0.5506840000000 1.0
C      1  0.5375730000000  0.5109600000000  0.4540210000000 1.0
C      1  0.4843290000000  0.5461560000000  0.6484400000000 1.0
C      1  0.4384260000000  0.5234550000000  0.5538780000000 1.0
C      1  0.4995670000000  0.5360780000000  0.4642600000000 1.0
C      1  0.5464130000000  0.4805170000000  0.4206330000000 1.0
C      1  0.5661780000000  0.5584680000000  0.4358470000000 1.0
C      1  0.4175800000000  0.5075770000000  0.5643630000000 1.0
C      1  0.5822570000000  0.5634870000000  0.5027290000000 1.0
C      1  0.5751430000000  0.4143360000000  0.5005580000000 1.0
C      1  0.4708300000000  0.4184130000000  0.5510160000000 1.0
C      1  0.5118600000000  0.4890470000000  0.3899670000000 1.0
C      1  0.4603570000000  0.5036400000000  0.3995990000000 1.0
C      1  0.5073180000000  0.6190940000000  0.5130490000000 1.0
C      1  0.5209830000000  0.5848170000000  0.4720430000000 1.0
C      1  0.5317460000000  0.4450070000000  0.4967440000000 1.0
C      1  0.5708480000000  0.4790200000000  0.4744120000000 1.0
C      1  0.5013730000000  0.5872030000000  0.5913440000000 1.0
C      1  0.4350900000000  0.5332220000000  0.4346850000000 1.0
C      1  0.5852720000000  0.5387490000000  0.4438820000000 1.0
C      1  0.4459570000000  0.5167410000000  0.4556780000000 1.0
C      1  0.3974420000000  0.5409530000000  0.5110460000000 1.0
C      1  0.4232660000000  0.4760940000000  0.4156350000000 1.0
C      1  0.3994210000000  0.5271210000000  0.4636360000000 1.0
C      1  0.3902780000000  0.5033370000000  0.5557630000000 1.0
C      1  0.4961630000000  0.5806820000000  0.4905320000000 1.0
C      1  0.4029530000000  0.4920170000000  0.4992470000000 1.0
C      1  0.4633470000000  0.3786130000000  0.4923990000000 1.0
C      1  0.5570920000000  0.4972960000000  0.5887030000000 1.0
C      1  0.5951990000000  0.4510540000000  0.5208510000000 1.0
C      1  0.5474230000000  0.5445810000000  0.5788870000000 1.0
C      1  0.4624410000000  0.6131050000000  0.4786500000000 1.0
C      1  0.5051570000000  0.5402550000000  0.6080780000000 1.0
C      1  0.4755350000000  0.5021880000000  0.6248910000000 1.0
C      1  0.4925210000000  0.5924100000000  0.5667590000000 1.0
C      1  0.4281240000000  0.4580360000000  0.5268600000000 1.0
C      1  0.4757220000000  0.4123780000000  0.4320240000000 1.0
C      1  0.4924820000000  0.4803550000000  0.4777580000000 1.0
C      1  0.4551170000000  0.5119470000000  0.5336510000000 1.0
C      1  0.4874310000000  0.4997270000000  0.4991360000000 1.0
C      1  0.4833210000000  0.5573500000000  0.4749740000000 1.0
C      1  0.5011860000000  0.5018190000000  0.5262800000000 1.0
C      1  0.5443690000000  0.5515910000000  0.4175220000000 1.0
C      1  0.4549500000000  0.5646360000000  0.5108240000000 1.0
C      1  0.5147080000000  0.4701220000000  0.4616880000000 1.0
C      1  0.5100930000000  0.5290080000000  0.5327440000000 1.0
C      1  0.5145970000000  0.4738700000000  0.5859740000000 1.0
C      1  0.4891380000000  0.4524100000000  0.5140720000000 1.0
C      1  0.5099650000000  0.3949340000000  0.4733670000000 1.0
C      1  0.6306680000000  0.4743500000000  0.5454200000000 1.0
C      1  0.4764950000000  0.5878670000000  0.5444490000000 1.0
C      1  0.4670670000000  0.5005740000000  0.4487870000000 1.0
C      1  0.5197110000000  0.4458510000000  0.3684220000000 1.0
C      1  0.5053580000000  0.5357760000000  0.5592650000000 1.0
C      1  0.5272000000000  0.5311510000000  0.4695420000000 1.0
C      1  0.4420560000000  0.4695150000000  0.4774630000000 1.0
C      1  0.3967170000000  0.5032460000000  0.4468380000000 1.0
C      1  0.5431580000000  0.5376640000000  0.4916470000000 1.0
C      1  0.4336150000000  0.5699300000000  0.4660500000000 1.0
C      1  0.4291170000000  0.4771070000000  0.5040960000000 1.0
C      1  0.3986000000000  0.5200440000000  0.4921460000000 1.0
C      1  0.5325630000000  0.4851850000000  0.4451230000000 1.0
C      1  0.5667640000000  0.4616380000000  0.4187090000000 1.0
C      1  0.5686730000000  0.5063300000000  0.5357470000000 1.0
C      1  0.5187470000000  0.4018760000000  0.5215810000000 1.0
C      1  0.5374570000000  0.4986870000000  0.4001230000000 1.0
C      1  0.4896570000000  0.5047840000000  0.3978060000000 1.0
C      1  0.4100620000000  0.4785350000000  0.4404080000000 1.0
C      1  0.4992860000000  0.4297160000000  0.5587430000000 1.0
C      1  0.5607950000000  0.5822190000000  0.5043430000000 1.0
C      1  0.5531770000000  0.4312090000000  0.5465940000000 1.0
C      1  0.5541640000000  0.5567920000000  0.5521730000000 1.0
C      1  0.5793840000000  0.4418050000000  0.4313450000000 1.0
C      1  0.5489080000000  0.4937940000000  0.5195720000000 1.0
C      1  0.4799220000000  0.4287780000000  0.5058970000000 1.0
C      1  0.4895590000000  0.5177370000000  0.4442660000000 1.0
C      1  0.5907550000000  0.4292380000000  0.4795960000000 1.0
C      1  0.5024780000000  0.4247260000000  0.4301250000000 1.0
C      1  0.4952430000000  0.5516390000000  0.4110280000000 1.0
END
