TITL C-612604-1799-495 0.165963822346847 125000 -78.9910205636477 0 0 15 (C1) n - 1
REM
REM in /home/nfs/bkarasulu/CARBON/AIRSS/Generating-Clusters/TERSOFF/Only-C1/FIRE-HFTN
REM
REM
REM
REM
REM
REM ./C.cell (11c1c37f851c82e70ff6c80c92926a4b)
REM AIRSS Version 0.9.1 bugfix July 2018 build 013d7b7c2542+ Fri, 06 Jul 2018 19:26:36 +0100
REM compiler GCC version 9.2.1 20190827 (Red Hat 9.2.1-1)
REM options -cpp -mtune=generic -march=x86-64 -g -O0 -fpre-include=/usr/include/finclude/math-vector-fortran.h
REM seed -531396142 -505498739 -1201812146 -2033282007 1846838754 1200194105 2048233768 -1652237150 1688227612 1837271902 -261477231 -1155861033 -1862065452 1081353945 2001867261 1529851562 1031944592 -1145993209 955898022 972688000 -1204838823 1722359469 133900798 388498244 -884212440 -869785594 -231108066 1500064677 -1557379729 -7388449 913315977 -635550770 -906087320
REM
CELL 1.54180   50.00000   50.00000   50.00000   90.00000   90.00000   90.00000
LATT -1
SFAC C  
C      1  0.5326430000000  0.4502850000000  0.5722530000000 1.0
C      1  0.4739320000000  0.5285700000000  0.4593360000000 1.0
C      1  0.4961540000000  0.5846490000000  0.4346530000000 1.0
C      1  0.4976010000000  0.4199590000000  0.5597690000000 1.0
C      1  0.4406940000000  0.5507000000000  0.4325730000000 1.0
C      1  0.4669420000000  0.5465100000000  0.4390690000000 1.0
C      1  0.4984460000000  0.5493850000000  0.4026460000000 1.0
C      1  0.5734880000000  0.4634230000000  0.6026200000000 1.0
C      1  0.4875310000000  0.5604270000000  0.4252110000000 1.0
C      1  0.4884490000000  0.4948420000000  0.4975360000000 1.0
C      1  0.5109460000000  0.4435290000000  0.5559610000000 1.0
C      1  0.5030450000000  0.4611420000000  0.5357330000000 1.0
C      1  0.4957400000000  0.4779810000000  0.5166350000000 1.0
C      1  0.5532300000000  0.4568970000000  0.5875650000000 1.0
C      1  0.4811600000000  0.5117030000000  0.4784370000000 1.0
END
