TITL C-612602-9376-414 12283.5212432965 125000 -790.412179354849 0 0 128 (C1) n - 1
REM
REM in /home/nfs/bkarasulu/CARBON/AIRSS/Generating-Clusters/TERSOFF/Only-C1/FIRE-HFTN
REM
REM
REM
REM
REM
REM ./C.cell (11c1c37f851c82e70ff6c80c92926a4b)
REM AIRSS Version 0.9.1 bugfix July 2018 build 013d7b7c2542+ Fri, 06 Jul 2018 19:26:36 +0100
REM compiler GCC version 9.2.1 20190827 (Red Hat 9.2.1-1)
REM options -cpp -mtune=generic -march=x86-64 -g -O0 -fpre-include=/usr/include/finclude/math-vector-fortran.h
REM seed 620863244 -661755763 1596294812 1745240732 -2111036442 1164050330 820417405 667163753 1370266236 -807724035 1483137955 -2016946065 -145520396 -732965910 788599015 -1526078825 1339858260 426343591 -1075464315 195080846 -944907884 -2121490188 -1266519315 -16110765 1866633106 -1334631475 -1190269835 -1037480783 419723905 -166762469 -1797804848 -993636532 356258270
REM
CELL 1.54180   50.00000   50.00000   50.00000   90.00000   90.00000   90.00000
LATT -1
SFAC C  
C      1  0.4449960000000  0.5806130000000  0.4646880000000 1.0
C      1  0.5276250000000  0.4807550000000  0.4651560000000 1.0
C      1  0.3945870000000  0.4762580000000  0.4925590000000 1.0
C      1  0.3898140000000  0.5020920000000  0.4882860000000 1.0
C      1  0.5531370000000  0.5845390000000  0.5505800000000 1.0
C      1  0.5566750000000  0.3961310000000  0.4564230000000 1.0
C      1  0.5438010000000  0.5436380000000  0.4882130000000 1.0
C      1  0.3817350000000  0.5640760000000  0.5198610000000 1.0
C      1  0.3942390000000  0.5398120000000  0.5177070000000 1.0
C      1  0.5589170000000  0.4818050000000  0.4273160000000 1.0
C      1  0.5421990000000  0.5707230000000  0.6046190000000 1.0
C      1  0.5342520000000  0.3965790000000  0.4416350000000 1.0
C      1  0.4917730000000  0.4533800000000  0.4754070000000 1.0
C      1  0.5120980000000  0.4586200000000  0.4566560000000 1.0
C      1  0.4850250000000  0.5889920000000  0.5655650000000 1.0
C      1  0.5237820000000  0.5980050000000  0.5100050000000 1.0
C      1  0.5406250000000  0.4581550000000  0.4192110000000 1.0
C      1  0.4406670000000  0.4752930000000  0.4133900000000 1.0
C      1  0.4717000000000  0.4720990000000  0.6057290000000 1.0
C      1  0.4199700000000  0.4519340000000  0.5436370000000 1.0
C      1  0.5763630000000  0.4811780000000  0.4533490000000 1.0
C      1  0.5871800000000  0.5057920000000  0.4686490000000 1.0
C      1  0.4251690000000  0.4468650000000  0.4703150000000 1.0
C      1  0.5547160000000  0.4377430000000  0.5115610000000 1.0
C      1  0.5171890000000  0.5782410000000  0.4487310000000 1.0
C      1  0.4765510000000  0.5633040000000  0.4278870000000 1.0
C      1  0.4161150000000  0.5402350000000  0.4722120000000 1.0
C      1  0.5807380000000  0.4853580000000  0.5114550000000 1.0
C      1  0.5208860000000  0.5440120000000  0.5347790000000 1.0
C      1  0.5159250000000  0.4845180000000  0.5811490000000 1.0
C      1  0.4821770000000  0.5116570000000  0.5434960000000 1.0
C      1  0.4161960000000  0.5156210000000  0.5611760000000 1.0
C      1  0.5596120000000  0.3789680000000  0.5230600000000 1.0
C      1  0.5200050000000  0.4662000000000  0.3991990000000 1.0
C      1  0.4651140000000  0.3890960000000  0.4958890000000 1.0
C      1  0.4503460000000  0.5416370000000  0.5243430000000 1.0
C      1  0.4467200000000  0.5440880000000  0.6069180000000 1.0
C      1  0.4703360000000  0.5752460000000  0.4544410000000 1.0
C      1  0.5290810000000  0.5033490000000  0.5641030000000 1.0
C      1  0.5825110000000  0.5729130000000  0.5118810000000 1.0
C      1  0.4806860000000  0.5210710000000  0.4575890000000 1.0
C      1  0.4167120000000  0.4508230000000  0.5700970000000 1.0
C      1  0.5062890000000  0.5661100000000  0.4242310000000 1.0
C      1  0.5256880000000  0.4426540000000  0.4381340000000 1.0
C      1  0.4873910000000  0.4348600000000  0.5454540000000 1.0
C      1  0.4615790000000  0.5410770000000  0.4163300000000 1.0
C      1  0.5280150000000  0.5970620000000  0.5379060000000 1.0
C      1  0.4642780000000  0.3898940000000  0.4693000000000 1.0
C      1  0.5539580000000  0.4879170000000  0.5045810000000 1.0
C      1  0.4460790000000  0.5164790000000  0.6020010000000 1.0
C      1  0.5294870000000  0.4488230000000  0.5028590000000 1.0
C      1  0.5265320000000  0.5316460000000  0.4689270000000 1.0
C      1  0.5229250000000  0.5063000000000  0.4549600000000 1.0
C      1  0.5782450000000  0.4546020000000  0.4680980000000 1.0
C      1  0.5701150000000  0.5768110000000  0.4507280000000 1.0
C      1  0.4616020000000  0.5734460000000  0.5661140000000 1.0
C      1  0.5633860000000  0.4693990000000  0.5530740000000 1.0
C      1  0.4683710000000  0.5190020000000  0.5157520000000 1.0
C      1  0.4603230000000  0.4948450000000  0.4943250000000 1.0
C      1  0.5932050000000  0.5244020000000  0.4930860000000 1.0
C      1  0.5012080000000  0.4478210000000  0.5016960000000 1.0
C      1  0.5703260000000  0.4047010000000  0.4795290000000 1.0
C      1  0.5725530000000  0.3863000000000  0.5008400000000 1.0
C      1  0.4915190000000  0.4071620000000  0.5385740000000 1.0
C      1  0.4978240000000  0.5075460000000  0.4111370000000 1.0
C      1  0.5152570000000  0.3938060000000  0.5452370000000 1.0
C      1  0.4512070000000  0.5616220000000  0.5425230000000 1.0
C      1  0.4966580000000  0.5718270000000  0.4710340000000 1.0
C      1  0.4921570000000  0.5309280000000  0.5019990000000 1.0
C      1  0.5013050000000  0.5559390000000  0.5171070000000 1.0
C      1  0.5631140000000  0.4471510000000  0.5372780000000 1.0
C      1  0.5102000000000  0.5213710000000  0.5505130000000 1.0
C      1  0.4386620000000  0.5257860000000  0.4275590000000 1.0
C      1  0.4872790000000  0.4160060000000  0.4299000000000 1.0
C      1  0.4701600000000  0.4290140000000  0.5905320000000 1.0
C      1  0.4338970000000  0.5244350000000  0.4563090000000 1.0
C      1  0.5378990000000  0.5080430000000  0.5138040000000 1.0
C      1  0.5118100000000  0.5940230000000  0.5620290000000 1.0
C      1  0.4715150000000  0.3986940000000  0.4452230000000 1.0
C      1  0.4017750000000  0.5256560000000  0.5410180000000 1.0
C      1  0.4398820000000  0.5095760000000  0.5749350000000 1.0
C      1  0.5444780000000  0.5843410000000  0.4490860000000 1.0
C      1  0.4561220000000  0.5128200000000  0.4696120000000 1.0
C      1  0.5387070000000  0.3827100000000  0.5391930000000 1.0
C      1  0.4536770000000  0.4545140000000  0.4277070000000 1.0
C      1  0.5451110000000  0.5589040000000  0.6276630000000 1.0
C      1  0.5206300000000  0.4947220000000  0.3999530000000 1.0
C      1  0.5385480000000  0.5808800000000  0.5797730000000 1.0
C      1  0.4782500000000  0.5243110000000  0.3997620000000 1.0
C      1  0.5888950000000  0.5640020000000  0.4650280000000 1.0
C      1  0.5913630000000  0.5534430000000  0.4914730000000 1.0
C      1  0.4628450000000  0.5016610000000  0.5609040000000 1.0
C      1  0.4274810000000  0.4505150000000  0.5946790000000 1.0
C      1  0.5460180000000  0.5330860000000  0.4105220000000 1.0
C      1  0.5424910000000  0.5361890000000  0.5160800000000 1.0
C      1  0.4675900000000  0.4657080000000  0.4725640000000 1.0
C      1  0.5786050000000  0.5171190000000  0.5452950000000 1.0
C      1  0.5913730000000  0.5104400000000  0.5193910000000 1.0
C      1  0.5463060000000  0.5046330000000  0.4111210000000 1.0
C      1  0.4887190000000  0.4422670000000  0.5726070000000 1.0
C      1  0.4315270000000  0.4578190000000  0.5187410000000 1.0
C      1  0.5711220000000  0.4326010000000  0.4869950000000 1.0
C      1  0.4614700000000  0.4966640000000  0.6150320000000 1.0
C      1  0.4225620000000  0.5677050000000  0.4718600000000 1.0
C      1  0.4153530000000  0.4575220000000  0.4947590000000 1.0
C      1  0.5470750000000  0.6062550000000  0.4962990000000 1.0
C      1  0.4764960000000  0.4398150000000  0.4168460000000 1.0
C      1  0.4982190000000  0.5079420000000  0.4394660000000 1.0
C      1  0.3990960000000  0.5283270000000  0.4918980000000 1.0
C      1  0.4969120000000  0.5402480000000  0.4737750000000 1.0
C      1  0.5804550000000  0.5443810000000  0.5522660000000 1.0
C      1  0.4949780000000  0.4525230000000  0.3988370000000 1.0
C      1  0.5107440000000  0.5067880000000  0.5056390000000 1.0
C      1  0.4516350000000  0.5652480000000  0.5911720000000 1.0
C      1  0.5392990000000  0.4717140000000  0.4886110000000 1.0
C      1  0.4538550000000  0.4486040000000  0.6040850000000 1.0
C      1  0.5157980000000  0.4164270000000  0.4344920000000 1.0
C      1  0.4942140000000  0.4676500000000  0.5868020000000 1.0
C      1  0.5740840000000  0.5686970000000  0.5394150000000 1.0
C      1  0.4581620000000  0.4675260000000  0.5168960000000 1.0
C      1  0.5044990000000  0.5792640000000  0.4998150000000 1.0
C      1  0.5577330000000  0.4978900000000  0.5565440000000 1.0
C      1  0.5263370000000  0.5519650000000  0.4097670000000 1.0
C      1  0.4481600000000  0.4546000000000  0.4560210000000 1.0
C      1  0.4330410000000  0.5011420000000  0.4140690000000 1.0
C      1  0.4739470000000  0.3950450000000  0.5202730000000 1.0
C      1  0.5722600000000  0.5972870000000  0.5007110000000 1.0
C      1  0.4821390000000  0.4519370000000  0.5229430000000 1.0
END
