TITL C-612606-7351-34 -6756.98699067094 125000 -1206.10979787254 0 0 198 (C1) n - 1
REM
REM in /home/nfs/bkarasulu/CARBON/AIRSS/Generating-Clusters/TERSOFF/Only-C1/FIRE-HFTN
REM
REM
REM
REM
REM
REM ./C.cell (11c1c37f851c82e70ff6c80c92926a4b)
REM AIRSS Version 0.9.1 bugfix July 2018 build 013d7b7c2542+ Fri, 06 Jul 2018 19:26:36 +0100
REM compiler GCC version 9.2.1 20190827 (Red Hat 9.2.1-1)
REM options -cpp -mtune=generic -march=x86-64 -g -O0 -fpre-include=/usr/include/finclude/math-vector-fortran.h
REM seed -1668640960 1150835774 1243524723 -1007831245 -562729112 -1017527027 752025208 22633792 -1390130676 -1629407299 1448152144 2044232926 621935804 -2137783187 2081834777 743380787 436073846 236211017 2008367923 37649593 710339581 1634623768 -1293059289 -1495606782 1743635314 1382025169 608274893 184820518 -1167554734 -1025964199 1619362247 2087996387 -1811715877
REM
CELL 1.54180   50.00000   50.00000   50.00000   90.00000   90.00000   90.00000
LATT -1
SFAC C  
C      1  0.5691500000000  0.5627240000000  0.5487690000000 1.0
C      1  0.4218440000000  0.4027480000000  0.4973370000000 1.0
C      1  0.5573090000000  0.5350080000000  0.4800580000000 1.0
C      1  0.5359720000000  0.4500720000000  0.5168220000000 1.0
C      1  0.5741160000000  0.5002910000000  0.5722820000000 1.0
C      1  0.4906370000000  0.4207080000000  0.4303520000000 1.0
C      1  0.5440540000000  0.3920680000000  0.5665670000000 1.0
C      1  0.4840210000000  0.3842110000000  0.5189920000000 1.0
C      1  0.4134180000000  0.5010650000000  0.5903280000000 1.0
C      1  0.5559730000000  0.4574290000000  0.5917110000000 1.0
C      1  0.3810670000000  0.5194460000000  0.5525730000000 1.0
C      1  0.4646920000000  0.4846470000000  0.4009790000000 1.0
C      1  0.6318530000000  0.4811830000000  0.4583360000000 1.0
C      1  0.5349920000000  0.3824530000000  0.5048140000000 1.0
C      1  0.4732260000000  0.4818930000000  0.6317970000000 1.0
C      1  0.5572070000000  0.4987700000000  0.5484890000000 1.0
C      1  0.5955700000000  0.5478240000000  0.5485350000000 1.0
C      1  0.3487240000000  0.5524570000000  0.5152270000000 1.0
C      1  0.5251280000000  0.5626720000000  0.5744870000000 1.0
C      1  0.5753290000000  0.5040330000000  0.3752080000000 1.0
C      1  0.6056110000000  0.5388580000000  0.5160700000000 1.0
C      1  0.5539550000000  0.6184450000000  0.4726660000000 1.0
C      1  0.5321640000000  0.4853330000000  0.5513920000000 1.0
C      1  0.4303740000000  0.5484150000000  0.4563990000000 1.0
C      1  0.5043590000000  0.4606670000000  0.5987040000000 1.0
C      1  0.3677300000000  0.5010900000000  0.5333620000000 1.0
C      1  0.5513290000000  0.5432550000000  0.5316660000000 1.0
C      1  0.5951750000000  0.4250030000000  0.5110670000000 1.0
C      1  0.5294800000000  0.4974310000000  0.4409340000000 1.0
C      1  0.5192210000000  0.5128030000000  0.4636680000000 1.0
C      1  0.4681310000000  0.3832790000000  0.4944880000000 1.0
C      1  0.3794480000000  0.5034640000000  0.4782900000000 1.0
C      1  0.4543950000000  0.4569120000000  0.4006330000000 1.0
C      1  0.5041160000000  0.5964480000000  0.5130700000000 1.0
C      1  0.5223620000000  0.4406610000000  0.5623790000000 1.0
C      1  0.5451460000000  0.5528000000000  0.5915680000000 1.0
C      1  0.4397290000000  0.5183750000000  0.3772460000000 1.0
C      1  0.5246130000000  0.5906450000000  0.5660350000000 1.0
C      1  0.4413950000000  0.4413750000000  0.4693280000000 1.0
C      1  0.5169190000000  0.5578610000000  0.4549190000000 1.0
C      1  0.4373710000000  0.5195410000000  0.5559170000000 1.0
C      1  0.4792370000000  0.5910140000000  0.5263470000000 1.0
C      1  0.4468400000000  0.4375570000000  0.5193760000000 1.0
C      1  0.4064640000000  0.5057280000000  0.4847040000000 1.0
C      1  0.4505870000000  0.5015440000000  0.4988270000000 1.0
C      1  0.5403230000000  0.6220390000000  0.4980540000000 1.0
C      1  0.5659280000000  0.4211430000000  0.4207900000000 1.0
C      1  0.5292740000000  0.4583840000000  0.5424830000000 1.0
C      1  0.5586850000000  0.4635390000000  0.5075750000000 1.0
C      1  0.5091780000000  0.5501820000000  0.6425210000000 1.0
C      1  0.5068670000000  0.5544760000000  0.3820970000000 1.0
C      1  0.5015480000000  0.5239090000000  0.5521010000000 1.0
C      1  0.5336510000000  0.5379350000000  0.4658510000000 1.0
C      1  0.5530880000000  0.6071030000000  0.5212530000000 1.0
C      1  0.5836920000000  0.5645730000000  0.4523320000000 1.0
C      1  0.5631260000000  0.4291450000000  0.4744400000000 1.0
C      1  0.5113110000000  0.5266780000000  0.3716810000000 1.0
C      1  0.4292580000000  0.5501960000000  0.5138760000000 1.0
C      1  0.4223880000000  0.5282260000000  0.4741660000000 1.0
C      1  0.4420340000000  0.5315350000000  0.4964590000000 1.0
C      1  0.6009200000000  0.4444010000000  0.5332760000000 1.0
C      1  0.4851900000000  0.5397600000000  0.4221480000000 1.0
C      1  0.4688270000000  0.3957990000000  0.5412510000000 1.0
C      1  0.5494110000000  0.6001560000000  0.4529110000000 1.0
C      1  0.6058580000000  0.3826620000000  0.5328310000000 1.0
C      1  0.5202540000000  0.4326180000000  0.5004910000000 1.0
C      1  0.4810670000000  0.5191780000000  0.5293830000000 1.0
C      1  0.4913570000000  0.4426630000000  0.6149850000000 1.0
C      1  0.4874870000000  0.5618750000000  0.4038880000000 1.0
C      1  0.5282410000000  0.4508140000000  0.5880220000000 1.0
C      1  0.4251180000000  0.3787930000000  0.5569350000000 1.0
C      1  0.5424270000000  0.3854410000000  0.4537070000000 1.0
C      1  0.4990960000000  0.4897410000000  0.6351410000000 1.0
C      1  0.4875500000000  0.5882190000000  0.4170900000000 1.0
C      1  0.5133930000000  0.3832710000000  0.5245260000000 1.0
C      1  0.5983170000000  0.5146390000000  0.5631190000000 1.0
C      1  0.5618220000000  0.5835790000000  0.5065690000000 1.0
C      1  0.5610990000000  0.4865500000000  0.5951110000000 1.0
C      1  0.4450250000000  0.3950370000000  0.4805700000000 1.0
C      1  0.5412050000000  0.5663240000000  0.4146820000000 1.0
C      1  0.3806680000000  0.4734690000000  0.5660600000000 1.0
C      1  0.4562710000000  0.5705740000000  0.5634460000000 1.0
C      1  0.4397150000000  0.5040350000000  0.5792970000000 1.0
C      1  0.4896600000000  0.5451840000000  0.4500640000000 1.0
C      1  0.3749370000000  0.5908520000000  0.5295440000000 1.0
C      1  0.4226800000000  0.5040750000000  0.5346720000000 1.0
C      1  0.3920880000000  0.6090940000000  0.5202980000000 1.0
C      1  0.5426570000000  0.5631110000000  0.5101200000000 1.0
C      1  0.5541770000000  0.5325770000000  0.6066340000000 1.0
C      1  0.4854390000000  0.4737570000000  0.4637100000000 1.0
C      1  0.5286030000000  0.3907450000000  0.4780430000000 1.0
C      1  0.3687010000000  0.5635020000000  0.5315790000000 1.0
C      1  0.4151450000000  0.5884020000000  0.4431500000000 1.0
C      1  0.5533030000000  0.5113600000000  0.4981590000000 1.0
C      1  0.4797940000000  0.4599010000000  0.4886970000000 1.0
C      1  0.5538790000000  0.3976780000000  0.4323790000000 1.0
C      1  0.4892260000000  0.4748590000000  0.5103160000000 1.0
C      1  0.4683920000000  0.5694320000000  0.4879460000000 1.0
C      1  0.3898260000000  0.5000980000000  0.5743850000000 1.0
C      1  0.4588340000000  0.5913690000000  0.5058760000000 1.0
C      1  0.5964510000000  0.5422040000000  0.4383790000000 1.0
C      1  0.5152480000000  0.5704640000000  0.5064530000000 1.0
C      1  0.6047150000000  0.5439260000000  0.4874650000000 1.0
C      1  0.4998600000000  0.5169260000000  0.4134810000000 1.0
C      1  0.4784050000000  0.5694240000000  0.5461150000000 1.0
C      1  0.5719250000000  0.4352000000000  0.5801380000000 1.0
C      1  0.4305900000000  0.5214270000000  0.4043480000000 1.0
C      1  0.5235910000000  0.4991080000000  0.3731890000000 1.0
C      1  0.5092940000000  0.4975660000000  0.5645250000000 1.0
C      1  0.5294140000000  0.5812890000000  0.4397230000000 1.0
C      1  0.4152800000000  0.5435370000000  0.4124820000000 1.0
C      1  0.5499350000000  0.4494780000000  0.4601360000000 1.0
C      1  0.5790630000000  0.5320440000000  0.4177440000000 1.0
C      1  0.5872150000000  0.5166320000000  0.3956670000000 1.0
C      1  0.4671130000000  0.4982550000000  0.4669530000000 1.0
C      1  0.5446920000000  0.5057380000000  0.6110540000000 1.0
C      1  0.5037660000000  0.5994350000000  0.4390450000000 1.0
C      1  0.5622100000000  0.4843010000000  0.4890900000000 1.0
C      1  0.4626780000000  0.4442030000000  0.5427990000000 1.0
C      1  0.4483170000000  0.4437960000000  0.4244270000000 1.0
C      1  0.4571150000000  0.4748760000000  0.6108410000000 1.0
C      1  0.4731120000000  0.5669840000000  0.6061970000000 1.0
C      1  0.5962290000000  0.5122580000000  0.5186710000000 1.0
C      1  0.4490150000000  0.5681500000000  0.4670030000000 1.0
C      1  0.5874690000000  0.3979900000000  0.5193330000000 1.0
C      1  0.5576170000000  0.4907850000000  0.4418820000000 1.0
C      1  0.5144490000000  0.4856210000000  0.5086960000000 1.0
C      1  0.5909120000000  0.4289220000000  0.4332290000000 1.0
C      1  0.3884170000000  0.5461250000000  0.5433410000000 1.0
C      1  0.4896480000000  0.5197660000000  0.4697080000000 1.0
C      1  0.5906590000000  0.4293960000000  0.4825340000000 1.0
C      1  0.4931330000000  0.4862190000000  0.4112120000000 1.0
C      1  0.6084890000000  0.4976300000000  0.5399970000000 1.0
C      1  0.5140520000000  0.4155010000000  0.4780530000000 1.0
C      1  0.5498070000000  0.5936800000000  0.5489530000000 1.0
C      1  0.4315250000000  0.4132540000000  0.5219410000000 1.0
C      1  0.6139800000000  0.5313370000000  0.4610960000000 1.0
C      1  0.4450480000000  0.5008610000000  0.4201420000000 1.0
C      1  0.4146820000000  0.6146660000000  0.5072390000000 1.0
C      1  0.4968260000000  0.5998790000000  0.5761700000000 1.0
C      1  0.4996210000000  0.5474300000000  0.5692980000000 1.0
C      1  0.4613540000000  0.4724860000000  0.5497900000000 1.0
C      1  0.5076800000000  0.4267120000000  0.4526890000000 1.0
C      1  0.4922580000000  0.5562870000000  0.4974240000000 1.0
C      1  0.5225790000000  0.5142460000000  0.5073850000000 1.0
C      1  0.6246640000000  0.4555400000000  0.4578140000000 1.0
C      1  0.6130660000000  0.4703350000000  0.5335640000000 1.0
C      1  0.3710600000000  0.4726340000000  0.5386850000000 1.0
C      1  0.4156120000000  0.5602410000000  0.4347850000000 1.0
C      1  0.5063540000000  0.4189140000000  0.5568910000000 1.0
C      1  0.4491340000000  0.4141820000000  0.4597560000000 1.0
C      1  0.5632200000000  0.4744390000000  0.4629500000000 1.0
C      1  0.5118870000000  0.6159620000000  0.4936440000000 1.0
C      1  0.5172940000000  0.5074110000000  0.6222960000000 1.0
C      1  0.4591660000000  0.4990260000000  0.3748310000000 1.0
C      1  0.4219300000000  0.4931030000000  0.5072610000000 1.0
C      1  0.5230470000000  0.4477620000000  0.3961780000000 1.0
C      1  0.5668100000000  0.5164960000000  0.5246600000000 1.0
C      1  0.4393080000000  0.4602920000000  0.4473370000000 1.0
C      1  0.4452240000000  0.4893910000000  0.4465640000000 1.0
C      1  0.5252480000000  0.5294680000000  0.5347160000000 1.0
C      1  0.5054920000000  0.5339270000000  0.6204340000000 1.0
C      1  0.5071870000000  0.4751090000000  0.4396410000000 1.0
C      1  0.4622470000000  0.4831770000000  0.5807900000000 1.0
C      1  0.5496900000000  0.4380530000000  0.4033490000000 1.0
C      1  0.4363230000000  0.6043580000000  0.4929170000000 1.0
C      1  0.4695410000000  0.5861960000000  0.5853290000000 1.0
C      1  0.6285320000000  0.5075760000000  0.4592810000000 1.0
C      1  0.4328320000000  0.5938430000000  0.4657930000000 1.0
C      1  0.4622830000000  0.4200780000000  0.4343780000000 1.0
C      1  0.4363680000000  0.5492400000000  0.5582380000000 1.0
C      1  0.3956280000000  0.4124690000000  0.4923640000000 1.0
C      1  0.4405820000000  0.3945520000000  0.5412360000000 1.0
C      1  0.3441470000000  0.5351900000000  0.4953520000000 1.0
C      1  0.4790520000000  0.4211430000000  0.5508450000000 1.0
C      1  0.5620780000000  0.3866470000000  0.5129900000000 1.0
C      1  0.4938770000000  0.5270410000000  0.5000650000000 1.0
C      1  0.5604480000000  0.4087260000000  0.5804460000000 1.0
C      1  0.5208090000000  0.3949020000000  0.5504150000000 1.0
C      1  0.3725530000000  0.4513170000000  0.5204610000000 1.0
C      1  0.4547060000000  0.4472520000000  0.4934510000000 1.0
C      1  0.3799650000000  0.4315500000000  0.5036840000000 1.0
C      1  0.3559570000000  0.5158960000000  0.4810990000000 1.0
C      1  0.6050890000000  0.4355060000000  0.4578340000000 1.0
C      1  0.4681370000000  0.4920250000000  0.5241070000000 1.0
C      1  0.5502300000000  0.5385320000000  0.4181310000000 1.0
C      1  0.5304090000000  0.5701280000000  0.3884330000000 1.0
C      1  0.5021170000000  0.4294470000000  0.4052150000000 1.0
C      1  0.5238300000000  0.4499890000000  0.4478390000000 1.0
C      1  0.5785530000000  0.5535590000000  0.4784000000000 1.0
C      1  0.5904700000000  0.4384970000000  0.5591930000000 1.0
C      1  0.4897530000000  0.5446210000000  0.5988060000000 1.0
C      1  0.4157990000000  0.5543820000000  0.5385730000000 1.0
C      1  0.5510280000000  0.4978890000000  0.3657800000000 1.0
C      1  0.5285320000000  0.5186550000000  0.4193480000000 1.0
C      1  0.5140910000000  0.4759910000000  0.3899670000000 1.0
C      1  0.4932040000000  0.4829480000000  0.5830450000000 1.0
C      1  0.5015570000000  0.6135190000000  0.4653970000000 1.0
END
