TITL C-612603-7354-870 0.0634145769915936 125000 -742.934456800811 0 0 120 (C1) n - 1
REM
REM in /home/nfs/bkarasulu/CARBON/AIRSS/Generating-Clusters/TERSOFF/Only-C1/FIRE-HFTN
REM
REM
REM
REM
REM
REM ./C.cell (11c1c37f851c82e70ff6c80c92926a4b)
REM AIRSS Version 0.9.1 bugfix July 2018 build 013d7b7c2542+ Fri, 06 Jul 2018 19:26:36 +0100
REM compiler GCC version 9.2.1 20190827 (Red Hat 9.2.1-1)
REM options -cpp -mtune=generic -march=x86-64 -g -O0 -fpre-include=/usr/include/finclude/math-vector-fortran.h
REM seed -608213391 1311578391 -632673222 -385112948 291753160 -58313436 1773862521 -1401887098 206235003 -2028069443 608027398 804622024 1354339423 -101081256 1083392329 1017946145 -1714342244 -344590143 -660042491 168790655 -1935992077 -1074752721 1950395231 -864028681 1041768479 -2003525675 2008419230 154580364 -2000029184 -455290230 1828442199 -1181292063 1413684604
REM
CELL 1.54180   50.00000   50.00000   50.00000   90.00000   90.00000   90.00000
LATT -1
SFAC C  
C      1  0.5088160000000  0.5373320000000  0.4747060000000 1.0
C      1  0.5467950000000  0.4727810000000  0.5178540000000 1.0
C      1  0.4598660000000  0.4918250000000  0.5084320000000 1.0
C      1  0.5682290000000  0.5213440000000  0.5695870000000 1.0
C      1  0.4655610000000  0.4672660000000  0.5218310000000 1.0
C      1  0.4457530000000  0.4487960000000  0.5108020000000 1.0
C      1  0.4505380000000  0.4517450000000  0.5854300000000 1.0
C      1  0.5286510000000  0.4977700000000  0.4185640000000 1.0
C      1  0.4571210000000  0.4790830000000  0.5821060000000 1.0
C      1  0.5525470000000  0.4738550000000  0.4691930000000 1.0
C      1  0.4933370000000  0.5922560000000  0.5206950000000 1.0
C      1  0.4289180000000  0.5454910000000  0.5175940000000 1.0
C      1  0.4185250000000  0.4698690000000  0.4678320000000 1.0
C      1  0.5758410000000  0.4469740000000  0.4334080000000 1.0
C      1  0.5598250000000  0.5827640000000  0.4989380000000 1.0
C      1  0.5764660000000  0.5276770000000  0.4376440000000 1.0
C      1  0.4747360000000  0.4199170000000  0.4886060000000 1.0
C      1  0.5045940000000  0.5436180000000  0.4164380000000 1.0
C      1  0.5645730000000  0.4993350000000  0.4756140000000 1.0
C      1  0.5079950000000  0.4590910000000  0.5006090000000 1.0
C      1  0.4334780000000  0.5301780000000  0.5633000000000 1.0
C      1  0.5492500000000  0.5109300000000  0.5897770000000 1.0
C      1  0.5491320000000  0.4222890000000  0.4724830000000 1.0
C      1  0.4864830000000  0.4837010000000  0.4259280000000 1.0
C      1  0.5746130000000  0.4343240000000  0.4810190000000 1.0
C      1  0.5077840000000  0.5829900000000  0.4971450000000 1.0
C      1  0.4690760000000  0.4622960000000  0.4695860000000 1.0
C      1  0.4946040000000  0.5314180000000  0.6162960000000 1.0
C      1  0.5735260000000  0.5613370000000  0.4843750000000 1.0
C      1  0.4399160000000  0.5061660000000  0.4346660000000 1.0
C      1  0.5473970000000  0.5133600000000  0.4933020000000 1.0
C      1  0.4918330000000  0.4549320000000  0.4206770000000 1.0
C      1  0.4089400000000  0.4340220000000  0.5492380000000 1.0
C      1  0.4048590000000  0.5064570000000  0.5318690000000 1.0
C      1  0.4026370000000  0.5203650000000  0.4823370000000 1.0
C      1  0.4631330000000  0.5900220000000  0.5221400000000 1.0
C      1  0.4261870000000  0.5618790000000  0.4930550000000 1.0
C      1  0.4166190000000  0.5315910000000  0.5386630000000 1.0
C      1  0.4048280000000  0.4605310000000  0.5512500000000 1.0
C      1  0.5706910000000  0.5677330000000  0.5465320000000 1.0
C      1  0.5750030000000  0.5068660000000  0.4187970000000 1.0
C      1  0.4700240000000  0.5549540000000  0.4953220000000 1.0
C      1  0.5227090000000  0.5024280000000  0.3919670000000 1.0
C      1  0.4525400000000  0.5786970000000  0.5475440000000 1.0
C      1  0.4255220000000  0.4580220000000  0.4916870000000 1.0
C      1  0.5588450000000  0.5437790000000  0.5549650000000 1.0
C      1  0.5106710000000  0.4236130000000  0.5616090000000 1.0
C      1  0.4235730000000  0.4844390000000  0.4449490000000 1.0
C      1  0.4812870000000  0.5126170000000  0.5466580000000 1.0
C      1  0.4363210000000  0.4988130000000  0.5693290000000 1.0
C      1  0.5111400000000  0.4722650000000  0.5854160000000 1.0
C      1  0.4971610000000  0.5526810000000  0.5757300000000 1.0
C      1  0.4843080000000  0.5272020000000  0.5707540000000 1.0
C      1  0.4864620000000  0.5128040000000  0.5962430000000 1.0
C      1  0.3963500000000  0.5060050000000  0.5047370000000 1.0
C      1  0.4848170000000  0.4854000000000  0.5907750000000 1.0
C      1  0.5352130000000  0.5348280000000  0.4809950000000 1.0
C      1  0.4465610000000  0.4269250000000  0.5760910000000 1.0
C      1  0.5964140000000  0.4725380000000  0.5116770000000 1.0
C      1  0.5909010000000  0.5371190000000  0.4874240000000 1.0
C      1  0.5069280000000  0.4327420000000  0.4355370000000 1.0
C      1  0.5137250000000  0.5606180000000  0.5548530000000 1.0
C      1  0.4551100000000  0.4215200000000  0.5094070000000 1.0
C      1  0.5544470000000  0.4880340000000  0.4234680000000 1.0
C      1  0.5588390000000  0.4763840000000  0.5625260000000 1.0
C      1  0.4142840000000  0.4869280000000  0.5513790000000 1.0
C      1  0.4645670000000  0.4889970000000  0.4805240000000 1.0
C      1  0.4334380000000  0.5700620000000  0.3548090000000 1.0
C      1  0.5075960000000  0.4994650000000  0.4384810000000 1.0
C      1  0.4964870000000  0.5173390000000  0.4593080000000 1.0
C      1  0.5098770000000  0.4448440000000  0.5777870000000 1.0
C      1  0.4320480000000  0.4180650000000  0.5535860000000 1.0
C      1  0.4958100000000  0.5590580000000  0.4865470000000 1.0
C      1  0.4468690000000  0.4420640000000  0.4258490000000 1.0
C      1  0.5291180000000  0.5572470000000  0.4259990000000 1.0
C      1  0.4569590000000  0.5378560000000  0.5140140000000 1.0
C      1  0.5664080000000  0.4335420000000  0.5426250000000 1.0
C      1  0.5783730000000  0.4981700000000  0.5540750000000 1.0
C      1  0.4483460000000  0.5574350000000  0.3720690000000 1.0
C      1  0.5354670000000  0.4641390000000  0.4925550000000 1.0
C      1  0.5526530000000  0.5516570000000  0.4669510000000 1.0
C      1  0.4673910000000  0.4151600000000  0.4608440000000 1.0
C      1  0.5969730000000  0.5225710000000  0.5119940000000 1.0
C      1  0.5031800000000  0.4961520000000  0.5389190000000 1.0
C      1  0.4675320000000  0.4450920000000  0.4082540000000 1.0
C      1  0.5080430000000  0.5858080000000  0.5439720000000 1.0
C      1  0.4643590000000  0.5141660000000  0.5244460000000 1.0
C      1  0.5899200000000  0.4449470000000  0.5034210000000 1.0
C      1  0.5438470000000  0.5014710000000  0.5179150000000 1.0
C      1  0.5157680000000  0.4086930000000  0.5400510000000 1.0
C      1  0.5262890000000  0.5845370000000  0.4353970000000 1.0
C      1  0.4543080000000  0.4410020000000  0.4532590000000 1.0
C      1  0.4453520000000  0.5573490000000  0.5638970000000 1.0
C      1  0.5926940000000  0.4977510000000  0.5272460000000 1.0
C      1  0.4634030000000  0.5445710000000  0.3896640000000 1.0
C      1  0.5382010000000  0.4849430000000  0.5825000000000 1.0
C      1  0.5336920000000  0.5913170000000  0.4868570000000 1.0
C      1  0.5535210000000  0.4585600000000  0.5415170000000 1.0
C      1  0.5591870000000  0.4670220000000  0.4419280000000 1.0
C      1  0.4889440000000  0.4106220000000  0.4426660000000 1.0
C      1  0.5369220000000  0.4058240000000  0.4922070000000 1.0
C      1  0.5260470000000  0.5130140000000  0.5357600000000 1.0
C      1  0.4659530000000  0.5045600000000  0.4188710000000 1.0
C      1  0.5871510000000  0.4279040000000  0.5261940000000 1.0
C      1  0.5324430000000  0.5972610000000  0.4586920000000 1.0
C      1  0.5841050000000  0.5182470000000  0.4646910000000 1.0
C      1  0.5316320000000  0.5398850000000  0.5460540000000 1.0
C      1  0.4954880000000  0.4705690000000  0.5249610000000 1.0
C      1  0.4786370000000  0.5306150000000  0.4090090000000 1.0
C      1  0.5673020000000  0.5848530000000  0.5260150000000 1.0
C      1  0.5006310000000  0.5555520000000  0.6041400000000 1.0
C      1  0.5320830000000  0.4297710000000  0.4497600000000 1.0
C      1  0.5253250000000  0.4020700000000  0.5159960000000 1.0
C      1  0.4231510000000  0.5389430000000  0.4726450000000 1.0
C      1  0.4888160000000  0.4459730000000  0.4851090000000 1.0
C      1  0.4691850000000  0.5133510000000  0.4671990000000 1.0
C      1  0.4446890000000  0.5254300000000  0.4568050000000 1.0
C      1  0.4455730000000  0.4065590000000  0.5312800000000 1.0
C      1  0.4515910000000  0.5778820000000  0.4966320000000 1.0
C      1  0.5538280000000  0.5465290000000  0.4386950000000 1.0
END
