TITL C-612602-9376-1189 0.203706200075178 125000 -412.229044584894 0 0 71 (C1) n - 1
REM
REM in /home/nfs/bkarasulu/CARBON/AIRSS/Generating-Clusters/TERSOFF/Only-C1/FIRE-HFTN
REM
REM
REM
REM
REM
REM ./C.cell (11c1c37f851c82e70ff6c80c92926a4b)
REM AIRSS Version 0.9.1 bugfix July 2018 build 013d7b7c2542+ Fri, 06 Jul 2018 19:26:36 +0100
REM compiler GCC version 9.2.1 20190827 (Red Hat 9.2.1-1)
REM options -cpp -mtune=generic -march=x86-64 -g -O0 -fpre-include=/usr/include/finclude/math-vector-fortran.h
REM seed 247185547 2098114755 -1007191217 1970404625 -1348720984 -252450239 -53702158 1902687448 -787878541 605860744 2135095363 -155693539 -2057647067 613795567 -1012985106 -2062535085 -678355888 527426550 -75456040 -1236957015 -1183589188 -274349044 -978023122 -1644618207 195152751 -1089069663 -151936557 436987577 -1388906390 -2089245902 390780414 805158440 -1497727060
REM
CELL 1.54180   50.00000   50.00000   50.00000   90.00000   90.00000   90.00000
LATT -1
SFAC C  
C      1  0.4668040000000  0.5602210000000  0.5521620000000 1.0
C      1  0.4754020000000  0.4285430000000  0.5845590000000 1.0
C      1  0.4354480000000  0.4838830000000  0.5042720000000 1.0
C      1  0.5409220000000  0.4755160000000  0.5621160000000 1.0
C      1  0.4762640000000  0.5070810000000  0.4281250000000 1.0
C      1  0.4135850000000  0.4742040000000  0.5179760000000 1.0
C      1  0.5102330000000  0.5385030000000  0.4496630000000 1.0
C      1  0.5299250000000  0.5208620000000  0.4616380000000 1.0
C      1  0.4569590000000  0.4644080000000  0.4395330000000 1.0
C      1  0.4276950000000  0.5760200000000  0.4409570000000 1.0
C      1  0.4394390000000  0.5338070000000  0.4946580000000 1.0
C      1  0.5419090000000  0.4307340000000  0.5246110000000 1.0
C      1  0.5118750000000  0.4995090000000  0.5291660000000 1.0
C      1  0.5059710000000  0.5005090000000  0.5975760000000 1.0
C      1  0.4950970000000  0.4929020000000  0.4810790000000 1.0
C      1  0.5193620000000  0.5841510000000  0.4342030000000 1.0
C      1  0.5643160000000  0.4489320000000  0.5285640000000 1.0
C      1  0.5787220000000  0.4679430000000  0.5122020000000 1.0
C      1  0.5278410000000  0.5147890000000  0.5857470000000 1.0
C      1  0.4707940000000  0.4629560000000  0.5339840000000 1.0
C      1  0.4482850000000  0.4508390000000  0.4174420000000 1.0
C      1  0.5889840000000  0.5185120000000  0.4958180000000 1.0
C      1  0.5480960000000  0.4961250000000  0.5787340000000 1.0
C      1  0.5268590000000  0.4621910000000  0.3451040000000 1.0
C      1  0.5287400000000  0.4183800000000  0.5478450000000 1.0
C      1  0.4958760000000  0.4494150000000  0.5790710000000 1.0
C      1  0.4610560000000  0.4701230000000  0.5079670000000 1.0
C      1  0.5157060000000  0.4787300000000  0.5474390000000 1.0
C      1  0.5143510000000  0.4733680000000  0.3650600000000 1.0
C      1  0.5227250000000  0.5583990000000  0.5540720000000 1.0
C      1  0.4886420000000  0.4955040000000  0.4057630000000 1.0
C      1  0.4984000000000  0.4739630000000  0.5977190000000 1.0
C      1  0.5564980000000  0.5306200000000  0.4627650000000 1.0
C      1  0.5016040000000  0.4846820000000  0.3853580000000 1.0
C      1  0.5166820000000  0.5746420000000  0.4815060000000 1.0
C      1  0.5552510000000  0.5567670000000  0.5030600000000 1.0
C      1  0.4312980000000  0.5068930000000  0.4868730000000 1.0
C      1  0.4824210000000  0.5143860000000  0.4954330000000 1.0
C      1  0.4674240000000  0.4510860000000  0.4621990000000 1.0
C      1  0.4635500000000  0.4239180000000  0.4648680000000 1.0
C      1  0.5617470000000  0.4582220000000  0.5551340000000 1.0
C      1  0.4891570000000  0.3895660000000  0.5568610000000 1.0
C      1  0.4687680000000  0.5542850000000  0.4295520000000 1.0
C      1  0.5564330000000  0.5084290000000  0.5246430000000 1.0
C      1  0.4537800000000  0.5922600000000  0.4046050000000 1.0
C      1  0.5230180000000  0.5014270000000  0.4818660000000 1.0
C      1  0.4855430000000  0.5326680000000  0.4361440000000 1.0
C      1  0.4815680000000  0.4655500000000  0.4847580000000 1.0
C      1  0.5216750000000  0.4330060000000  0.5721060000000 1.0
C      1  0.5039310000000  0.4464970000000  0.4922860000000 1.0
C      1  0.4886100000000  0.5135750000000  0.5229300000000 1.0
C      1  0.4550420000000  0.4927380000000  0.4410350000000 1.0
C      1  0.4398140000000  0.5549620000000  0.5138710000000 1.0
C      1  0.4664170000000  0.5338760000000  0.4844430000000 1.0
C      1  0.5543250000000  0.5221840000000  0.5491360000000 1.0
C      1  0.5285770000000  0.5677660000000  0.5061520000000 1.0
C      1  0.4627660000000  0.5742480000000  0.5094700000000 1.0
C      1  0.5704310000000  0.5385320000000  0.4862670000000 1.0
C      1  0.5149410000000  0.5665750000000  0.4546730000000 1.0
C      1  0.5325290000000  0.5032330000000  0.5098480000000 1.0
C      1  0.5255270000000  0.4346440000000  0.5021530000000 1.0
C      1  0.4920960000000  0.4632740000000  0.5523950000000 1.0
C      1  0.4352120000000  0.5022240000000  0.4588720000000 1.0
C      1  0.4832410000000  0.5718190000000  0.5305090000000 1.0
C      1  0.5794580000000  0.4967640000000  0.5120000000000 1.0
C      1  0.4498760000000  0.5744030000000  0.4249890000000 1.0
C      1  0.5129550000000  0.3948730000000  0.5450520000000 1.0
C      1  0.4422000000000  0.5509610000000  0.5426820000000 1.0
C      1  0.5117010000000  0.5681080000000  0.5298880000000 1.0
C      1  0.4735650000000  0.4036980000000  0.5738130000000 1.0
C      1  0.5340860000000  0.5356180000000  0.5649810000000 1.0
END
