TITL C-612603-7354-1386 0.0818470969845879 125000 -586.014210872548 0 0 98 (C1) n - 1
REM
REM in /home/nfs/bkarasulu/CARBON/AIRSS/Generating-Clusters/TERSOFF/Only-C1/FIRE-HFTN
REM
REM
REM
REM
REM
REM ./C.cell (11c1c37f851c82e70ff6c80c92926a4b)
REM AIRSS Version 0.9.1 bugfix July 2018 build 013d7b7c2542+ Fri, 06 Jul 2018 19:26:36 +0100
REM compiler GCC version 9.2.1 20190827 (Red Hat 9.2.1-1)
REM options -cpp -mtune=generic -march=x86-64 -g -O0 -fpre-include=/usr/include/finclude/math-vector-fortran.h
REM seed 730928309 83190682 -1612407674 2079106527 1589880545 -1434537640 114227043 1286842681 682235214 -403430252 -1460537603 -348497263 1964174696 401840303 837277391 684951542 1315521499 35817213 1158387679 -1505580848 -1547614783 1564272228 592177284 -1100497960 1426261352 -1670054551 801213821 716978214 649852951 592457044 -1616666253 -527817329 2141108490
REM
CELL 1.54180   50.00000   50.00000   50.00000   90.00000   90.00000   90.00000
LATT -1
SFAC C  
C      1  0.4522550000000  0.4884390000000  0.4336230000000 1.0
C      1  0.4745880000000  0.4749700000000  0.4220420000000 1.0
C      1  0.5674840000000  0.4553270000000  0.5215210000000 1.0
C      1  0.5289820000000  0.4868490000000  0.5275040000000 1.0
C      1  0.5383610000000  0.5006720000000  0.6098990000000 1.0
C      1  0.5429920000000  0.5174510000000  0.4890830000000 1.0
C      1  0.4468460000000  0.4578590000000  0.5334940000000 1.0
C      1  0.5558680000000  0.4463530000000  0.4109680000000 1.0
C      1  0.3889370000000  0.5067770000000  0.4936940000000 1.0
C      1  0.6194240000000  0.5463910000000  0.5126700000000 1.0
C      1  0.4214480000000  0.4671990000000  0.4666030000000 1.0
C      1  0.4182280000000  0.5284160000000  0.5435650000000 1.0
C      1  0.4943410000000  0.4545780000000  0.5546920000000 1.0
C      1  0.4854420000000  0.5401580000000  0.5169480000000 1.0
C      1  0.4897160000000  0.5930860000000  0.4441220000000 1.0
C      1  0.5246780000000  0.4274570000000  0.4826690000000 1.0
C      1  0.4342750000000  0.5115630000000  0.4781300000000 1.0
C      1  0.5194360000000  0.4214650000000  0.5084060000000 1.0
C      1  0.4993050000000  0.4900290000000  0.4197160000000 1.0
C      1  0.4702400000000  0.4767700000000  0.4759170000000 1.0
C      1  0.4694530000000  0.3858090000000  0.4298340000000 1.0
C      1  0.4484080000000  0.5686760000000  0.5611400000000 1.0
C      1  0.5177120000000  0.5615790000000  0.5605160000000 1.0
C      1  0.4770810000000  0.5647720000000  0.5063210000000 1.0
C      1  0.5729450000000  0.5074670000000  0.5736250000000 1.0
C      1  0.5052870000000  0.5387290000000  0.6017620000000 1.0
C      1  0.5558220000000  0.4784760000000  0.5328980000000 1.0
C      1  0.4699990000000  0.3925670000000  0.4778650000000 1.0
C      1  0.5273350000000  0.5547660000000  0.5348860000000 1.0
C      1  0.5607840000000  0.5111510000000  0.5971260000000 1.0
C      1  0.5118080000000  0.5132470000000  0.6111970000000 1.0
C      1  0.5079410000000  0.4786980000000  0.5454790000000 1.0
C      1  0.4498350000000  0.4941480000000  0.5652430000000 1.0
C      1  0.5458460000000  0.4714980000000  0.4149760000000 1.0
C      1  0.4510330000000  0.5878710000000  0.5404370000000 1.0
C      1  0.4403300000000  0.5371820000000  0.4685890000000 1.0
C      1  0.4870520000000  0.6436170000000  0.4242220000000 1.0
C      1  0.4632220000000  0.5854320000000  0.5165400000000 1.0
C      1  0.5176150000000  0.5335860000000  0.4422090000000 1.0
C      1  0.4648980000000  0.4539670000000  0.4913110000000 1.0
C      1  0.5470860000000  0.5668650000000  0.5182540000000 1.0
C      1  0.4861200000000  0.6679010000000  0.4147850000000 1.0
C      1  0.5062040000000  0.4653080000000  0.6046680000000 1.0
C      1  0.4683530000000  0.5264590000000  0.5341290000000 1.0
C      1  0.5159270000000  0.4656780000000  0.4556920000000 1.0
C      1  0.4364270000000  0.4831730000000  0.5424920000000 1.0
C      1  0.4736290000000  0.4165370000000  0.5297170000000 1.0
C      1  0.5121300000000  0.4376930000000  0.4598300000000 1.0
C      1  0.5386760000000  0.5854510000000  0.4988100000000 1.0
C      1  0.4279430000000  0.5493280000000  0.5575130000000 1.0
C      1  0.4972500000000  0.4062640000000  0.5163960000000 1.0
C      1  0.5589880000000  0.4937900000000  0.4040790000000 1.0
C      1  0.5016850000000  0.5177710000000  0.4248610000000 1.0
C      1  0.4909870000000  0.3867090000000  0.4962090000000 1.0
C      1  0.5126550000000  0.5342470000000  0.5212000000000 1.0
C      1  0.5340440000000  0.4719040000000  0.6097860000000 1.0
C      1  0.4452620000000  0.3956000000000  0.4921870000000 1.0
C      1  0.4158230000000  0.5069690000000  0.5000200000000 1.0
C      1  0.4185190000000  0.4531070000000  0.4898000000000 1.0
C      1  0.5279950000000  0.5894610000000  0.4746860000000 1.0
C      1  0.5309490000000  0.5219210000000  0.4641380000000 1.0
C      1  0.4667020000000  0.5775640000000  0.4477950000000 1.0
C      1  0.5249400000000  0.5603490000000  0.4354890000000 1.0
C      1  0.5641750000000  0.5192380000000  0.3982890000000 1.0
C      1  0.5705390000000  0.5518780000000  0.5124710000000 1.0
C      1  0.6176940000000  0.5256210000000  0.4951260000000 1.0
C      1  0.4224070000000  0.5045390000000  0.5279040000000 1.0
C      1  0.5865300000000  0.4549080000000  0.4710300000000 1.0
C      1  0.5685430000000  0.5284330000000  0.4950260000000 1.0
C      1  0.4628310000000  0.3706370000000  0.4097070000000 1.0
C      1  0.5709130000000  0.4942450000000  0.5505990000000 1.0
C      1  0.4769970000000  0.4465570000000  0.4273980000000 1.0
C      1  0.4983530000000  0.4498130000000  0.5825900000000 1.0
C      1  0.4413260000000  0.4905910000000  0.5908050000000 1.0
C      1  0.4712380000000  0.4429430000000  0.5419290000000 1.0
C      1  0.5706430000000  0.4327580000000  0.5366930000000 1.0
C      1  0.4932880000000  0.4905960000000  0.6120090000000 1.0
C      1  0.5967040000000  0.5588030000000  0.5210820000000 1.0
C      1  0.4714020000000  0.5644100000000  0.5772360000000 1.0
C      1  0.5767970000000  0.4561020000000  0.4951750000000 1.0
C      1  0.4207560000000  0.3900510000000  0.4817410000000 1.0
C      1  0.5593230000000  0.5452860000000  0.4014310000000 1.0
C      1  0.4760310000000  0.4022590000000  0.4515600000000 1.0
C      1  0.4714790000000  0.5102740000000  0.5568470000000 1.0
C      1  0.4973430000000  0.5006110000000  0.5599940000000 1.0
C      1  0.4444630000000  0.4875440000000  0.4625890000000 1.0
C      1  0.4973950000000  0.4816080000000  0.4705790000000 1.0
C      1  0.4411630000000  0.4515250000000  0.5064510000000 1.0
C      1  0.5149730000000  0.5819230000000  0.4509640000000 1.0
C      1  0.5263900000000  0.5111580000000  0.5116520000000 1.0
C      1  0.4984500000000  0.5564900000000  0.5808670000000 1.0
C      1  0.5219740000000  0.4752080000000  0.4295710000000 1.0
C      1  0.4504310000000  0.5582850000000  0.4560580000000 1.0
C      1  0.4496330000000  0.4042320000000  0.5192350000000 1.0
C      1  0.5442440000000  0.5625920000000  0.4152220000000 1.0
C      1  0.4887200000000  0.4275120000000  0.4458910000000 1.0
C      1  0.4880520000000  0.6189450000000  0.4338240000000 1.0
C      1  0.5932550000000  0.5173280000000  0.4864780000000 1.0
END
