TITL C-612607-4507-1277 0.518948963662333 125000 -894.837181417288 0 0 146 (C1) n - 1
REM
REM in /home/nfs/bkarasulu/CARBON/AIRSS/Generating-Clusters/TERSOFF/Only-C1/FIRE-HFTN
REM
REM
REM
REM
REM
REM ./C.cell (11c1c37f851c82e70ff6c80c92926a4b)
REM AIRSS Version 0.9.1 bugfix July 2018 build 013d7b7c2542+ Fri, 06 Jul 2018 19:26:36 +0100
REM compiler GCC version 9.2.1 20190827 (Red Hat 9.2.1-1)
REM options -cpp -mtune=generic -march=x86-64 -g -O0 -fpre-include=/usr/include/finclude/math-vector-fortran.h
REM seed -86631674 1305838334 -476672731 545909414 -2019489180 1092364351 -1706848617 -130492598 688102176 -649411098 808140827 -734998378 -522809396 1993577967 -156443945 505164061 -1781687817 -2125544632 2113284257 -1931128825 1507504052 -328170768 -1077504624 980413082 -269160773 -816355292 -1104279375 -689805196 879310269 -1012025963 -789586403 447371292 -573535297
REM
CELL 1.54180   50.00000   50.00000   50.00000   90.00000   90.00000   90.00000
LATT -1
SFAC C  
C      1  0.5655820000000  0.4897460000000  0.4757020000000 1.0
C      1  0.4187920000000  0.3966740000000  0.5228710000000 1.0
C      1  0.5646360000000  0.5176910000000  0.4652130000000 1.0
C      1  0.4982400000000  0.3801480000000  0.4753470000000 1.0
C      1  0.4905720000000  0.4004600000000  0.4597460000000 1.0
C      1  0.4736600000000  0.4688080000000  0.5289680000000 1.0
C      1  0.5545580000000  0.4630670000000  0.4294840000000 1.0
C      1  0.5077150000000  0.4477770000000  0.4101350000000 1.0
C      1  0.4092080000000  0.5052870000000  0.5482450000000 1.0
C      1  0.5738760000000  0.3636380000000  0.5701000000000 1.0
C      1  0.4109400000000  0.4197640000000  0.4541070000000 1.0
C      1  0.5111160000000  0.4933970000000  0.4228510000000 1.0
C      1  0.5041290000000  0.5802660000000  0.5020090000000 1.0
C      1  0.5401610000000  0.5318700000000  0.4246140000000 1.0
C      1  0.3919230000000  0.5114510000000  0.4859770000000 1.0
C      1  0.4346860000000  0.4387730000000  0.5067150000000 1.0
C      1  0.4786890000000  0.5965700000000  0.4664800000000 1.0
C      1  0.5851570000000  0.5100120000000  0.6203500000000 1.0
C      1  0.5180130000000  0.4009210000000  0.4151920000000 1.0
C      1  0.5179810000000  0.3742380000000  0.4102930000000 1.0
C      1  0.5077770000000  0.5178610000000  0.5145480000000 1.0
C      1  0.5428070000000  0.4150230000000  0.4597190000000 1.0
C      1  0.5405980000000  0.5305120000000  0.4529380000000 1.0
C      1  0.4862800000000  0.4177180000000  0.5301910000000 1.0
C      1  0.5376860000000  0.4423300000000  0.4696800000000 1.0
C      1  0.5289900000000  0.5203100000000  0.3813700000000 1.0
C      1  0.4405310000000  0.5638510000000  0.4680600000000 1.0
C      1  0.4845220000000  0.5842350000000  0.4127860000000 1.0
C      1  0.5536740000000  0.4837760000000  0.5253220000000 1.0
C      1  0.4701180000000  0.4861520000000  0.5067690000000 1.0
C      1  0.4820850000000  0.6147630000000  0.5433250000000 1.0
C      1  0.4615300000000  0.5217920000000  0.6062560000000 1.0
C      1  0.4616490000000  0.5732580000000  0.4254470000000 1.0
C      1  0.5299070000000  0.6131870000000  0.5654390000000 1.0
C      1  0.4881570000000  0.5628670000000  0.5198410000000 1.0
C      1  0.4365720000000  0.5354330000000  0.6099000000000 1.0
C      1  0.4369830000000  0.5426000000000  0.5614010000000 1.0
C      1  0.5768360000000  0.5267950000000  0.6016260000000 1.0
C      1  0.4191390000000  0.5760360000000  0.5216630000000 1.0
C      1  0.5425700000000  0.6325750000000  0.5496610000000 1.0
C      1  0.5807810000000  0.4045780000000  0.4864720000000 1.0
C      1  0.5380540000000  0.4298340000000  0.5871720000000 1.0
C      1  0.6000090000000  0.4749900000000  0.6566420000000 1.0
C      1  0.5593820000000  0.5704090000000  0.5853080000000 1.0
C      1  0.4661650000000  0.5138000000000  0.4562990000000 1.0
C      1  0.4127610000000  0.4218680000000  0.5120620000000 1.0
C      1  0.4675560000000  0.4846100000000  0.4578270000000 1.0
C      1  0.4496980000000  0.4491750000000  0.4857760000000 1.0
C      1  0.3931040000000  0.4372410000000  0.4698250000000 1.0
C      1  0.5068270000000  0.5899130000000  0.4271730000000 1.0
C      1  0.5515850000000  0.5809420000000  0.4772980000000 1.0
C      1  0.5059920000000  0.4889900000000  0.5563020000000 1.0
C      1  0.5005360000000  0.6127340000000  0.5658600000000 1.0
C      1  0.5127290000000  0.4435370000000  0.4826280000000 1.0
C      1  0.5029290000000  0.4606690000000  0.6008670000000 1.0
C      1  0.4889400000000  0.3910220000000  0.5210940000000 1.0
C      1  0.5053480000000  0.5894300000000  0.4552910000000 1.0
C      1  0.4603750000000  0.4745870000000  0.4833590000000 1.0
C      1  0.4543710000000  0.5466640000000  0.4196230000000 1.0
C      1  0.4669130000000  0.6070270000000  0.5195200000000 1.0
C      1  0.5523410000000  0.5518140000000  0.5374010000000 1.0
C      1  0.5611470000000  0.5426050000000  0.4066280000000 1.0
C      1  0.4255910000000  0.5467690000000  0.5875370000000 1.0
C      1  0.4938690000000  0.4717900000000  0.4161430000000 1.0
C      1  0.4604810000000  0.4932330000000  0.6034010000000 1.0
C      1  0.6049060000000  0.4448350000000  0.5045950000000 1.0
C      1  0.4687260000000  0.4763170000000  0.4289250000000 1.0
C      1  0.5260630000000  0.5329530000000  0.4986570000000 1.0
C      1  0.5603410000000  0.5306460000000  0.5550990000000 1.0
C      1  0.4655490000000  0.3755510000000  0.5249420000000 1.0
C      1  0.5982410000000  0.5428510000000  0.4405440000000 1.0
C      1  0.4822840000000  0.4760940000000  0.6083230000000 1.0
C      1  0.5221080000000  0.5146600000000  0.4086970000000 1.0
C      1  0.4874970000000  0.5533540000000  0.5460530000000 1.0
C      1  0.5218380000000  0.5742940000000  0.4759950000000 1.0
C      1  0.5487950000000  0.5434560000000  0.5114240000000 1.0
C      1  0.5164560000000  0.4889930000000  0.4757680000000 1.0
C      1  0.5166990000000  0.4930310000000  0.4502500000000 1.0
C      1  0.5927260000000  0.4924350000000  0.6386890000000 1.0
C      1  0.5643370000000  0.6647050000000  0.5142230000000 1.0
C      1  0.5897740000000  0.4839540000000  0.3942690000000 1.0
C      1  0.5340280000000  0.4620940000000  0.5297390000000 1.0
C      1  0.5837940000000  0.5403310000000  0.4648530000000 1.0
C      1  0.5603920000000  0.4628470000000  0.4595450000000 1.0
C      1  0.4111770000000  0.5478000000000  0.5189200000000 1.0
C      1  0.5479580000000  0.5070740000000  0.5426290000000 1.0
C      1  0.4137120000000  0.5547750000000  0.4702750000000 1.0
C      1  0.3899670000000  0.4286630000000  0.4965830000000 1.0
C      1  0.4033890000000  0.5038880000000  0.4368970000000 1.0
C      1  0.4382070000000  0.4841480000000  0.5883230000000 1.0
C      1  0.4856940000000  0.4274490000000  0.4651590000000 1.0
C      1  0.4822450000000  0.5115200000000  0.5030340000000 1.0
C      1  0.4389940000000  0.3793490000000  0.5261950000000 1.0
C      1  0.5218950000000  0.4511690000000  0.5819450000000 1.0
C      1  0.4780500000000  0.5366510000000  0.5885400000000 1.0
C      1  0.4223510000000  0.4860260000000  0.4243130000000 1.0
C      1  0.3795490000000  0.4993520000000  0.5082810000000 1.0
C      1  0.5624950000000  0.3695370000000  0.5474000000000 1.0
C      1  0.5467530000000  0.5942880000000  0.5801420000000 1.0
C      1  0.5871160000000  0.5464810000000  0.4161960000000 1.0
C      1  0.5533620000000  0.3984230000000  0.4808010000000 1.0
C      1  0.4205890000000  0.4610090000000  0.4392300000000 1.0
C      1  0.5536560000000  0.6490220000000  0.5321000000000 1.0
C      1  0.4657680000000  0.5418060000000  0.5614590000000 1.0
C      1  0.4903860000000  0.6041260000000  0.5910500000000 1.0
C      1  0.4616650000000  0.5630230000000  0.5101280000000 1.0
C      1  0.5182420000000  0.5089920000000  0.5403160000000 1.0
C      1  0.5856660000000  0.4454800000000  0.4619440000000 1.0
C      1  0.4833830000000  0.6019800000000  0.4952330000000 1.0
C      1  0.4560030000000  0.5208910000000  0.4298850000000 1.0
C      1  0.5660070000000  0.5421750000000  0.5810810000000 1.0
C      1  0.4574850000000  0.4343600000000  0.4627390000000 1.0
C      1  0.5321570000000  0.5672390000000  0.5488590000000 1.0
C      1  0.5943750000000  0.4292210000000  0.4836120000000 1.0
C      1  0.5967380000000  0.4701500000000  0.5095910000000 1.0
C      1  0.5711980000000  0.4764570000000  0.4116080000000 1.0
C      1  0.5725630000000  0.4840440000000  0.5040190000000 1.0
C      1  0.5140730000000  0.4504180000000  0.5108140000000 1.0
C      1  0.3985790000000  0.4648380000000  0.4608100000000 1.0
C      1  0.5739890000000  0.5653690000000  0.4754600000000 1.0
C      1  0.3944390000000  0.4944380000000  0.4628940000000 1.0
C      1  0.5235210000000  0.5436810000000  0.4720690000000 1.0
C      1  0.5094270000000  0.5596530000000  0.5629590000000 1.0
C      1  0.4341340000000  0.4348580000000  0.4446890000000 1.0
C      1  0.5507720000000  0.3762910000000  0.5246230000000 1.0
C      1  0.4943970000000  0.5804500000000  0.6035980000000 1.0
C      1  0.4484190000000  0.4948490000000  0.4180290000000 1.0
C      1  0.3874830000000  0.4956780000000  0.5335070000000 1.0
C      1  0.4994930000000  0.5561130000000  0.5901940000000 1.0
C      1  0.5374570000000  0.3860980000000  0.5019910000000 1.0
C      1  0.4210170000000  0.4897900000000  0.5685850000000 1.0
C      1  0.5228350000000  0.4651510000000  0.5573560000000 1.0
C      1  0.4569150000000  0.5499720000000  0.4864650000000 1.0
C      1  0.5349850000000  0.4438860000000  0.4213020000000 1.0
C      1  0.4789950000000  0.4824950000000  0.5528390000000 1.0
C      1  0.4038200000000  0.5378550000000  0.4915690000000 1.0
C      1  0.4891380000000  0.4448720000000  0.5242710000000 1.0
C      1  0.6080550000000  0.4911990000000  0.3771550000000 1.0
C      1  0.4459850000000  0.5855810000000  0.5195490000000 1.0
C      1  0.4193670000000  0.5314170000000  0.5416080000000 1.0
C      1  0.4703040000000  0.5263570000000  0.4811360000000 1.0
C      1  0.4999300000000  0.4206540000000  0.4039640000000 1.0
C      1  0.5370670000000  0.4156300000000  0.4315840000000 1.0
C      1  0.5514000000000  0.5365320000000  0.3801110000000 1.0
C      1  0.4563340000000  0.5823710000000  0.4526690000000 1.0
C      1  0.5088000000000  0.3836740000000  0.5012680000000 1.0
END
