TITL C-612604-1799-961 0.00183919775296177 125000 -503.280057454513 0 0 84 (C1) n - 1
REM
REM in /home/nfs/bkarasulu/CARBON/AIRSS/Generating-Clusters/TERSOFF/Only-C1/FIRE-HFTN
REM
REM
REM
REM
REM
REM ./C.cell (11c1c37f851c82e70ff6c80c92926a4b)
REM AIRSS Version 0.9.1 bugfix July 2018 build 013d7b7c2542+ Fri, 06 Jul 2018 19:26:36 +0100
REM compiler GCC version 9.2.1 20190827 (Red Hat 9.2.1-1)
REM options -cpp -mtune=generic -march=x86-64 -g -O0 -fpre-include=/usr/include/finclude/math-vector-fortran.h
REM seed 332937105 803764621 642123743 -415851064 -300522930 -524894551 -791114671 1948633922 -487199704 -1498656775 1832790431 793712624 1623429158 1837153315 -1437661394 1012648513 1775800560 1898363376 1285563185 -1648985886 -2033010764 -555215654 -1723046155 1152286614 2094514627 -1239134684 -1396706960 1273014641 570698924 -2053349357 1389080037 299035794 -2072347297
REM
CELL 1.54180   50.00000   50.00000   50.00000   90.00000   90.00000   90.00000
LATT -1
SFAC C  
C      1  0.5551260000000  0.4673230000000  0.4702620000000 1.0
C      1  0.4806020000000  0.4883270000000  0.4140210000000 1.0
C      1  0.4249700000000  0.4598680000000  0.4285160000000 1.0
C      1  0.5745300000000  0.5525540000000  0.4971620000000 1.0
C      1  0.4894640000000  0.5155790000000  0.4709920000000 1.0
C      1  0.4643510000000  0.4935010000000  0.5324800000000 1.0
C      1  0.4079650000000  0.4807810000000  0.5501460000000 1.0
C      1  0.5342000000000  0.5638810000000  0.4682910000000 1.0
C      1  0.4181160000000  0.5023790000000  0.4816250000000 1.0
C      1  0.5193860000000  0.5753000000000  0.5419630000000 1.0
C      1  0.4396590000000  0.5099680000000  0.4673270000000 1.0
C      1  0.5494860000000  0.4799720000000  0.4956300000000 1.0
C      1  0.5232090000000  0.4695780000000  0.4014050000000 1.0
C      1  0.5569380000000  0.5513600000000  0.5196850000000 1.0
C      1  0.4930090000000  0.4341850000000  0.4467290000000 1.0
C      1  0.5139110000000  0.4485190000000  0.5271590000000 1.0
C      1  0.5069060000000  0.5861830000000  0.4355910000000 1.0
C      1  0.5615400000000  0.5580410000000  0.4725930000000 1.0
C      1  0.4928140000000  0.4627080000000  0.4554370000000 1.0
C      1  0.4902740000000  0.5290880000000  0.4966980000000 1.0
C      1  0.5534140000000  0.4685420000000  0.5704290000000 1.0
C      1  0.4037640000000  0.4385350000000  0.4929240000000 1.0
C      1  0.5057230000000  0.5275350000000  0.5640890000000 1.0
C      1  0.5110880000000  0.5071630000000  0.5422060000000 1.0
C      1  0.4933360000000  0.5569250000000  0.4951770000000 1.0
C      1  0.5193570000000  0.5677830000000  0.4929850000000 1.0
C      1  0.5217520000000  0.5128120000000  0.4218400000000 1.0
C      1  0.4423160000000  0.4440150000000  0.5498370000000 1.0
C      1  0.5096110000000  0.4164690000000  0.4922770000000 1.0
C      1  0.6274990000000  0.5441320000000  0.5016130000000 1.0
C      1  0.6019440000000  0.5486410000000  0.4992090000000 1.0
C      1  0.4711320000000  0.4806080000000  0.4413750000000 1.0
C      1  0.5093620000000  0.5166600000000  0.5900710000000 1.0
C      1  0.4097180000000  0.4808130000000  0.5782050000000 1.0
C      1  0.5543670000000  0.4804920000000  0.5449150000000 1.0
C      1  0.4662830000000  0.5052330000000  0.4584540000000 1.0
C      1  0.4876830000000  0.6259120000000  0.5175290000000 1.0
C      1  0.6193930000000  0.4140130000000  0.5136360000000 1.0
C      1  0.4935980000000  0.4620600000000  0.4846460000000 1.0
C      1  0.4646070000000  0.4632640000000  0.4908520000000 1.0
C      1  0.5295950000000  0.3985790000000  0.4887170000000 1.0
C      1  0.4850460000000  0.6286460000000  0.4912700000000 1.0
C      1  0.5231510000000  0.4958220000000  0.6002010000000 1.0
C      1  0.5401640000000  0.4763770000000  0.5926380000000 1.0
C      1  0.4203330000000  0.4571600000000  0.5363150000000 1.0
C      1  0.6017130000000  0.4330450000000  0.5158180000000 1.0
C      1  0.4868120000000  0.6228090000000  0.4654160000000 1.0
C      1  0.4922060000000  0.6161030000000  0.5433510000000 1.0
C      1  0.4682990000000  0.4183990000000  0.5160200000000 1.0
C      1  0.4469470000000  0.4617210000000  0.4451450000000 1.0
C      1  0.5327920000000  0.4548350000000  0.4243280000000 1.0
C      1  0.4562390000000  0.4823700000000  0.5093330000000 1.0
C      1  0.4887600000000  0.4850410000000  0.5446080000000 1.0
C      1  0.4250810000000  0.4628300000000  0.5916120000000 1.0
C      1  0.5335080000000  0.5679840000000  0.5182040000000 1.0
C      1  0.4712370000000  0.4231020000000  0.4651320000000 1.0
C      1  0.5165980000000  0.6025960000000  0.5491230000000 1.0
C      1  0.5170700000000  0.4317030000000  0.4316250000000 1.0
C      1  0.5092380000000  0.5136380000000  0.5126270000000 1.0
C      1  0.4113990000000  0.4594230000000  0.5086260000000 1.0
C      1  0.5219940000000  0.5408550000000  0.4248310000000 1.0
C      1  0.5563920000000  0.5293460000000  0.5372300000000 1.0
C      1  0.5282710000000  0.4996680000000  0.4946600000000 1.0
C      1  0.5075200000000  0.4934050000000  0.4056440000000 1.0
C      1  0.5218700000000  0.5633680000000  0.4422500000000 1.0
C      1  0.5167960000000  0.5053110000000  0.4684920000000 1.0
C      1  0.4526600000000  0.4463740000000  0.4692810000000 1.0
C      1  0.4402020000000  0.4445760000000  0.5782740000000 1.0
C      1  0.4733260000000  0.6192700000000  0.5629110000000 1.0
C      1  0.4675860000000  0.4381520000000  0.5375600000000 1.0
C      1  0.4001010000000  0.4986630000000  0.5290660000000 1.0
C      1  0.4810040000000  0.4122380000000  0.4905330000000 1.0
C      1  0.5306860000000  0.4988070000000  0.4451070000000 1.0
C      1  0.5076230000000  0.5547840000000  0.5573750000000 1.0
C      1  0.4035780000000  0.4589810000000  0.4136650000000 1.0
C      1  0.5431900000000  0.4726660000000  0.4450510000000 1.0
C      1  0.5626380000000  0.4706600000000  0.5195150000000 1.0
C      1  0.4063180000000  0.4879780000000  0.5027000000000 1.0
C      1  0.5371670000000  0.6158490000000  0.5613960000000 1.0
C      1  0.4943390000000  0.6077510000000  0.4448340000000 1.0
C      1  0.5834270000000  0.4521090000000  0.5178180000000 1.0
C      1  0.5114960000000  0.4443710000000  0.4994000000000 1.0
C      1  0.4912140000000  0.4560580000000  0.5422320000000 1.0
C      1  0.5420130000000  0.5058730000000  0.5440820000000 1.0
END
