TITL C-612605-9286-214 0.000430234061937825 125000 -856.120673723569 0 0 141 (C1) n - 1
REM
REM in /home/nfs/bkarasulu/CARBON/AIRSS/Generating-Clusters/TERSOFF/Only-C1/FIRE-HFTN
REM
REM
REM
REM
REM
REM ./C.cell (11c1c37f851c82e70ff6c80c92926a4b)
REM AIRSS Version 0.9.1 bugfix July 2018 build 013d7b7c2542+ Fri, 06 Jul 2018 19:26:36 +0100
REM compiler GCC version 9.2.1 20190827 (Red Hat 9.2.1-1)
REM options -cpp -mtune=generic -march=x86-64 -g -O0 -fpre-include=/usr/include/finclude/math-vector-fortran.h
REM seed -100132848 1010364914 -1503759729 -1170291367 -1253519721 104479145 2123115545 -203000694 1824736365 -1711517921 868938971 -465449824 347460834 -1658398171 -1968093804 666376009 1739170126 1226000691 1889041051 633274904 1956782315 263666844 935407959 243172069 -1395374124 -466332946 -863244668 1711946660 1435198993 1517932719 -1864669909 1276366 -1733606999
REM
CELL 1.54180   50.00000   50.00000   50.00000   90.00000   90.00000   90.00000
LATT -1
SFAC C  
C      1  0.6099340000000  0.5466530000000  0.4665020000000 1.0
C      1  0.5070480000000  0.4572690000000  0.4971750000000 1.0
C      1  0.5199330000000  0.5408040000000  0.4715320000000 1.0
C      1  0.5050070000000  0.5401990000000  0.6082410000000 1.0
C      1  0.4200260000000  0.4494750000000  0.5347910000000 1.0
C      1  0.4714170000000  0.5580050000000  0.4597940000000 1.0
C      1  0.4632760000000  0.5957600000000  0.5205340000000 1.0
C      1  0.5087800000000  0.4234010000000  0.5919790000000 1.0
C      1  0.4837780000000  0.4458250000000  0.4882760000000 1.0
C      1  0.4859450000000  0.5809710000000  0.5815630000000 1.0
C      1  0.5476900000000  0.4759060000000  0.5998640000000 1.0
C      1  0.5412040000000  0.5123400000000  0.5430170000000 1.0
C      1  0.4432620000000  0.5200040000000  0.4180710000000 1.0
C      1  0.4305780000000  0.4942380000000  0.4159130000000 1.0
C      1  0.5566190000000  0.5698000000000  0.4197020000000 1.0
C      1  0.5467550000000  0.5794770000000  0.4451240000000 1.0
C      1  0.5618630000000  0.4726840000000  0.4025260000000 1.0
C      1  0.5600540000000  0.4555370000000  0.4492510000000 1.0
C      1  0.4629990000000  0.4626020000000  0.5318700000000 1.0
C      1  0.5180800000000  0.4533250000000  0.4027380000000 1.0
C      1  0.4739890000000  0.5219850000000  0.5696100000000 1.0
C      1  0.4573700000000  0.5440290000000  0.5737190000000 1.0
C      1  0.6105600000000  0.5264920000000  0.4862400000000 1.0
C      1  0.6169720000000  0.4982100000000  0.4840090000000 1.0
C      1  0.5174760000000  0.4299300000000  0.4483000000000 1.0
C      1  0.4236240000000  0.5161640000000  0.4682830000000 1.0
C      1  0.4268880000000  0.5141410000000  0.5430980000000 1.0
C      1  0.4618840000000  0.5693780000000  0.4831200000000 1.0
C      1  0.4285440000000  0.5436290000000  0.4134160000000 1.0
C      1  0.4576340000000  0.3953500000000  0.4689050000000 1.0
C      1  0.4097480000000  0.4901010000000  0.4638530000000 1.0
C      1  0.5020270000000  0.5140430000000  0.6163760000000 1.0
C      1  0.5203070000000  0.4696350000000  0.6039590000000 1.0
C      1  0.5340360000000  0.4482310000000  0.4915350000000 1.0
C      1  0.4840970000000  0.3983810000000  0.4785490000000 1.0
C      1  0.4360740000000  0.4050180000000  0.4561830000000 1.0
C      1  0.4379810000000  0.5676240000000  0.4212240000000 1.0
C      1  0.4008720000000  0.4826030000000  0.4927510000000 1.0
C      1  0.5670090000000  0.5743110000000  0.4666230000000 1.0
C      1  0.5047220000000  0.4608810000000  0.5591470000000 1.0
C      1  0.4340020000000  0.5038420000000  0.6093650000000 1.0
C      1  0.5707450000000  0.5684080000000  0.5400950000000 1.0
C      1  0.4924900000000  0.5379120000000  0.4611380000000 1.0
C      1  0.4935160000000  0.4042620000000  0.5809720000000 1.0
C      1  0.5634340000000  0.4829680000000  0.4563710000000 1.0
C      1  0.5054690000000  0.4461900000000  0.4270060000000 1.0
C      1  0.5035120000000  0.4081070000000  0.4600510000000 1.0
C      1  0.5741500000000  0.4299790000000  0.5436840000000 1.0
C      1  0.5993410000000  0.5343660000000  0.5117300000000 1.0
C      1  0.4894660000000  0.3978820000000  0.5065240000000 1.0
C      1  0.4550430000000  0.4910820000000  0.5978370000000 1.0
C      1  0.5116240000000  0.4502580000000  0.5848290000000 1.0
C      1  0.5169920000000  0.5701520000000  0.5129420000000 1.0
C      1  0.3996280000000  0.5312200000000  0.5079700000000 1.0
C      1  0.5450340000000  0.4862050000000  0.5531630000000 1.0
C      1  0.4371240000000  0.4828600000000  0.3905270000000 1.0
C      1  0.5618810000000  0.5277130000000  0.4411530000000 1.0
C      1  0.4502170000000  0.5079880000000  0.4738690000000 1.0
C      1  0.5263630000000  0.4679560000000  0.5372190000000 1.0
C      1  0.5396810000000  0.4413050000000  0.4638530000000 1.0
C      1  0.5753770000000  0.5015930000000  0.4378360000000 1.0
C      1  0.4558950000000  0.4832250000000  0.4858680000000 1.0
C      1  0.4464680000000  0.4804890000000  0.5133180000000 1.0
C      1  0.4784620000000  0.5062210000000  0.3709970000000 1.0
C      1  0.5503560000000  0.4138570000000  0.5393220000000 1.0
C      1  0.5227460000000  0.5001180000000  0.3877790000000 1.0
C      1  0.5940150000000  0.5676550000000  0.4602380000000 1.0
C      1  0.5157040000000  0.4858490000000  0.4642370000000 1.0
C      1  0.5004810000000  0.5176560000000  0.3853770000000 1.0
C      1  0.4335920000000  0.4525730000000  0.4399860000000 1.0
C      1  0.4180560000000  0.4681210000000  0.5118860000000 1.0
C      1  0.4226050000000  0.5665940000000  0.5373000000000 1.0
C      1  0.4609180000000  0.4560330000000  0.4470230000000 1.0
C      1  0.4748520000000  0.5920470000000  0.4935310000000 1.0
C      1  0.5639150000000  0.5429880000000  0.4165710000000 1.0
C      1  0.4980690000000  0.5052270000000  0.5215650000000 1.0
C      1  0.5406720000000  0.4969400000000  0.4672510000000 1.0
C      1  0.4756730000000  0.5462430000000  0.5212960000000 1.0
C      1  0.4928200000000  0.5378580000000  0.4057170000000 1.0
C      1  0.4877070000000  0.6337920000000  0.5928940000000 1.0
C      1  0.4012440000000  0.5844500000000  0.5385520000000 1.0
C      1  0.4805310000000  0.4076830000000  0.5559720000000 1.0
C      1  0.5729530000000  0.5234360000000  0.3972830000000 1.0
C      1  0.5731700000000  0.5501840000000  0.5155030000000 1.0
C      1  0.4848270000000  0.4646080000000  0.4348580000000 1.0
C      1  0.5337790000000  0.5686920000000  0.5786870000000 1.0
C      1  0.4560510000000  0.4235000000000  0.5577340000000 1.0
C      1  0.4207720000000  0.4623990000000  0.5620360000000 1.0
C      1  0.4867840000000  0.6082230000000  0.5879540000000 1.0
C      1  0.4853940000000  0.5153010000000  0.4446540000000 1.0
C      1  0.4986910000000  0.4848280000000  0.6152780000000 1.0
C      1  0.4476810000000  0.4378460000000  0.5344980000000 1.0
C      1  0.3871430000000  0.5050300000000  0.5059750000000 1.0
C      1  0.4952240000000  0.5636010000000  0.5262060000000 1.0
C      1  0.4246020000000  0.4262210000000  0.4440650000000 1.0
C      1  0.5031350000000  0.5650020000000  0.4151970000000 1.0
C      1  0.5004920000000  0.5948000000000  0.4686570000000 1.0
C      1  0.6017850000000  0.5132380000000  0.5310170000000 1.0
C      1  0.5479630000000  0.4579830000000  0.5154390000000 1.0
C      1  0.4442800000000  0.4408940000000  0.5794380000000 1.0
C      1  0.4947570000000  0.4890560000000  0.4463480000000 1.0
C      1  0.6166320000000  0.4719290000000  0.4919820000000 1.0
C      1  0.4566450000000  0.4905660000000  0.3733710000000 1.0
C      1  0.5272330000000  0.3966150000000  0.5384130000000 1.0
C      1  0.4779040000000  0.4729920000000  0.5548570000000 1.0
C      1  0.5326880000000  0.3697910000000  0.5430390000000 1.0
C      1  0.4198120000000  0.4779160000000  0.4383130000000 1.0
C      1  0.5561100000000  0.5270270000000  0.5253020000000 1.0
C      1  0.4731030000000  0.5188620000000  0.5197190000000 1.0
C      1  0.4633130000000  0.5707660000000  0.5664300000000 1.0
C      1  0.5953010000000  0.4340900000000  0.5239270000000 1.0
C      1  0.5344290000000  0.4749820000000  0.3941670000000 1.0
C      1  0.4668750000000  0.4949000000000  0.5721260000000 1.0
C      1  0.5592750000000  0.4725680000000  0.5739530000000 1.0
C      1  0.5756760000000  0.4968000000000  0.4087800000000 1.0
C      1  0.5714580000000  0.4735340000000  0.5166310000000 1.0
C      1  0.5169030000000  0.5816960000000  0.4456020000000 1.0
C      1  0.4487400000000  0.5067000000000  0.5262070000000 1.0
C      1  0.5544420000000  0.5717320000000  0.5615570000000 1.0
C      1  0.4113350000000  0.5372110000000  0.4825960000000 1.0
C      1  0.5302310000000  0.5583080000000  0.4918590000000 1.0
C      1  0.5142040000000  0.5180590000000  0.5414090000000 1.0
C      1  0.6097110000000  0.4493880000000  0.5061420000000 1.0
C      1  0.4638970000000  0.4591200000000  0.4747340000000 1.0
C      1  0.5409040000000  0.5248010000000  0.4603510000000 1.0
C      1  0.5067950000000  0.4790340000000  0.5160900000000 1.0
C      1  0.5004640000000  0.5269250000000  0.5633080000000 1.0
C      1  0.5026340000000  0.5848740000000  0.3965570000000 1.0
C      1  0.4177390000000  0.4916560000000  0.5600730000000 1.0
C      1  0.4146030000000  0.5383110000000  0.5322050000000 1.0
C      1  0.4494680000000  0.5794650000000  0.5417930000000 1.0
C      1  0.4716530000000  0.4724980000000  0.6118710000000 1.0
C      1  0.4717940000000  0.5238180000000  0.4213100000000 1.0
C      1  0.5585100000000  0.5628370000000  0.4914980000000 1.0
C      1  0.5892750000000  0.4894040000000  0.5291720000000 1.0
C      1  0.4986780000000  0.4024330000000  0.5331180000000 1.0
C      1  0.5728660000000  0.4488400000000  0.5655040000000 1.0
C      1  0.5665100000000  0.4513560000000  0.4216460000000 1.0
C      1  0.4593280000000  0.5701200000000  0.4372830000000 1.0
C      1  0.4593100000000  0.4473040000000  0.6033170000000 1.0
C      1  0.5081380000000  0.5636510000000  0.5907840000000 1.0
END
