TITL C-612607-4507-422 0.00945859708335848 125000 -566.598434188704 0 0 93 (C1) n - 1
REM
REM in /home/nfs/bkarasulu/CARBON/AIRSS/Generating-Clusters/TERSOFF/Only-C1/FIRE-HFTN
REM
REM
REM
REM
REM
REM ./C.cell (11c1c37f851c82e70ff6c80c92926a4b)
REM AIRSS Version 0.9.1 bugfix July 2018 build 013d7b7c2542+ Fri, 06 Jul 2018 19:26:36 +0100
REM compiler GCC version 9.2.1 20190827 (Red Hat 9.2.1-1)
REM options -cpp -mtune=generic -march=x86-64 -g -O0 -fpre-include=/usr/include/finclude/math-vector-fortran.h
REM seed -1693128630 -1860602332 -497219078 1182709216 876848345 -1856481400 -585018550 2032313345 -606593312 -2010376990 1620535789 100814010 1964788854 599542945 533072369 -1416574912 -356161298 1950098349 -1904419481 -152944060 -1129899499 513227578 1434491829 -248494770 -1974555445 -1616932529 -635168537 -1666024892 -2075702900 1641758429 -1626317432 864455191 -1559345177
REM
CELL 1.54180   50.00000   50.00000   50.00000   90.00000   90.00000   90.00000
LATT -1
SFAC C  
C      1  0.4726520000000  0.4656800000000  0.4539720000000 1.0
C      1  0.5276200000000  0.4543490000000  0.5883950000000 1.0
C      1  0.4587060000000  0.5082940000000  0.5218990000000 1.0
C      1  0.4534560000000  0.4458970000000  0.4619310000000 1.0
C      1  0.4875330000000  0.4276350000000  0.4341220000000 1.0
C      1  0.4744520000000  0.5288220000000  0.5371620000000 1.0
C      1  0.4986450000000  0.4604060000000  0.5517500000000 1.0
C      1  0.5862700000000  0.4330940000000  0.4849310000000 1.0
C      1  0.4737490000000  0.5997100000000  0.5182920000000 1.0
C      1  0.4615220000000  0.5439950000000  0.5597520000000 1.0
C      1  0.5673770000000  0.5904110000000  0.4872270000000 1.0
C      1  0.4696120000000  0.4020590000000  0.4752000000000 1.0
C      1  0.4668380000000  0.4766320000000  0.4099510000000 1.0
C      1  0.4108710000000  0.4349180000000  0.5642650000000 1.0
C      1  0.4178070000000  0.4660620000000  0.4183030000000 1.0
C      1  0.6206180000000  0.5487230000000  0.4155340000000 1.0
C      1  0.4957960000000  0.5444160000000  0.4737340000000 1.0
C      1  0.4113370000000  0.4577000000000  0.4430580000000 1.0
C      1  0.5134300000000  0.4197380000000  0.4445830000000 1.0
C      1  0.4960990000000  0.5100770000000  0.5773810000000 1.0
C      1  0.4965710000000  0.6044290000000  0.5021320000000 1.0
C      1  0.4572980000000  0.5141060000000  0.4942610000000 1.0
C      1  0.5164130000000  0.4698290000000  0.5019710000000 1.0
C      1  0.5493330000000  0.5315140000000  0.5640240000000 1.0
C      1  0.5657940000000  0.5098790000000  0.5726090000000 1.0
C      1  0.4716460000000  0.4380430000000  0.5215670000000 1.0
C      1  0.5417000000000  0.5880100000000  0.4909800000000 1.0
C      1  0.4936480000000  0.4257930000000  0.5091270000000 1.0
C      1  0.5510310000000  0.4819090000000  0.6231940000000 1.0
C      1  0.4790230000000  0.4631290000000  0.5321400000000 1.0
C      1  0.6345780000000  0.4998200000000  0.4285450000000 1.0
C      1  0.4919700000000  0.4854960000000  0.4595970000000 1.0
C      1  0.4849980000000  0.4853990000000  0.5868560000000 1.0
C      1  0.4803670000000  0.5953840000000  0.5460090000000 1.0
C      1  0.4816720000000  0.5558600000000  0.5765290000000 1.0
C      1  0.4469120000000  0.3978230000000  0.4921400000000 1.0
C      1  0.5428810000000  0.4399980000000  0.5680880000000 1.0
C      1  0.4970230000000  0.5022480000000  0.4370750000000 1.0
C      1  0.5147570000000  0.5837760000000  0.4960550000000 1.0
C      1  0.4820380000000  0.5710320000000  0.4216830000000 1.0
C      1  0.5666800000000  0.4500660000000  0.5267510000000 1.0
C      1  0.4892820000000  0.5486250000000  0.5198650000000 1.0
C      1  0.4484240000000  0.5808660000000  0.4774470000000 1.0
C      1  0.4795450000000  0.4553770000000  0.4262440000000 1.0
C      1  0.5612800000000  0.4581290000000  0.5537120000000 1.0
C      1  0.4566840000000  0.4795690000000  0.5818640000000 1.0
C      1  0.4595470000000  0.5282520000000  0.4209210000000 1.0
C      1  0.3909240000000  0.4245160000000  0.5774170000000 1.0
C      1  0.5420850000000  0.5271430000000  0.5368310000000 1.0
C      1  0.5073310000000  0.4854880000000  0.4825880000000 1.0
C      1  0.4214150000000  0.5693300000000  0.5421630000000 1.0
C      1  0.5299160000000  0.5841770000000  0.4244450000000 1.0
C      1  0.5080920000000  0.5689240000000  0.4323090000000 1.0
C      1  0.4154770000000  0.4340800000000  0.4879940000000 1.0
C      1  0.5025170000000  0.4635420000000  0.5796220000000 1.0
C      1  0.6211940000000  0.4552850000000  0.4528940000000 1.0
C      1  0.5200040000000  0.4130560000000  0.4720660000000 1.0
C      1  0.4656740000000  0.4202860000000  0.4535900000000 1.0
C      1  0.4313460000000  0.4180840000000  0.5054260000000 1.0
C      1  0.5028670000000  0.5580690000000  0.4971940000000 1.0
C      1  0.4941570000000  0.5802530000000  0.5657500000000 1.0
C      1  0.6311130000000  0.4758660000000  0.4394070000000 1.0
C      1  0.6057400000000  0.4403250000000  0.4684290000000 1.0
C      1  0.4497500000000  0.5901250000000  0.5046680000000 1.0
C      1  0.5472450000000  0.4734450000000  0.5976880000000 1.0
C      1  0.4580920000000  0.4827610000000  0.5342720000000 1.0
C      1  0.4727410000000  0.5278370000000  0.4769100000000 1.0
C      1  0.5296340000000  0.5478090000000  0.5781370000000 1.0
C      1  0.6035220000000  0.5689110000000  0.4134930000000 1.0
C      1  0.5376980000000  0.4283930000000  0.4915030000000 1.0
C      1  0.4321660000000  0.4458570000000  0.5499710000000 1.0
C      1  0.5638220000000  0.4357570000000  0.5013730000000 1.0
C      1  0.4274780000000  0.5846790000000  0.5211000000000 1.0
C      1  0.5168300000000  0.5218490000000  0.4378650000000 1.0
C      1  0.6311090000000  0.5248790000000  0.4205590000000 1.0
C      1  0.5810100000000  0.5829300000000  0.4144130000000 1.0
C      1  0.4949120000000  0.4064610000000  0.4876920000000 1.0
C      1  0.5227190000000  0.5753500000000  0.5699210000000 1.0
C      1  0.4349910000000  0.5525660000000  0.5580220000000 1.0
C      1  0.4474120000000  0.5668320000000  0.4541580000000 1.0
C      1  0.5628040000000  0.4815520000000  0.5737370000000 1.0
C      1  0.4746830000000  0.5036510000000  0.4187460000000 1.0
C      1  0.5553390000000  0.5885090000000  0.4181890000000 1.0
C      1  0.4395530000000  0.4723000000000  0.4036710000000 1.0
C      1  0.5172210000000  0.4423600000000  0.5066180000000 1.0
C      1  0.5109840000000  0.5466110000000  0.4498000000000 1.0
C      1  0.5025570000000  0.5367370000000  0.5857650000000 1.0
C      1  0.4253500000000  0.4475490000000  0.4652230000000 1.0
C      1  0.4434390000000  0.4720700000000  0.5570620000000 1.0
C      1  0.5204320000000  0.5117180000000  0.5323550000000 1.0
C      1  0.4442410000000  0.4315260000000  0.5271750000000 1.0
C      1  0.4597220000000  0.5555950000000  0.4306860000000 1.0
C      1  0.4972050000000  0.5119800000000  0.5482730000000 1.0
END
