TITL C-612600-6631-845 4244.95944147297 125000 -703.787849344376 0 0 117 (C1) n - 1
REM
REM in /home/nfs/bkarasulu/CARBON/AIRSS/Generating-Clusters/TERSOFF/Only-C1/FIRE-HFTN
REM
REM
REM
REM
REM
REM ./C.cell (11c1c37f851c82e70ff6c80c92926a4b)
REM AIRSS Version 0.9.1 bugfix July 2018 build 013d7b7c2542+ Fri, 06 Jul 2018 19:26:36 +0100
REM compiler GCC version 9.2.1 20190827 (Red Hat 9.2.1-1)
REM options -cpp -mtune=generic -march=x86-64 -g -O0 -fpre-include=/usr/include/finclude/math-vector-fortran.h
REM seed -1350559281 -809693949 1339454513 374325672 1763203820 -707471006 -2064382455 1653890695 1194736749 257017353 713915167 1023484234 475113563 -54212078 -1660411741 -1435623364 -617739349 -143883485 -2017268809 -2094482168 -2050413562 1880682213 -260015113 -1517865560 -95690198 -631355455 2009588568 -460515333 722445415 1881649672 1574333356 -1787391116 -3618451
REM
CELL 1.54180   50.00000   50.00000   50.00000   90.00000   90.00000   90.00000
LATT -1
SFAC C  
C      1  0.5021510000000  0.5224870000000  0.5621580000000 1.0
C      1  0.4383480000000  0.4504390000000  0.5527320000000 1.0
C      1  0.4456940000000  0.5184220000000  0.4255130000000 1.0
C      1  0.4421740000000  0.4257860000000  0.4834870000000 1.0
C      1  0.4074540000000  0.5171520000000  0.4603290000000 1.0
C      1  0.4548090000000  0.5516900000000  0.5894210000000 1.0
C      1  0.4567240000000  0.4319420000000  0.5070840000000 1.0
C      1  0.4676930000000  0.4246840000000  0.4407580000000 1.0
C      1  0.4178080000000  0.4905010000000  0.5180680000000 1.0
C      1  0.5494050000000  0.4505980000000  0.4534120000000 1.0
C      1  0.4736870000000  0.4127040000000  0.5205370000000 1.0
C      1  0.5442700000000  0.6091070000000  0.5742250000000 1.0
C      1  0.5324720000000  0.5078170000000  0.5224100000000 1.0
C      1  0.4408840000000  0.4293750000000  0.4550260000000 1.0
C      1  0.5801180000000  0.5555270000000  0.5387450000000 1.0
C      1  0.4965990000000  0.4402940000000  0.3735320000000 1.0
C      1  0.4640810000000  0.5364450000000  0.4114050000000 1.0
C      1  0.4710850000000  0.6248790000000  0.5274990000000 1.0
C      1  0.4117350000000  0.5192800000000  0.5126700000000 1.0
C      1  0.4774750000000  0.5176690000000  0.4566610000000 1.0
C      1  0.5573060000000  0.4274600000000  0.4669140000000 1.0
C      1  0.5265100000000  0.5212880000000  0.4534990000000 1.0
C      1  0.5263700000000  0.4953760000000  0.4663720000000 1.0
C      1  0.4600020000000  0.5617720000000  0.6365510000000 1.0
C      1  0.4612420000000  0.4591570000000  0.5133390000000 1.0
C      1  0.4055010000000  0.4673000000000  0.4426430000000 1.0
C      1  0.4834200000000  0.3922950000000  0.5035820000000 1.0
C      1  0.5199880000000  0.5600220000000  0.5069310000000 1.0
C      1  0.5331980000000  0.5417840000000  0.5939950000000 1.0
C      1  0.5796710000000  0.5495350000000  0.4902910000000 1.0
C      1  0.4586780000000  0.4795770000000  0.4931870000000 1.0
C      1  0.4782540000000  0.4735430000000  0.4278090000000 1.0
C      1  0.5429970000000  0.5769070000000  0.5059140000000 1.0
C      1  0.5612790000000  0.5716530000000  0.4850280000000 1.0
C      1  0.5859890000000  0.4947930000000  0.4936340000000 1.0
C      1  0.4644560000000  0.4985040000000  0.4377070000000 1.0
C      1  0.4984550000000  0.5703160000000  0.4916170000000 1.0
C      1  0.4857410000000  0.5609910000000  0.6234090000000 1.0
C      1  0.4308490000000  0.4833740000000  0.4929530000000 1.0
C      1  0.4550960000000  0.5359510000000  0.4984860000000 1.0
C      1  0.4828480000000  0.4783790000000  0.5930360000000 1.0
C      1  0.4754990000000  0.4536160000000  0.5853060000000 1.0
C      1  0.5466420000000  0.4825070000000  0.5151040000000 1.0
C      1  0.5551520000000  0.5273070000000  0.5870070000000 1.0
C      1  0.4801230000000  0.5205500000000  0.5400430000000 1.0
C      1  0.5011010000000  0.4258780000000  0.3987480000000 1.0
C      1  0.5047290000000  0.4820170000000  0.4154860000000 1.0
C      1  0.5621040000000  0.4790710000000  0.4919550000000 1.0
C      1  0.4320240000000  0.5284900000000  0.4505960000000 1.0
C      1  0.5852450000000  0.5387790000000  0.5166630000000 1.0
C      1  0.5743430000000  0.3759190000000  0.5558630000000 1.0
C      1  0.4719000000000  0.6493840000000  0.5186660000000 1.0
C      1  0.5292710000000  0.5157430000000  0.3923980000000 1.0
C      1  0.4714630000000  0.4740610000000  0.5357130000000 1.0
C      1  0.5473760000000  0.5672360000000  0.4591550000000 1.0
C      1  0.4710210000000  0.5983870000000  0.5362060000000 1.0
C      1  0.4223300000000  0.4701930000000  0.5397860000000 1.0
C      1  0.4733670000000  0.4277250000000  0.4116380000000 1.0
C      1  0.5517470000000  0.4746490000000  0.4126580000000 1.0
C      1  0.5254760000000  0.4314640000000  0.4128850000000 1.0
C      1  0.4937360000000  0.5873800000000  0.5485100000000 1.0
C      1  0.4795700000000  0.3999620000000  0.4530190000000 1.0
C      1  0.5436860000000  0.4498550000000  0.4253650000000 1.0
C      1  0.5478720000000  0.4757820000000  0.4675980000000 1.0
C      1  0.4483450000000  0.5822120000000  0.5326320000000 1.0
C      1  0.4863900000000  0.4231160000000  0.5454170000000 1.0
C      1  0.5253790000000  0.5325370000000  0.5108890000000 1.0
C      1  0.5185810000000  0.4779740000000  0.5562750000000 1.0
C      1  0.4544400000000  0.5668870000000  0.6625130000000 1.0
C      1  0.5012610000000  0.5821390000000  0.4673380000000 1.0
C      1  0.5668370000000  0.3954230000000  0.5076480000000 1.0
C      1  0.3987430000000  0.5229710000000  0.4870230000000 1.0
C      1  0.5910590000000  0.4942220000000  0.4425800000000 1.0
C      1  0.4545710000000  0.5325110000000  0.4698790000000 1.0
C      1  0.5594320000000  0.4710080000000  0.5391500000000 1.0
C      1  0.5872140000000  0.5095680000000  0.5202430000000 1.0
C      1  0.5158230000000  0.4325010000000  0.5388330000000 1.0
C      1  0.4825360000000  0.4502280000000  0.4492920000000 1.0
C      1  0.5081600000000  0.4592290000000  0.4913260000000 1.0
C      1  0.5634830000000  0.5704790000000  0.5533330000000 1.0
C      1  0.4656110000000  0.4567790000000  0.4039230000000 1.0
C      1  0.4837360000000  0.5543480000000  0.5953150000000 1.0
C      1  0.5499830000000  0.5382540000000  0.4542570000000 1.0
C      1  0.5408930000000  0.5843490000000  0.5628790000000 1.0
C      1  0.5125520000000  0.5364290000000  0.3972370000000 1.0
C      1  0.4654650000000  0.4391310000000  0.5624520000000 1.0
C      1  0.5754280000000  0.4961150000000  0.5464970000000 1.0
C      1  0.5241060000000  0.5817680000000  0.4526930000000 1.0
C      1  0.5089270000000  0.4517090000000  0.5179990000000 1.0
C      1  0.4201580000000  0.4449670000000  0.4440640000000 1.0
C      1  0.5003370000000  0.5297380000000  0.4440300000000 1.0
C      1  0.4327850000000  0.5388260000000  0.5169090000000 1.0
C      1  0.4410030000000  0.5489070000000  0.5653500000000 1.0
C      1  0.4908970000000  0.5029410000000  0.5856250000000 1.0
C      1  0.5755750000000  0.5319180000000  0.4674210000000 1.0
C      1  0.5276060000000  0.5068070000000  0.5531420000000 1.0
C      1  0.4814820000000  0.4979640000000  0.4943940000000 1.0
C      1  0.5765130000000  0.4856010000000  0.4214520000000 1.0
C      1  0.3994650000000  0.4927710000000  0.4483240000000 1.0
C      1  0.4990010000000  0.4723800000000  0.5360960000000 1.0
C      1  0.5295030000000  0.4903620000000  0.4045200000000 1.0
C      1  0.4374490000000  0.5568650000000  0.5385450000000 1.0
C      1  0.4416560000000  0.5557010000000  0.6150130000000 1.0
C      1  0.5077010000000  0.5488970000000  0.5778580000000 1.0
C      1  0.5144090000000  0.5733360000000  0.5614090000000 1.0
C      1  0.5382270000000  0.4563510000000  0.5545730000000 1.0
C      1  0.5057900000000  0.4873270000000  0.4848910000000 1.0
C      1  0.5706480000000  0.3848330000000  0.5316450000000 1.0
C      1  0.5009490000000  0.4444410000000  0.4693520000000 1.0
C      1  0.4772970000000  0.5219550000000  0.5105560000000 1.0
C      1  0.5895090000000  0.5074660000000  0.4676720000000 1.0
C      1  0.4622930000000  0.4984410000000  0.5463840000000 1.0
C      1  0.4851130000000  0.3887680000000  0.4768890000000 1.0
C      1  0.5560920000000  0.5109390000000  0.5639560000000 1.0
C      1  0.4927060000000  0.5388540000000  0.4171450000000 1.0
C      1  0.4759740000000  0.4586830000000  0.3767350000000 1.0
C      1  0.5626160000000  0.4093420000000  0.4854970000000 1.0
END
