TITL C-612604-1799-233 610096.342692802 125000 -1139.93948910468 0 0 189 (C1) n - 1
REM
REM in /home/nfs/bkarasulu/CARBON/AIRSS/Generating-Clusters/TERSOFF/Only-C1/FIRE-HFTN
REM
REM
REM
REM
REM
REM ./C.cell (11c1c37f851c82e70ff6c80c92926a4b)
REM AIRSS Version 0.9.1 bugfix July 2018 build 013d7b7c2542+ Fri, 06 Jul 2018 19:26:36 +0100
REM compiler GCC version 9.2.1 20190827 (Red Hat 9.2.1-1)
REM options -cpp -mtune=generic -march=x86-64 -g -O0 -fpre-include=/usr/include/finclude/math-vector-fortran.h
REM seed 1999738344 -1458000186 -1437016604 -957265818 54626111 936502455 -1428510341 1745608785 -1454171203 174453604 69134619 -1457360411 -1213464527 -891239520 -529292182 657914447 1493074029 1377238309 456371272 -1705369717 -542826830 -1768416873 -862594134 -431284305 1861604559 1067791384 888865759 1470650454 -1631630259 1169785156 -322056713 -453230003 172322038
REM
CELL 1.54180   50.00000   50.00000   50.00000   90.00000   90.00000   90.00000
LATT -1
SFAC C  
C      1  0.5879260000000  0.4765720000000  0.4293130000000 1.0
C      1  0.6160090000000  0.4035130000000  0.5379640000000 1.0
C      1  0.5771800000000  0.6281540000000  0.5110260000000 1.0
C      1  0.6252620000000  0.4284030000000  0.5283630000000 1.0
C      1  0.5001180000000  0.5458130000000  0.5668270000000 1.0
C      1  0.4580300000000  0.5732250000000  0.5712580000000 1.0
C      1  0.5630680000000  0.5622410000000  0.4242780000000 1.0
C      1  0.3777750000000  0.4789100000000  0.4646210000000 1.0
C      1  0.3878930000000  0.4908190000000  0.5125790000000 1.0
C      1  0.5812870000000  0.5799510000000  0.4107990000000 1.0
C      1  0.4811810000000  0.4919230000000  0.4911680000000 1.0
C      1  0.5545510000000  0.4450120000000  0.5824710000000 1.0
C      1  0.5756230000000  0.4641650000000  0.5859120000000 1.0
C      1  0.4537440000000  0.4687880000000  0.5832470000000 1.0
C      1  0.5028290000000  0.5146970000000  0.5667350000000 1.0
C      1  0.4773940000000  0.5573360000000  0.6139790000000 1.0
C      1  0.4524520000000  0.3876750000000  0.4801340000000 1.0
C      1  0.4711050000000  0.5887850000000  0.5508410000000 1.0
C      1  0.5311050000000  0.4564620000000  0.4487690000000 1.0
C      1  0.5900580000000  0.5135330000000  0.5735430000000 1.0
C      1  0.4783210000000  0.5573410000000  0.5854940000000 1.0
C      1  0.6054780000000  0.5018820000000  0.3673390000000 1.0
C      1  0.5944780000000  0.4373280000000  0.3956190000000 1.0
C      1  0.6217520000000  0.4515690000000  0.5442750000000 1.0
C      1  0.4528950000000  0.5646180000000  0.5111610000000 1.0
C      1  0.5097300000000  0.4841390000000  0.6239380000000 1.0
C      1  0.4481600000000  0.5033760000000  0.6439880000000 1.0
C      1  0.5302690000000  0.4998940000000  0.6127470000000 1.0
C      1  0.3968660000000  0.5406820000000  0.5336430000000 1.0
C      1  0.5730230000000  0.5189770000000  0.4533270000000 1.0
C      1  0.4692600000000  0.3812020000000  0.5280360000000 1.0
C      1  0.5947260000000  0.4571010000000  0.4126610000000 1.0
C      1  0.5005850000000  0.4297480000000  0.5181850000000 1.0
C      1  0.5281260000000  0.6091220000000  0.5892650000000 1.0
C      1  0.3777990000000  0.5249550000000  0.4744580000000 1.0
C      1  0.4962070000000  0.6027620000000  0.5524880000000 1.0
C      1  0.5038060000000  0.4629200000000  0.5821860000000 1.0
C      1  0.4437820000000  0.5943180000000  0.4563620000000 1.0
C      1  0.5168360000000  0.5927060000000  0.5704200000000 1.0
C      1  0.6060270000000  0.5430940000000  0.5343780000000 1.0
C      1  0.5741100000000  0.5178130000000  0.5035430000000 1.0
C      1  0.5547150000000  0.5845150000000  0.5133580000000 1.0
C      1  0.5792640000000  0.4044370000000  0.5682670000000 1.0
C      1  0.4618300000000  0.4567350000000  0.6098650000000 1.0
C      1  0.5646970000000  0.5701670000000  0.5382760000000 1.0
C      1  0.5560870000000  0.4207380000000  0.5668660000000 1.0
C      1  0.6083260000000  0.5470360000000  0.4296980000000 1.0
C      1  0.4152400000000  0.5850790000000  0.5276650000000 1.0
C      1  0.4953510000000  0.4643860000000  0.4082110000000 1.0
C      1  0.5986420000000  0.5306370000000  0.5100650000000 1.0
C      1  0.4952300000000  0.5255810000000  0.5202230000000 1.0
C      1  0.3783450000000  0.4988680000000  0.4851280000000 1.0
C      1  0.4926620000000  0.3951050000000  0.3964190000000 1.0
C      1  0.5275770000000  0.3968920000000  0.4478870000000 1.0
C      1  0.4699780000000  0.5021380000000  0.4106110000000 1.0
C      1  0.4541410000000  0.5042570000000  0.6185760000000 1.0
C      1  0.5082530000000  0.4160000000000  0.4384770000000 1.0
C      1  0.5073540000000  0.4410490000000  0.4519930000000 1.0
C      1  0.6298760000000  0.4926820000000  0.3676500000000 1.0
C      1  0.5049050000000  0.6150050000000  0.5279000000000 1.0
C      1  0.6072910000000  0.5711570000000  0.4138720000000 1.0
C      1  0.5028480000000  0.3809750000000  0.4945040000000 1.0
C      1  0.4847070000000  0.5447480000000  0.3767230000000 1.0
C      1  0.4754180000000  0.5179230000000  0.5005740000000 1.0
C      1  0.4871410000000  0.5627850000000  0.4786490000000 1.0
C      1  0.4000750000000  0.4587390000000  0.5934370000000 1.0
C      1  0.4752550000000  0.3938660000000  0.5514450000000 1.0
C      1  0.4788710000000  0.4407920000000  0.4084500000000 1.0
C      1  0.4931650000000  0.5907870000000  0.4812650000000 1.0
C      1  0.4667170000000  0.4619020000000  0.5578200000000 1.0
C      1  0.4613470000000  0.5884970000000  0.4343270000000 1.0
C      1  0.5289990000000  0.5235140000000  0.4781040000000 1.0
C      1  0.5876600000000  0.4791370000000  0.5259870000000 1.0
C      1  0.4895560000000  0.5056190000000  0.5419500000000 1.0
C      1  0.4358500000000  0.4367440000000  0.4592260000000 1.0
C      1  0.5471430000000  0.5761800000000  0.4852770000000 1.0
C      1  0.4929490000000  0.6077690000000  0.5032670000000 1.0
C      1  0.4662780000000  0.5321060000000  0.4482710000000 1.0
C      1  0.4572490000000  0.5032000000000  0.3844010000000 1.0
C      1  0.5001690000000  0.5587790000000  0.6298110000000 1.0
C      1  0.4167870000000  0.4752190000000  0.4334230000000 1.0
C      1  0.4284300000000  0.4674410000000  0.4088900000000 1.0
C      1  0.5337430000000  0.3747050000000  0.4329910000000 1.0
C      1  0.4896830000000  0.4961760000000  0.5854150000000 1.0
C      1  0.6279990000000  0.4299360000000  0.5003680000000 1.0
C      1  0.5438860000000  0.4812250000000  0.4500590000000 1.0
C      1  0.4662730000000  0.5247050000000  0.3688010000000 1.0
C      1  0.5555880000000  0.4435470000000  0.4890160000000 1.0
C      1  0.5802120000000  0.5095940000000  0.3695050000000 1.0
C      1  0.4837730000000  0.4807610000000  0.4659530000000 1.0
C      1  0.4569590000000  0.4362240000000  0.5011570000000 1.0
C      1  0.5403310000000  0.5387810000000  0.5229620000000 1.0
C      1  0.5285020000000  0.5313870000000  0.4140180000000 1.0
C      1  0.4534770000000  0.5386150000000  0.4967250000000 1.0
C      1  0.5117790000000  0.5122610000000  0.4306640000000 1.0
C      1  0.3876680000000  0.5500650000000  0.4820900000000 1.0
C      1  0.5445990000000  0.4926010000000  0.5422100000000 1.0
C      1  0.5381650000000  0.4657420000000  0.5424780000000 1.0
C      1  0.4313890000000  0.5822010000000  0.5043630000000 1.0
C      1  0.4251790000000  0.5841100000000  0.4761930000000 1.0
C      1  0.5325650000000  0.5288080000000  0.3859620000000 1.0
C      1  0.4352110000000  0.4921600000000  0.4474510000000 1.0
C      1  0.4798840000000  0.5620590000000  0.3991190000000 1.0
C      1  0.5556200000000  0.5175520000000  0.3753490000000 1.0
C      1  0.4290310000000  0.5464310000000  0.6126670000000 1.0
C      1  0.4873040000000  0.4438710000000  0.5676080000000 1.0
C      1  0.5657630000000  0.5292000000000  0.5804310000000 1.0
C      1  0.5442730000000  0.5119100000000  0.5896180000000 1.0
C      1  0.4741500000000  0.4255020000000  0.5181250000000 1.0
C      1  0.4107620000000  0.4995410000000  0.5605610000000 1.0
C      1  0.4361550000000  0.4873730000000  0.4744730000000 1.0
C      1  0.4302600000000  0.5230880000000  0.5033910000000 1.0
C      1  0.5603910000000  0.5235760000000  0.4791660000000 1.0
C      1  0.4933490000000  0.4160940000000  0.4138820000000 1.0
C      1  0.5804470000000  0.5409310000000  0.4368590000000 1.0
C      1  0.6092430000000  0.5274170000000  0.5576460000000 1.0
C      1  0.4328400000000  0.5124490000000  0.5755980000000 1.0
C      1  0.6140480000000  0.4228070000000  0.4786430000000 1.0
C      1  0.4274070000000  0.3938760000000  0.4937370000000 1.0
C      1  0.5896880000000  0.4161820000000  0.4697890000000 1.0
C      1  0.4498360000000  0.4401880000000  0.4137650000000 1.0
C      1  0.4908510000000  0.5924940000000  0.4332930000000 1.0
C      1  0.5346340000000  0.4569470000000  0.4984420000000 1.0
C      1  0.4591010000000  0.4420150000000  0.4741300000000 1.0
C      1  0.5523690000000  0.5568760000000  0.5626560000000 1.0
C      1  0.5550030000000  0.6133100000000  0.5167780000000 1.0
C      1  0.4094640000000  0.5601390000000  0.4373910000000 1.0
C      1  0.5027400000000  0.5744660000000  0.4138810000000 1.0
C      1  0.4099320000000  0.4441660000000  0.4679440000000 1.0
C      1  0.5388770000000  0.4118800000000  0.5450860000000 1.0
C      1  0.5699580000000  0.4915260000000  0.4442940000000 1.0
C      1  0.4513130000000  0.5557230000000  0.6249510000000 1.0
C      1  0.5260170000000  0.5023350000000  0.4550620000000 1.0
C      1  0.5092330000000  0.4547770000000  0.5093370000000 1.0
C      1  0.5324860000000  0.5610450000000  0.4259980000000 1.0
C      1  0.3975770000000  0.4637430000000  0.4514870000000 1.0
C      1  0.5315090000000  0.5064780000000  0.5641730000000 1.0
C      1  0.4294490000000  0.4970520000000  0.4979800000000 1.0
C      1  0.4944750000000  0.5320400000000  0.4444910000000 1.0
C      1  0.5117600000000  0.5395050000000  0.3702960000000 1.0
C      1  0.5222820000000  0.5603690000000  0.6435050000000 1.0
C      1  0.5074140000000  0.5948600000000  0.4563860000000 1.0
C      1  0.4954800000000  0.4918260000000  0.4155640000000 1.0
C      1  0.5288890000000  0.5704700000000  0.4574700000000 1.0
C      1  0.5447640000000  0.3943210000000  0.5225400000000 1.0
C      1  0.5716010000000  0.3840440000000  0.5255580000000 1.0
C      1  0.4746750000000  0.3809910000000  0.4993570000000 1.0
C      1  0.4624750000000  0.5486730000000  0.4706210000000 1.0
C      1  0.4885210000000  0.4737800000000  0.5118330000000 1.0
C      1  0.4912580000000  0.5500380000000  0.5362960000000 1.0
C      1  0.4579400000000  0.4980720000000  0.5890870000000 1.0
C      1  0.4394550000000  0.4435980000000  0.6214490000000 1.0
C      1  0.5311490000000  0.6247590000000  0.5260750000000 1.0
C      1  0.4028300000000  0.4392590000000  0.4955830000000 1.0
C      1  0.4429410000000  0.4207150000000  0.4363630000000 1.0
C      1  0.3845860000000  0.5520010000000  0.5101700000000 1.0
C      1  0.5217990000000  0.5259170000000  0.5077140000000 1.0
C      1  0.4275330000000  0.5390070000000  0.5854320000000 1.0
C      1  0.4867920000000  0.4675330000000  0.6230980000000 1.0
C      1  0.4507840000000  0.5126870000000  0.4323450000000 1.0
C      1  0.3974450000000  0.5104060000000  0.5360220000000 1.0
C      1  0.4130760000000  0.5624340000000  0.5457500000000 1.0
C      1  0.5105170000000  0.5466790000000  0.4665770000000 1.0
C      1  0.4536450000000  0.5676620000000  0.4136860000000 1.0
C      1  0.4283410000000  0.5227990000000  0.4125550000000 1.0
C      1  0.4522080000000  0.3955780000000  0.4507550000000 1.0
C      1  0.5908720000000  0.3932150000000  0.5447770000000 1.0
C      1  0.4776400000000  0.4800900000000  0.5376140000000 1.0
C      1  0.4101470000000  0.4127080000000  0.5031130000000 1.0
C      1  0.5289070000000  0.4537720000000  0.5899200000000 1.0
C      1  0.4319040000000  0.5604400000000  0.5672250000000 1.0
C      1  0.5412700000000  0.4009750000000  0.4729920000000 1.0
C      1  0.4726650000000  0.5696670000000  0.5297420000000 1.0
C      1  0.5919370000000  0.4835590000000  0.5726770000000 1.0
C      1  0.4139500000000  0.4458040000000  0.6125030000000 1.0
C      1  0.4298610000000  0.4993760000000  0.3929480000000 1.0
C      1  0.5626120000000  0.4197490000000  0.4757830000000 1.0
C      1  0.5664270000000  0.4978370000000  0.5230520000000 1.0
C      1  0.4052020000000  0.5657760000000  0.4652310000000 1.0
C      1  0.4830290000000  0.4527880000000  0.4622630000000 1.0
C      1  0.5296160000000  0.3906880000000  0.4975560000000 1.0
C      1  0.5933010000000  0.5678570000000  0.5383660000000 1.0
C      1  0.3947300000000  0.4617850000000  0.5121860000000 1.0
C      1  0.5248990000000  0.5645840000000  0.5685590000000 1.0
C      1  0.4836120000000  0.4158630000000  0.5651130000000 1.0
C      1  0.3994710000000  0.4769830000000  0.5737530000000 1.0
C      1  0.6304190000000  0.5328570000000  0.4365140000000 1.0
C      1  0.6032950000000  0.4724140000000  0.5483110000000 1.0
C      1  0.4284510000000  0.5518520000000  0.4173840000000 1.0
END
