TITL C-612601-4209-315 0.0530255369227153 125000 -377.165693466971 0 0 63 (C1) n - 1
REM
REM in /home/nfs/bkarasulu/CARBON/AIRSS/Generating-Clusters/TERSOFF/Only-C1/FIRE-HFTN
REM
REM
REM
REM
REM
REM ./C.cell (11c1c37f851c82e70ff6c80c92926a4b)
REM AIRSS Version 0.9.1 bugfix July 2018 build 013d7b7c2542+ Fri, 06 Jul 2018 19:26:36 +0100
REM compiler GCC version 9.2.1 20190827 (Red Hat 9.2.1-1)
REM options -cpp -mtune=generic -march=x86-64 -g -O0 -fpre-include=/usr/include/finclude/math-vector-fortran.h
REM seed 1158286241 -1112483462 -1754470239 1619190938 952210467 1358693834 -364674102 -461648945 1123926310 -322217577 -1803712178 160996272 281155083 -1431227436 1878911451 -44583259 -891199631 1758600000 -359910315 53014709 -973916159 790461252 1539231743 -511584667 -1892812749 -777078108 451268572 1165196931 1397294695 922853043 586446392 699718301 -1881718336
REM
CELL 1.54180   50.00000   50.00000   50.00000   90.00000   90.00000   90.00000
LATT -1
SFAC C  
C      1  0.4675910000000  0.4297080000000  0.4652780000000 1.0
C      1  0.5455680000000  0.5189990000000  0.4279090000000 1.0
C      1  0.4659310000000  0.4112960000000  0.5380300000000 1.0
C      1  0.4211030000000  0.5166840000000  0.4599370000000 1.0
C      1  0.4619340000000  0.4076670000000  0.5119870000000 1.0
C      1  0.4735060000000  0.4230350000000  0.5606430000000 1.0
C      1  0.4483650000000  0.5420740000000  0.4287490000000 1.0
C      1  0.4722520000000  0.5089560000000  0.4906670000000 1.0
C      1  0.6766620000000  0.5635780000000  0.4415020000000 1.0
C      1  0.4729420000000  0.4977980000000  0.4091830000000 1.0
C      1  0.4627240000000  0.4139380000000  0.4861400000000 1.0
C      1  0.6066860000000  0.5664310000000  0.4618410000000 1.0
C      1  0.4507570000000  0.5268100000000  0.5008400000000 1.0
C      1  0.4632960000000  0.5238240000000  0.5754650000000 1.0
C      1  0.4898500000000  0.5407390000000  0.4540990000000 1.0
C      1  0.5301350000000  0.5031530000000  0.5401270000000 1.0
C      1  0.4159090000000  0.4694210000000  0.5565950000000 1.0
C      1  0.5507830000000  0.4971800000000  0.4698770000000 1.0
C      1  0.5362880000000  0.4995680000000  0.4452700000000 1.0
C      1  0.5313060000000  0.5310640000000  0.5042450000000 1.0
C      1  0.4599960000000  0.5032780000000  0.5943060000000 1.0
C      1  0.4992930000000  0.4941600000000  0.4137920000000 1.0
C      1  0.5399050000000  0.5548370000000  0.4927090000000 1.0
C      1  0.4246770000000  0.4742290000000  0.5304950000000 1.0
C      1  0.4690120000000  0.4843560000000  0.5060190000000 1.0
C      1  0.4494480000000  0.5188320000000  0.5289350000000 1.0
C      1  0.7005390000000  0.5711740000000  0.4343030000000 1.0
C      1  0.4367920000000  0.5171720000000  0.4360660000000 1.0
C      1  0.6030920000000  0.5009500000000  0.4635330000000 1.0
C      1  0.4862220000000  0.4626540000000  0.5929510000000 1.0
C      1  0.5001530000000  0.4635340000000  0.4498370000000 1.0
C      1  0.5413560000000  0.5049730000000  0.4953700000000 1.0
C      1  0.4854900000000  0.4621160000000  0.5068720000000 1.0
C      1  0.4956110000000  0.4962100000000  0.6490800000000 1.0
C      1  0.6204670000000  0.5205960000000  0.4592050000000 1.0
C      1  0.4031990000000  0.4958640000000  0.4657240000000 1.0
C      1  0.5824840000000  0.5736880000000  0.4700660000000 1.0
C      1  0.5185190000000  0.5279820000000  0.5304710000000 1.0
C      1  0.4345050000000  0.4918380000000  0.5972360000000 1.0
C      1  0.4735600000000  0.4536150000000  0.4521250000000 1.0
C      1  0.4936800000000  0.5367260000000  0.5398120000000 1.0
C      1  0.4824790000000  0.4884070000000  0.6034060000000 1.0
C      1  0.5404780000000  0.4870640000000  0.5184850000000 1.0
C      1  0.6268820000000  0.5477430000000  0.4565120000000 1.0
C      1  0.5585090000000  0.5695980000000  0.4807810000000 1.0
C      1  0.4893150000000  0.5208900000000  0.4721710000000 1.0
C      1  0.4724600000000  0.5514540000000  0.4365830000000 1.0
C      1  0.4510120000000  0.4939850000000  0.4269060000000 1.0
C      1  0.4181320000000  0.4772200000000  0.5819930000000 1.0
C      1  0.5136550000000  0.4844840000000  0.4364710000000 1.0
C      1  0.5005130000000  0.4993990000000  0.6223270000000 1.0
C      1  0.4676250000000  0.5293770000000  0.5482990000000 1.0
C      1  0.5225750000000  0.5130630000000  0.6135680000000 1.0
C      1  0.4303570000000  0.5319350000000  0.4822320000000 1.0
C      1  0.4482960000000  0.4892090000000  0.5261870000000 1.0
C      1  0.5783870000000  0.4920100000000  0.4676360000000 1.0
C      1  0.6523960000000  0.5558570000000  0.4488190000000 1.0
C      1  0.5092090000000  0.4505770000000  0.5108830000000 1.0
C      1  0.4081940000000  0.4688930000000  0.5084200000000 1.0
C      1  0.3995110000000  0.4773480000000  0.4846520000000 1.0
C      1  0.5337190000000  0.4601380000000  0.5160360000000 1.0
C      1  0.4818470000000  0.4406880000000  0.5786650000000 1.0
C      1  0.4528620000000  0.4699500000000  0.4416760000000 1.0
END
