TITL C-612607-4507-1080 0.00171315740042327 125000 -338.150791240907 0 0 57 (C1) n - 1
REM
REM in /home/nfs/bkarasulu/CARBON/AIRSS/Generating-Clusters/TERSOFF/Only-C1/FIRE-HFTN
REM
REM
REM
REM
REM
REM ./C.cell (11c1c37f851c82e70ff6c80c92926a4b)
REM AIRSS Version 0.9.1 bugfix July 2018 build 013d7b7c2542+ Fri, 06 Jul 2018 19:26:36 +0100
REM compiler GCC version 9.2.1 20190827 (Red Hat 9.2.1-1)
REM options -cpp -mtune=generic -march=x86-64 -g -O0 -fpre-include=/usr/include/finclude/math-vector-fortran.h
REM seed -2044529595 -658785037 -209633292 -1012132807 -695302444 2106860732 -2133150842 1633980243 1901269401 2141648654 398552588 -1304124372 -737343864 -1373410414 -78433510 416285686 -107065921 261855366 687211033 -384862469 -891950874 1875019642 -1309618096 625633930 -1582540131 -445636647 -858058262 148658558 -921440293 1413643451 697518935 682720973 434944864
REM
CELL 1.54180   50.00000   50.00000   50.00000   90.00000   90.00000   90.00000
LATT -1
SFAC C  
C      1  0.4730480000000  0.5455810000000  0.4266700000000 1.0
C      1  0.4568770000000  0.5189120000000  0.5176720000000 1.0
C      1  0.4864390000000  0.4595600000000  0.5814030000000 1.0
C      1  0.5389120000000  0.5036480000000  0.5454160000000 1.0
C      1  0.5330390000000  0.4348450000000  0.5549000000000 1.0
C      1  0.5483050000000  0.5104010000000  0.4944080000000 1.0
C      1  0.4701800000000  0.4427870000000  0.4843040000000 1.0
C      1  0.5040730000000  0.5313800000000  0.5635670000000 1.0
C      1  0.4852230000000  0.5514740000000  0.5586190000000 1.0
C      1  0.4924960000000  0.4592230000000  0.4800790000000 1.0
C      1  0.5450540000000  0.5569300000000  0.4717170000000 1.0
C      1  0.5205030000000  0.5165230000000  0.4875600000000 1.0
C      1  0.4950380000000  0.5274280000000  0.4269940000000 1.0
C      1  0.4666650000000  0.4984260000000  0.5011260000000 1.0
C      1  0.5799330000000  0.4856820000000  0.4370240000000 1.0
C      1  0.4673430000000  0.4383440000000  0.5121260000000 1.0
C      1  0.5506640000000  0.4906040000000  0.5200990000000 1.0
C      1  0.5613100000000  0.5380250000000  0.4895570000000 1.0
C      1  0.4710740000000  0.5599380000000  0.5372930000000 1.0
C      1  0.5078490000000  0.4469770000000  0.5942680000000 1.0
C      1  0.5156220000000  0.5416780000000  0.5018110000000 1.0
C      1  0.4555170000000  0.4649240000000  0.4398190000000 1.0
C      1  0.5259580000000  0.4912900000000  0.5678870000000 1.0
C      1  0.5009140000000  0.5049930000000  0.5753610000000 1.0
C      1  0.5187340000000  0.5474180000000  0.3899860000000 1.0
C      1  0.4499700000000  0.5403360000000  0.4427850000000 1.0
C      1  0.4904530000000  0.5052000000000  0.4445760000000 1.0
C      1  0.4525590000000  0.4473720000000  0.4624410000000 1.0
C      1  0.4475870000000  0.5547940000000  0.4667850000000 1.0
C      1  0.4437680000000  0.4489420000000  0.5255280000000 1.0
C      1  0.4634610000000  0.4925840000000  0.4419510000000 1.0
C      1  0.5364260000000  0.4629940000000  0.5151150000000 1.0
C      1  0.4786540000000  0.4878050000000  0.5780570000000 1.0
C      1  0.4628100000000  0.5470190000000  0.5134090000000 1.0
C      1  0.4507590000000  0.4546700000000  0.4147670000000 1.0
C      1  0.5286060000000  0.4352340000000  0.5815120000000 1.0
C      1  0.5391970000000  0.4528090000000  0.4887600000000 1.0
C      1  0.5806150000000  0.4856350000000  0.5240550000000 1.0
C      1  0.4550620000000  0.4883590000000  0.5602170000000 1.0
C      1  0.5173810000000  0.5622840000000  0.4811260000000 1.0
C      1  0.4903990000000  0.4411310000000  0.5320960000000 1.0
C      1  0.5020100000000  0.5039340000000  0.4708640000000 1.0
C      1  0.4760030000000  0.4474890000000  0.5574350000000 1.0
C      1  0.4429660000000  0.5127260000000  0.4423190000000 1.0
C      1  0.5323610000000  0.5469540000000  0.5248460000000 1.0
C      1  0.5596300000000  0.5507640000000  0.5161750000000 1.0
C      1  0.4659590000000  0.5599540000000  0.4876290000000 1.0
C      1  0.4484690000000  0.5098880000000  0.5433280000000 1.0
C      1  0.5413980000000  0.5160890000000  0.4183030000000 1.0
C      1  0.4868540000000  0.4860510000000  0.4863250000000 1.0
C      1  0.5195620000000  0.4463310000000  0.5325150000000 1.0
C      1  0.5184190000000  0.5305460000000  0.4115330000000 1.0
C      1  0.4503020000000  0.4612840000000  0.5503970000000 1.0
C      1  0.5612650000000  0.5008740000000  0.4270100000000 1.0
C      1  0.5275890000000  0.5305880000000  0.5466060000000 1.0
C      1  0.5178580000000  0.4502520000000  0.4726170000000 1.0
C      1  0.4908780000000  0.5721200000000  0.4792520000000 1.0
END
