TITL C-612601-4209-727 -115.746849615287 125000 -986.165742991185 0 0 161 (C1) n - 1
REM
REM in /home/nfs/bkarasulu/CARBON/AIRSS/Generating-Clusters/TERSOFF/Only-C1/FIRE-HFTN
REM
REM
REM
REM
REM
REM ./C.cell (11c1c37f851c82e70ff6c80c92926a4b)
REM AIRSS Version 0.9.1 bugfix July 2018 build 013d7b7c2542+ Fri, 06 Jul 2018 19:26:36 +0100
REM compiler GCC version 9.2.1 20190827 (Red Hat 9.2.1-1)
REM options -cpp -mtune=generic -march=x86-64 -g -O0 -fpre-include=/usr/include/finclude/math-vector-fortran.h
REM seed -1759357605 -1564681481 1269755875 172162296 -427740911 -281803458 -24843500 1132292975 559753593 -2038330698 -429467284 -1942069239 339332425 1597403002 -977602815 1419638307 1862713138 -778573886 609983200 1521147434 560734446 -476644594 1885135138 -1051537529 1814259259 1692337333 -89395260 97099584 252246191 -487774104 -1773220411 254981186 1303861951
REM
CELL 1.54180   50.00000   50.00000   50.00000   90.00000   90.00000   90.00000
LATT -1
SFAC C  
C      1  0.5172850000000  0.5443380000000  0.4491000000000 1.0
C      1  0.4858810000000  0.5960320000000  0.5431020000000 1.0
C      1  0.4743830000000  0.4493720000000  0.6251180000000 1.0
C      1  0.4623260000000  0.5808860000000  0.4087420000000 1.0
C      1  0.5290630000000  0.5456700000000  0.5807170000000 1.0
C      1  0.3807830000000  0.4864440000000  0.4968300000000 1.0
C      1  0.5658230000000  0.5042300000000  0.4675570000000 1.0
C      1  0.4790550000000  0.4248950000000  0.5138800000000 1.0
C      1  0.5589050000000  0.5871670000000  0.5345460000000 1.0
C      1  0.5406350000000  0.4995940000000  0.4827080000000 1.0
C      1  0.4126230000000  0.5177620000000  0.4724100000000 1.0
C      1  0.5399840000000  0.4856350000000  0.5647760000000 1.0
C      1  0.4135020000000  0.4435380000000  0.4187610000000 1.0
C      1  0.5670610000000  0.5833660000000  0.4871740000000 1.0
C      1  0.6170730000000  0.5066010000000  0.5261770000000 1.0
C      1  0.5936950000000  0.4474540000000  0.4963130000000 1.0
C      1  0.4471510000000  0.4936510000000  0.3835440000000 1.0
C      1  0.4037240000000  0.4672990000000  0.4303740000000 1.0
C      1  0.5323580000000  0.4853780000000  0.5084310000000 1.0
C      1  0.5811800000000  0.5678730000000  0.5322590000000 1.0
C      1  0.4021910000000  0.4911790000000  0.4155300000000 1.0
C      1  0.5800070000000  0.5318420000000  0.5703370000000 1.0
C      1  0.4014260000000  0.4700090000000  0.4585040000000 1.0
C      1  0.4598460000000  0.5881930000000  0.4604820000000 1.0
C      1  0.5538960000000  0.4659780000000  0.5203000000000 1.0
C      1  0.4258800000000  0.3717370000000  0.5205980000000 1.0
C      1  0.5676490000000  0.5782770000000  0.4583880000000 1.0
C      1  0.4814000000000  0.3863940000000  0.4832370000000 1.0
C      1  0.4526280000000  0.4097050000000  0.4079600000000 1.0
C      1  0.4707960000000  0.5294670000000  0.5331160000000 1.0
C      1  0.4383760000000  0.4435850000000  0.5685780000000 1.0
C      1  0.5343780000000  0.5373000000000  0.5299740000000 1.0
C      1  0.4603360000000  0.4730610000000  0.6309940000000 1.0
C      1  0.4766260000000  0.5621560000000  0.4944760000000 1.0
C      1  0.5047650000000  0.5572140000000  0.4023080000000 1.0
C      1  0.4458260000000  0.5380760000000  0.5178370000000 1.0
C      1  0.4653910000000  0.5577250000000  0.4677380000000 1.0
C      1  0.5488340000000  0.4604700000000  0.4165040000000 1.0
C      1  0.4758500000000  0.5574250000000  0.4009620000000 1.0
C      1  0.5557210000000  0.5223890000000  0.5270920000000 1.0
C      1  0.4346070000000  0.4713960000000  0.5724190000000 1.0
C      1  0.4782310000000  0.4198970000000  0.5805980000000 1.0
C      1  0.5207080000000  0.6067350000000  0.5104510000000 1.0
C      1  0.3989380000000  0.5157270000000  0.5399770000000 1.0
C      1  0.6097520000000  0.5238930000000  0.4536630000000 1.0
C      1  0.5333380000000  0.5731010000000  0.5752270000000 1.0
C      1  0.4446760000000  0.5931860000000  0.5118260000000 1.0
C      1  0.4969850000000  0.4263750000000  0.4890130000000 1.0
C      1  0.4837120000000  0.5464470000000  0.5541660000000 1.0
C      1  0.5602950000000  0.3903460000000  0.5080040000000 1.0
C      1  0.5566670000000  0.4405650000000  0.4614270000000 1.0
C      1  0.4538500000000  0.5645260000000  0.5107220000000 1.0
C      1  0.4144320000000  0.5740450000000  0.5506990000000 1.0
C      1  0.5960740000000  0.4447390000000  0.5454920000000 1.0
C      1  0.5519640000000  0.4359760000000  0.5254900000000 1.0
C      1  0.4272140000000  0.5260870000000  0.4974080000000 1.0
C      1  0.5184570000000  0.5531760000000  0.5166590000000 1.0
C      1  0.4172760000000  0.5152040000000  0.4176390000000 1.0
C      1  0.5862100000000  0.4711230000000  0.5582260000000 1.0
C      1  0.4739440000000  0.5155270000000  0.4231170000000 1.0
C      1  0.5129630000000  0.4693960000000  0.4613950000000 1.0
C      1  0.5699650000000  0.5510700000000  0.4466990000000 1.0
C      1  0.4931430000000  0.4703860000000  0.3985790000000 1.0
C      1  0.5941000000000  0.4959830000000  0.5123160000000 1.0
C      1  0.5546720000000  0.5961750000000  0.4405330000000 1.0
C      1  0.4834630000000  0.5369530000000  0.6034180000000 1.0
C      1  0.4932670000000  0.6103060000000  0.4974430000000 1.0
C      1  0.5530000000000  0.5295130000000  0.5817380000000 1.0
C      1  0.4399410000000  0.5145120000000  0.5963990000000 1.0
C      1  0.4219190000000  0.5917610000000  0.5311450000000 1.0
C      1  0.5141440000000  0.6008980000000  0.5396000000000 1.0
C      1  0.5826160000000  0.5302740000000  0.4642720000000 1.0
C      1  0.5306100000000  0.3943300000000  0.5103850000000 1.0
C      1  0.5340430000000  0.4537630000000  0.4730440000000 1.0
C      1  0.4308390000000  0.4864810000000  0.5963620000000 1.0
C      1  0.5747380000000  0.4246310000000  0.5406750000000 1.0
C      1  0.4337690000000  0.4734050000000  0.6210720000000 1.0
C      1  0.5545710000000  0.5425270000000  0.4220260000000 1.0
C      1  0.4912800000000  0.4589640000000  0.4462790000000 1.0
C      1  0.4884390000000  0.6025470000000  0.4694380000000 1.0
C      1  0.4527270000000  0.4736570000000  0.5279090000000 1.0
C      1  0.5191850000000  0.4967550000000  0.4640880000000 1.0
C      1  0.3878220000000  0.4617420000000  0.5071800000000 1.0
C      1  0.5587860000000  0.4737820000000  0.5483940000000 1.0
C      1  0.4793370000000  0.4065660000000  0.4094140000000 1.0
C      1  0.5844860000000  0.5389410000000  0.4926040000000 1.0
C      1  0.4878430000000  0.5136260000000  0.5159430000000 1.0
C      1  0.4807030000000  0.5159620000000  0.4888060000000 1.0
C      1  0.4593100000000  0.4123160000000  0.5329110000000 1.0
C      1  0.4306080000000  0.5302980000000  0.5737880000000 1.0
C      1  0.5061850000000  0.3833670000000  0.4970860000000 1.0
C      1  0.4323170000000  0.4432650000000  0.4879140000000 1.0
C      1  0.5005280000000  0.4230980000000  0.4174410000000 1.0
C      1  0.5102870000000  0.4185960000000  0.4653960000000 1.0
C      1  0.5295740000000  0.4188510000000  0.5267060000000 1.0
C      1  0.5103780000000  0.5896600000000  0.4568870000000 1.0
C      1  0.4383620000000  0.5176730000000  0.3973020000000 1.0
C      1  0.4665800000000  0.5282290000000  0.4670160000000 1.0
C      1  0.5884410000000  0.4962240000000  0.5734210000000 1.0
C      1  0.4875520000000  0.5065430000000  0.6540130000000 1.0
C      1  0.5772640000000  0.4832120000000  0.4537020000000 1.0
C      1  0.5488900000000  0.5967720000000  0.5066800000000 1.0
C      1  0.4914510000000  0.4440170000000  0.5316400000000 1.0
C      1  0.4607420000000  0.5094010000000  0.4470980000000 1.0
C      1  0.4430180000000  0.3907020000000  0.5256740000000 1.0
C      1  0.4163510000000  0.5267430000000  0.4446390000000 1.0
C      1  0.4401730000000  0.5990920000000  0.4819320000000 1.0
C      1  0.4987260000000  0.5056840000000  0.5726710000000 1.0
C      1  0.4690460000000  0.4774040000000  0.3847990000000 1.0
C      1  0.4998340000000  0.5349450000000  0.5781770000000 1.0
C      1  0.5041470000000  0.5600240000000  0.4946010000000 1.0
C      1  0.5934160000000  0.5464480000000  0.5495330000000 1.0
C      1  0.4653170000000  0.4575830000000  0.4571360000000 1.0
C      1  0.5772110000000  0.5186050000000  0.5104540000000 1.0
C      1  0.4616060000000  0.5330220000000  0.4046080000000 1.0
C      1  0.6158690000000  0.5311180000000  0.5388970000000 1.0
C      1  0.4543230000000  0.5919320000000  0.4318600000000 1.0
C      1  0.5212070000000  0.4201270000000  0.4375950000000 1.0
C      1  0.5122610000000  0.4908780000000  0.4048450000000 1.0
C      1  0.4072190000000  0.4490000000000  0.4761470000000 1.0
C      1  0.5521080000000  0.5012770000000  0.5842040000000 1.0
C      1  0.6347610000000  0.5186640000000  0.4467060000000 1.0
C      1  0.5145820000000  0.5634760000000  0.4691170000000 1.0
C      1  0.4236010000000  0.5126920000000  0.5516100000000 1.0
C      1  0.5465540000000  0.4366700000000  0.4339930000000 1.0
C      1  0.4635130000000  0.5190170000000  0.6128440000000 1.0
C      1  0.5283940000000  0.5881880000000  0.4338090000000 1.0
C      1  0.5046100000000  0.4904320000000  0.5254980000000 1.0
C      1  0.4302440000000  0.4239850000000  0.4114930000000 1.0
C      1  0.4534830000000  0.5745770000000  0.5759760000000 1.0
C      1  0.5775960000000  0.4299860000000  0.4783800000000 1.0
C      1  0.5039740000000  0.4174830000000  0.5695140000000 1.0
C      1  0.4757850000000  0.5740700000000  0.5585060000000 1.0
C      1  0.5409190000000  0.4878530000000  0.4086250000000 1.0
C      1  0.4720790000000  0.6062050000000  0.5189270000000 1.0
C      1  0.4528010000000  0.4830230000000  0.4541730000000 1.0
C      1  0.5144380000000  0.4915030000000  0.5548750000000 1.0
C      1  0.4299650000000  0.5593890000000  0.5699170000000 1.0
C      1  0.4818500000000  0.4697060000000  0.5282080000000 1.0
C      1  0.4537950000000  0.4344160000000  0.4711100000000 1.0
C      1  0.4933370000000  0.4506290000000  0.4188160000000 1.0
C      1  0.5368680000000  0.5897710000000  0.5531490000000 1.0
C      1  0.4386700000000  0.4879820000000  0.5492340000000 1.0
C      1  0.5107070000000  0.4282660000000  0.5447910000000 1.0
C      1  0.4711400000000  0.4996200000000  0.6332400000000 1.0
C      1  0.5835650000000  0.5649800000000  0.5027290000000 1.0
C      1  0.6108210000000  0.4423840000000  0.5197830000000 1.0
C      1  0.5733850000000  0.4024330000000  0.4855080000000 1.0
C      1  0.4569320000000  0.4232360000000  0.5609600000000 1.0
C      1  0.5747620000000  0.3966810000000  0.5328690000000 1.0
C      1  0.5804380000000  0.4716720000000  0.5053350000000 1.0
C      1  0.5270080000000  0.5579790000000  0.4229820000000 1.0
C      1  0.4627740000000  0.4054460000000  0.4726640000000 1.0
C      1  0.4345660000000  0.4554270000000  0.5143030000000 1.0
C      1  0.4075650000000  0.4554730000000  0.5251440000000 1.0
C      1  0.5009080000000  0.5097250000000  0.4223820000000 1.0
C      1  0.6594080000000  0.5131390000000  0.4402610000000 1.0
C      1  0.3955220000000  0.4944140000000  0.4736710000000 1.0
C      1  0.5136740000000  0.5170210000000  0.4462610000000 1.0
C      1  0.5544160000000  0.5143270000000  0.4120170000000 1.0
C      1  0.4762700000000  0.4296110000000  0.6070320000000 1.0
END
