TITL C-612600-6631-724 -2002.92699566068 125000 -1178.85847985678 0 0 189 (C1) n - 1
REM
REM in /home/nfs/bkarasulu/CARBON/AIRSS/Generating-Clusters/TERSOFF/Only-C1/FIRE-HFTN
REM
REM
REM
REM
REM
REM ./C.cell (11c1c37f851c82e70ff6c80c92926a4b)
REM AIRSS Version 0.9.1 bugfix July 2018 build 013d7b7c2542+ Fri, 06 Jul 2018 19:26:36 +0100
REM compiler GCC version 9.2.1 20190827 (Red Hat 9.2.1-1)
REM options -cpp -mtune=generic -march=x86-64 -g -O0 -fpre-include=/usr/include/finclude/math-vector-fortran.h
REM seed -260571237 42432781 1569789365 -345588241 1135334425 1086348133 241497555 1846815207 -592403536 1560383281 1453200064 -133749789 -494947548 864341825 1343895156 232382830 940378997 -1605536229 416042734 326900200 1383703847 -521715835 -598880132 -475288598 1293399610 -1263620020 981806856 -1231413721 1143128533 -1925725446 1191344180 1559263451 -1412368231
REM
CELL 1.54180   50.00000   50.00000   50.00000   90.00000   90.00000   90.00000
LATT -1
SFAC C  
C      1  0.4626350000000  0.4861560000000  0.5051780000000 1.0
C      1  0.5493320000000  0.4758220000000  0.5096440000000 1.0
C      1  0.4796800000000  0.5538120000000  0.5318490000000 1.0
C      1  0.5171440000000  0.5746200000000  0.5590690000000 1.0
C      1  0.3824040000000  0.5013510000000  0.5576390000000 1.0
C      1  0.5101750000000  0.5212110000000  0.5198130000000 1.0
C      1  0.4068760000000  0.4572580000000  0.5722700000000 1.0
C      1  0.4619930000000  0.5067190000000  0.5251890000000 1.0
C      1  0.5513550000000  0.5601430000000  0.6047120000000 1.0
C      1  0.3723750000000  0.4639760000000  0.4856700000000 1.0
C      1  0.5507850000000  0.4012250000000  0.4458570000000 1.0
C      1  0.5695810000000  0.5829970000000  0.6025900000000 1.0
C      1  0.5314170000000  0.4797820000000  0.4516480000000 1.0
C      1  0.5362090000000  0.5749880000000  0.4198090000000 1.0
C      1  0.4412550000000  0.5668650000000  0.5607600000000 1.0
C      1  0.5669160000000  0.5171000000000  0.5702780000000 1.0
C      1  0.3908040000000  0.4971040000000  0.4278280000000 1.0
C      1  0.6004940000000  0.4783150000000  0.5583110000000 1.0
C      1  0.4698210000000  0.6279700000000  0.5005260000000 1.0
C      1  0.5570440000000  0.4965250000000  0.4879510000000 1.0
C      1  0.4023020000000  0.5219220000000  0.4133790000000 1.0
C      1  0.5163240000000  0.4048520000000  0.6234720000000 1.0
C      1  0.3792800000000  0.4910210000000  0.4789090000000 1.0
C      1  0.4875440000000  0.5756760000000  0.4336030000000 1.0
C      1  0.4506870000000  0.4493710000000  0.4705840000000 1.0
C      1  0.5139420000000  0.4190560000000  0.6458590000000 1.0
C      1  0.5052720000000  0.5916870000000  0.4950280000000 1.0
C      1  0.4274330000000  0.4681340000000  0.5282050000000 1.0
C      1  0.5995470000000  0.5675750000000  0.4520870000000 1.0
C      1  0.4909040000000  0.4552070000000  0.4393060000000 1.0
C      1  0.4284330000000  0.4399820000000  0.5716460000000 1.0
C      1  0.4517750000000  0.4372200000000  0.4977960000000 1.0
C      1  0.4442760000000  0.6216860000000  0.4883020000000 1.0
C      1  0.4501980000000  0.4140800000000  0.4294930000000 1.0
C      1  0.4814790000000  0.4138150000000  0.4210960000000 1.0
C      1  0.5203530000000  0.4739600000000  0.5115170000000 1.0
C      1  0.5914500000000  0.4290070000000  0.4404330000000 1.0
C      1  0.6172260000000  0.5502980000000  0.5031490000000 1.0
C      1  0.5514010000000  0.5066290000000  0.5472130000000 1.0
C      1  0.4506190000000  0.4249150000000  0.5654330000000 1.0
C      1  0.4783300000000  0.4246620000000  0.5005080000000 1.0
C      1  0.5610420000000  0.5994980000000  0.4699610000000 1.0
C      1  0.4926200000000  0.4597160000000  0.5480220000000 1.0
C      1  0.5354640000000  0.6087070000000  0.4601020000000 1.0
C      1  0.5233620000000  0.4413940000000  0.4802560000000 1.0
C      1  0.5134710000000  0.5039480000000  0.4136970000000 1.0
C      1  0.5493100000000  0.5466180000000  0.4872410000000 1.0
C      1  0.4181060000000  0.5123240000000  0.4993770000000 1.0
C      1  0.5295870000000  0.5508100000000  0.5659130000000 1.0
C      1  0.4702860000000  0.5624550000000  0.4164570000000 1.0
C      1  0.3924140000000  0.5465700000000  0.5295260000000 1.0
C      1  0.5399420000000  0.4314270000000  0.4051360000000 1.0
C      1  0.5157670000000  0.5264140000000  0.5653160000000 1.0
C      1  0.4495180000000  0.4623500000000  0.5133320000000 1.0
C      1  0.5115550000000  0.3898680000000  0.5291140000000 1.0
C      1  0.4378730000000  0.4938400000000  0.4558070000000 1.0
C      1  0.6007490000000  0.4388700000000  0.5244750000000 1.0
C      1  0.5394090000000  0.3904230000000  0.5212640000000 1.0
C      1  0.3923890000000  0.5038400000000  0.5008530000000 1.0
C      1  0.5297340000000  0.4818220000000  0.4034330000000 1.0
C      1  0.4263170000000  0.5833840000000  0.4616250000000 1.0
C      1  0.5129760000000  0.4440300000000  0.6551290000000 1.0
C      1  0.4408190000000  0.4985110000000  0.5457770000000 1.0
C      1  0.5569820000000  0.5461790000000  0.5769280000000 1.0
C      1  0.4129180000000  0.5749700000000  0.4878330000000 1.0
C      1  0.6242930000000  0.4775740000000  0.4959600000000 1.0
C      1  0.4831430000000  0.5263950000000  0.5272150000000 1.0
C      1  0.4040060000000  0.4548080000000  0.5183560000000 1.0
C      1  0.5766700000000  0.5572420000000  0.5304460000000 1.0
C      1  0.4744750000000  0.6163100000000  0.4520590000000 1.0
C      1  0.5583840000000  0.4913320000000  0.4120500000000 1.0
C      1  0.4885320000000  0.6281990000000  0.4762380000000 1.0
C      1  0.5753200000000  0.4662240000000  0.4116150000000 1.0
C      1  0.4241610000000  0.5216570000000  0.5546530000000 1.0
C      1  0.4046890000000  0.4723120000000  0.4183650000000 1.0
C      1  0.4566440000000  0.5356140000000  0.4767630000000 1.0
C      1  0.4704050000000  0.5204400000000  0.4358240000000 1.0
C      1  0.5647240000000  0.4432410000000  0.3975430000000 1.0
C      1  0.5614300000000  0.5913990000000  0.4973760000000 1.0
C      1  0.5658360000000  0.4170240000000  0.4918400000000 1.0
C      1  0.5812730000000  0.5858380000000  0.5774320000000 1.0
C      1  0.4795870000000  0.4902750000000  0.4842880000000 1.0
C      1  0.5221650000000  0.4147240000000  0.5709700000000 1.0
C      1  0.3792700000000  0.4603580000000  0.5333600000000 1.0
C      1  0.5899380000000  0.4888990000000  0.5335220000000 1.0
C      1  0.5649590000000  0.3973970000000  0.5340000000000 1.0
C      1  0.4114360000000  0.4248490000000  0.4757110000000 1.0
C      1  0.4460630000000  0.6065810000000  0.4627290000000 1.0
C      1  0.4581380000000  0.5636750000000  0.5164160000000 1.0
C      1  0.4593770000000  0.5222860000000  0.5842990000000 1.0
C      1  0.4644120000000  0.5601880000000  0.4892400000000 1.0
C      1  0.6186910000000  0.5311920000000  0.4809450000000 1.0
C      1  0.5061250000000  0.4878300000000  0.4921640000000 1.0
C      1  0.6064130000000  0.4557120000000  0.5008750000000 1.0
C      1  0.3968700000000  0.5242650000000  0.5479260000000 1.0
C      1  0.5827800000000  0.5887580000000  0.4548470000000 1.0
C      1  0.4944110000000  0.6034880000000  0.4334120000000 1.0
C      1  0.3861310000000  0.4726140000000  0.5581410000000 1.0
C      1  0.4596550000000  0.5873720000000  0.5707560000000 1.0
C      1  0.5330210000000  0.4091180000000  0.4235530000000 1.0
C      1  0.5245210000000  0.5481140000000  0.4593760000000 1.0
C      1  0.4349760000000  0.5688050000000  0.5316530000000 1.0
C      1  0.5822920000000  0.4157770000000  0.5185560000000 1.0
C      1  0.5988940000000  0.5405080000000  0.5235000000000 1.0
C      1  0.5005710000000  0.5653330000000  0.4567210000000 1.0
C      1  0.4305980000000  0.5191640000000  0.4733310000000 1.0
C      1  0.5046470000000  0.3987870000000  0.4324830000000 1.0
C      1  0.4728680000000  0.4760740000000  0.4281340000000 1.0
C      1  0.5042930000000  0.4347000000000  0.5021330000000 1.0
C      1  0.5192620000000  0.4043600000000  0.5970860000000 1.0
C      1  0.5068190000000  0.4532270000000  0.5243630000000 1.0
C      1  0.5180070000000  0.4922140000000  0.5992960000000 1.0
C      1  0.4951130000000  0.4400300000000  0.4138550000000 1.0
C      1  0.4637440000000  0.6098960000000  0.5514020000000 1.0
C      1  0.5137860000000  0.4694000000000  0.6470540000000 1.0
C      1  0.5150650000000  0.5150650000000  0.4928000000000 1.0
C      1  0.5162200000000  0.4563760000000  0.4565270000000 1.0
C      1  0.4105940000000  0.5653940000000  0.5162980000000 1.0
C      1  0.5608070000000  0.5230340000000  0.4300160000000 1.0
C      1  0.4798450000000  0.5209690000000  0.4639330000000 1.0
C      1  0.5742330000000  0.5647920000000  0.5585210000000 1.0
C      1  0.6037160000000  0.4494130000000  0.5524800000000 1.0
C      1  0.5069730000000  0.5919450000000  0.5789820000000 1.0
C      1  0.5632380000000  0.5233110000000  0.4803990000000 1.0
C      1  0.4999270000000  0.5731030000000  0.5372240000000 1.0
C      1  0.4300960000000  0.3921470000000  0.5081760000000 1.0
C      1  0.4820380000000  0.5815410000000  0.5897070000000 1.0
C      1  0.4162610000000  0.4816260000000  0.3932160000000 1.0
C      1  0.5159160000000  0.5455920000000  0.3857200000000 1.0
C      1  0.4230190000000  0.4257000000000  0.4426080000000 1.0
C      1  0.5285580000000  0.5685700000000  0.3929310000000 1.0
C      1  0.5574220000000  0.4458770000000  0.4917830000000 1.0
C      1  0.3594390000000  0.4620260000000  0.5123520000000 1.0
C      1  0.4593600000000  0.4950990000000  0.5705640000000 1.0
C      1  0.4943550000000  0.3790440000000  0.5087020000000 1.0
C      1  0.4726520000000  0.4410100000000  0.4564770000000 1.0
C      1  0.4983750000000  0.5960880000000  0.5214910000000 1.0
C      1  0.5891800000000  0.4984540000000  0.5774920000000 1.0
C      1  0.4832920000000  0.5307850000000  0.5976320000000 1.0
C      1  0.5606550000000  0.4815450000000  0.5355630000000 1.0
C      1  0.5157980000000  0.4860220000000  0.6264200000000 1.0
C      1  0.4892710000000  0.5724960000000  0.4812140000000 1.0
C      1  0.5107080000000  0.5230380000000  0.4641690000000 1.0
C      1  0.4913630000000  0.3783840000000  0.4815380000000 1.0
C      1  0.5450110000000  0.4601070000000  0.5616080000000 1.0
C      1  0.5073980000000  0.3862480000000  0.4594740000000 1.0
C      1  0.3860350000000  0.5046460000000  0.4550770000000 1.0
C      1  0.4153120000000  0.5093480000000  0.3906960000000 1.0
C      1  0.5019980000000  0.4055960000000  0.5519880000000 1.0
C      1  0.6170910000000  0.5051100000000  0.4960720000000 1.0
C      1  0.5954130000000  0.4313920000000  0.5726890000000 1.0
C      1  0.4785020000000  0.4743510000000  0.5659400000000 1.0
C      1  0.5014760000000  0.5263650000000  0.4007290000000 1.0
C      1  0.5193560000000  0.4521240000000  0.4026100000000 1.0
C      1  0.5813680000000  0.4702640000000  0.4582610000000 1.0
C      1  0.5423880000000  0.5493180000000  0.4343830000000 1.0
C      1  0.5141110000000  0.6141800000000  0.4794410000000 1.0
C      1  0.5055240000000  0.5152290000000  0.5886070000000 1.0
C      1  0.4315950000000  0.4668900000000  0.4587900000000 1.0
C      1  0.5742200000000  0.4130120000000  0.4555470000000 1.0
C      1  0.5249050000000  0.6005150000000  0.4339800000000 1.0
C      1  0.5446660000000  0.3957200000000  0.4931260000000 1.0
C      1  0.5781310000000  0.5250230000000  0.4549020000000 1.0
C      1  0.3961700000000  0.4462010000000  0.4896070000000 1.0
C      1  0.4772320000000  0.6150820000000  0.5259950000000 1.0
C      1  0.6008290000000  0.5113570000000  0.5202030000000 1.0
C      1  0.5351580000000  0.3891620000000  0.4671700000000 1.0
C      1  0.5452070000000  0.4321370000000  0.5669900000000 1.0
C      1  0.6025390000000  0.5396850000000  0.4582940000000 1.0
C      1  0.4050670000000  0.5276970000000  0.4582130000000 1.0
C      1  0.5329030000000  0.4754970000000  0.5819330000000 1.0
C      1  0.5846000000000  0.4564080000000  0.4826270000000 1.0
C      1  0.4741180000000  0.4127450000000  0.5578750000000 1.0
C      1  0.5176310000000  0.5029840000000  0.4425790000000 1.0
C      1  0.5254860000000  0.5146700000000  0.5419600000000 1.0
C      1  0.4922190000000  0.5577630000000  0.6052950000000 1.0
C      1  0.5223440000000  0.5595410000000  0.6131350000000 1.0
C      1  0.5568080000000  0.4832190000000  0.4621980000000 1.0
C      1  0.4776960000000  0.5354910000000  0.4136250000000 1.0
C      1  0.4434480000000  0.5706760000000  0.4168710000000 1.0
C      1  0.4307860000000  0.4156930000000  0.4946820000000 1.0
C      1  0.4233670000000  0.5672390000000  0.4366610000000 1.0
C      1  0.5702020000000  0.4229820000000  0.5770400000000 1.0
C      1  0.4561370000000  0.4970180000000  0.4343080000000 1.0
C      1  0.5885840000000  0.4570320000000  0.4351430000000 1.0
C      1  0.4170980000000  0.4542530000000  0.4366800000000 1.0
C      1  0.4397480000000  0.5398990000000  0.5710870000000 1.0
C      1  0.4085070000000  0.5426670000000  0.4337930000000 1.0
C      1  0.5597410000000  0.5647830000000  0.5071660000000 1.0
END
