TITL C-612606-7351-251 0.0371977868004733 125000 -1061.5896714711 0 0 173 (C1) n - 1
REM
REM in /home/nfs/bkarasulu/CARBON/AIRSS/Generating-Clusters/TERSOFF/Only-C1/FIRE-HFTN
REM
REM
REM
REM
REM
REM ./C.cell (11c1c37f851c82e70ff6c80c92926a4b)
REM AIRSS Version 0.9.1 bugfix July 2018 build 013d7b7c2542+ Fri, 06 Jul 2018 19:26:36 +0100
REM compiler GCC version 9.2.1 20190827 (Red Hat 9.2.1-1)
REM options -cpp -mtune=generic -march=x86-64 -g -O0 -fpre-include=/usr/include/finclude/math-vector-fortran.h
REM seed 523708701 472554042 506410888 -2132571577 -1389536047 1796937623 -157298270 -1145586873 457078205 -791643023 1498296752 253905857 522427837 -1570751253 -341113637 -226923392 1856255416 1105487000 -1596764296 -1680951605 176388217 -1247039843 -929131934 1198392794 1460590054 2026533348 -981906557 1173141296 -506775302 228488561 -1696429947 -1310264293 855922185
REM
CELL 1.54180   50.00000   50.00000   50.00000   90.00000   90.00000   90.00000
LATT -1
SFAC C  
C      1  0.4607040000000  0.4094250000000  0.5707430000000 1.0
C      1  0.4873760000000  0.4707850000000  0.5576270000000 1.0
C      1  0.5961950000000  0.5230270000000  0.4547430000000 1.0
C      1  0.5413760000000  0.4477590000000  0.5642950000000 1.0
C      1  0.5631130000000  0.5600150000000  0.5787810000000 1.0
C      1  0.5534320000000  0.4460810000000  0.4116020000000 1.0
C      1  0.5277900000000  0.5046740000000  0.5570300000000 1.0
C      1  0.4851240000000  0.4117550000000  0.4258170000000 1.0
C      1  0.5077430000000  0.5527690000000  0.5291700000000 1.0
C      1  0.5851640000000  0.5150040000000  0.5423840000000 1.0
C      1  0.4560920000000  0.5528240000000  0.4898560000000 1.0
C      1  0.5322650000000  0.4090450000000  0.5385280000000 1.0
C      1  0.5495430000000  0.4499440000000  0.4588420000000 1.0
C      1  0.4667610000000  0.5511690000000  0.5905070000000 1.0
C      1  0.5467640000000  0.3997440000000  0.4230620000000 1.0
C      1  0.5145310000000  0.4802430000000  0.4499950000000 1.0
C      1  0.5416300000000  0.3960270000000  0.5144480000000 1.0
C      1  0.5384840000000  0.5576080000000  0.3961600000000 1.0
C      1  0.4953230000000  0.5021700000000  0.4977920000000 1.0
C      1  0.4209740000000  0.5417780000000  0.4294530000000 1.0
C      1  0.4706430000000  0.5969670000000  0.4397940000000 1.0
C      1  0.4938250000000  0.5016890000000  0.3873560000000 1.0
C      1  0.5940080000000  0.4592030000000  0.4959990000000 1.0
C      1  0.5385080000000  0.5992830000000  0.4822990000000 1.0
C      1  0.5312060000000  0.5948470000000  0.5448340000000 1.0
C      1  0.5390860000000  0.4508640000000  0.5152990000000 1.0
C      1  0.4600340000000  0.4595520000000  0.4627210000000 1.0
C      1  0.5006770000000  0.5053940000000  0.6199050000000 1.0
C      1  0.5286750000000  0.5236590000000  0.4262270000000 1.0
C      1  0.4343830000000  0.5038540000000  0.3660980000000 1.0
C      1  0.5817510000000  0.4317590000000  0.4967280000000 1.0
C      1  0.5397970000000  0.4361410000000  0.5396820000000 1.0
C      1  0.4756290000000  0.5660380000000  0.4756330000000 1.0
C      1  0.5894720000000  0.5922730000000  0.4922420000000 1.0
C      1  0.5542010000000  0.4674420000000  0.5783450000000 1.0
C      1  0.5014140000000  0.5173250000000  0.5601440000000 1.0
C      1  0.3722490000000  0.5058400000000  0.4819520000000 1.0
C      1  0.5879520000000  0.4712080000000  0.4412980000000 1.0
C      1  0.5213750000000  0.3775540000000  0.5056790000000 1.0
C      1  0.6059500000000  0.5058140000000  0.4755040000000 1.0
C      1  0.5531290000000  0.4187590000000  0.4047600000000 1.0
C      1  0.6096740000000  0.5283930000000  0.4303090000000 1.0
C      1  0.4679570000000  0.4982920000000  0.4972500000000 1.0
C      1  0.4240070000000  0.5205480000000  0.5891820000000 1.0
C      1  0.5533010000000  0.5358510000000  0.4345130000000 1.0
C      1  0.4010560000000  0.4458210000000  0.4623300000000 1.0
C      1  0.4711610000000  0.5964830000000  0.4712550000000 1.0
C      1  0.4442970000000  0.5358710000000  0.5980990000000 1.0
C      1  0.4564050000000  0.5026690000000  0.5436650000000 1.0
C      1  0.5310880000000  0.4938510000000  0.5309630000000 1.0
C      1  0.4854170000000  0.4002560000000  0.5646000000000 1.0
C      1  0.4788560000000  0.4119290000000  0.4883570000000 1.0
C      1  0.4423290000000  0.5015080000000  0.4326690000000 1.0
C      1  0.4719580000000  0.5397600000000  0.4155930000000 1.0
C      1  0.4799910000000  0.4989170000000  0.5594270000000 1.0
C      1  0.4583400000000  0.4529750000000  0.5899740000000 1.0
C      1  0.4229100000000  0.4334280000000  0.4479520000000 1.0
C      1  0.5702740000000  0.5617270000000  0.5503880000000 1.0
C      1  0.4598800000000  0.5116410000000  0.4504460000000 1.0
C      1  0.6117020000000  0.5216980000000  0.4987420000000 1.0
C      1  0.5860880000000  0.5672540000000  0.4134870000000 1.0
C      1  0.5470250000000  0.5096400000000  0.6019430000000 1.0
C      1  0.5279800000000  0.4319980000000  0.4538800000000 1.0
C      1  0.4577380000000  0.4707140000000  0.4907120000000 1.0
C      1  0.4579590000000  0.5916630000000  0.5298830000000 1.0
C      1  0.4243430000000  0.4388070000000  0.5516990000000 1.0
C      1  0.4417950000000  0.5989640000000  0.4808460000000 1.0
C      1  0.5115350000000  0.6040930000000  0.5260240000000 1.0
C      1  0.4818160000000  0.4582240000000  0.4058430000000 1.0
C      1  0.5861590000000  0.4882180000000  0.4168390000000 1.0
C      1  0.4929920000000  0.5533730000000  0.4567580000000 1.0
C      1  0.4836100000000  0.6031070000000  0.5325820000000 1.0
C      1  0.4391730000000  0.4815510000000  0.5475200000000 1.0
C      1  0.4451810000000  0.5371660000000  0.5080560000000 1.0
C      1  0.5994250000000  0.4158420000000  0.6051380000000 1.0
C      1  0.3945150000000  0.4425220000000  0.4905810000000 1.0
C      1  0.5863890000000  0.5422120000000  0.5358570000000 1.0
C      1  0.5981980000000  0.4770140000000  0.4707130000000 1.0
C      1  0.4148810000000  0.4674100000000  0.5509260000000 1.0
C      1  0.5674720000000  0.4513900000000  0.4372610000000 1.0
C      1  0.4536060000000  0.4609490000000  0.4141750000000 1.0
C      1  0.5185150000000  0.5381190000000  0.4022470000000 1.0
C      1  0.5392390000000  0.4762280000000  0.4658670000000 1.0
C      1  0.5110590000000  0.5727270000000  0.4447580000000 1.0
C      1  0.4917070000000  0.4353680000000  0.4955450000000 1.0
C      1  0.5425010000000  0.4935090000000  0.5788700000000 1.0
C      1  0.4901460000000  0.5563530000000  0.6055420000000 1.0
C      1  0.6070750000000  0.5066570000000  0.4124930000000 1.0
C      1  0.5177410000000  0.5491300000000  0.6034240000000 1.0
C      1  0.4164070000000  0.4953770000000  0.4768540000000 1.0
C      1  0.4458870000000  0.5554670000000  0.4226520000000 1.0
C      1  0.3887140000000  0.5743310000000  0.5081690000000 1.0
C      1  0.4458250000000  0.4489480000000  0.4401710000000 1.0
C      1  0.3748390000000  0.5515660000000  0.5129820000000 1.0
C      1  0.5279750000000  0.4049000000000  0.4437430000000 1.0
C      1  0.4236560000000  0.4908780000000  0.3876830000000 1.0
C      1  0.5231850000000  0.5219170000000  0.6118500000000 1.0
C      1  0.4936160000000  0.5433910000000  0.5511510000000 1.0
C      1  0.5479100000000  0.4789080000000  0.5131320000000 1.0
C      1  0.5649140000000  0.4099670000000  0.5019600000000 1.0
C      1  0.3973040000000  0.4833790000000  0.3877840000000 1.0
C      1  0.4900140000000  0.4672120000000  0.5298060000000 1.0
C      1  0.5567330000000  0.5837450000000  0.5377740000000 1.0
C      1  0.4054810000000  0.5390530000000  0.5483090000000 1.0
C      1  0.4716440000000  0.3926650000000  0.5079510000000 1.0
C      1  0.6089760000000  0.5546970000000  0.4203520000000 1.0
C      1  0.6026150000000  0.5457740000000  0.5121860000000 1.0
C      1  0.5655700000000  0.6033240000000  0.4879890000000 1.0
C      1  0.4174510000000  0.4013220000000  0.4835040000000 1.0
C      1  0.5161920000000  0.6082240000000  0.4978990000000 1.0
C      1  0.4287760000000  0.4767020000000  0.4916020000000 1.0
C      1  0.5980550000000  0.4834030000000  0.5743420000000 1.0
C      1  0.5681270000000  0.5274090000000  0.4567700000000 1.0
C      1  0.4457620000000  0.5827500000000  0.4336440000000 1.0
C      1  0.4257200000000  0.4067540000000  0.4579610000000 1.0
C      1  0.4441720000000  0.4329630000000  0.5737680000000 1.0
C      1  0.4914400000000  0.4392250000000  0.4241960000000 1.0
C      1  0.4098570000000  0.4212770000000  0.5032490000000 1.0
C      1  0.5502830000000  0.4912950000000  0.4869250000000 1.0
C      1  0.5606380000000  0.4893880000000  0.4021060000000 1.0
C      1  0.4082140000000  0.5158180000000  0.5663370000000 1.0
C      1  0.5240210000000  0.5870000000000  0.5714560000000 1.0
C      1  0.4699730000000  0.5555640000000  0.5623400000000 1.0
C      1  0.4960780000000  0.5912310000000  0.4289290000000 1.0
C      1  0.6071410000000  0.3930910000000  0.6152610000000 1.0
C      1  0.4855950000000  0.4543330000000  0.5798270000000 1.0
C      1  0.5104100000000  0.4002560000000  0.5544760000000 1.0
C      1  0.3840300000000  0.5310750000000  0.5298920000000 1.0
C      1  0.5962240000000  0.4892760000000  0.5459790000000 1.0
C      1  0.5829430000000  0.5624120000000  0.5976600000000 1.0
C      1  0.5388530000000  0.4697020000000  0.4006720000000 1.0
C      1  0.5287880000000  0.5509530000000  0.5131560000000 1.0
C      1  0.4029760000000  0.5301090000000  0.4462870000000 1.0
C      1  0.5073600000000  0.4509440000000  0.4442360000000 1.0
C      1  0.5561510000000  0.5189380000000  0.4813810000000 1.0
C      1  0.4500980000000  0.5695880000000  0.5476910000000 1.0
C      1  0.4220260000000  0.5621390000000  0.5423580000000 1.0
C      1  0.3775640000000  0.4615720000000  0.5025360000000 1.0
C      1  0.5035590000000  0.4757620000000  0.3954100000000 1.0
C      1  0.5602100000000  0.5569100000000  0.4150450000000 1.0
C      1  0.5075610000000  0.5215140000000  0.4842050000000 1.0
C      1  0.4920890000000  0.5293690000000  0.3957380000000 1.0
C      1  0.5988550000000  0.4719450000000  0.5226020000000 1.0
C      1  0.4942690000000  0.3748430000000  0.5101720000000 1.0
C      1  0.5052680000000  0.4433210000000  0.5952050000000 1.0
C      1  0.4776640000000  0.4908070000000  0.6194020000000 1.0
C      1  0.4839970000000  0.5273190000000  0.4428030000000 1.0
C      1  0.3962600000000  0.4905120000000  0.5528200000000 1.0
C      1  0.5475590000000  0.5389270000000  0.4988520000000 1.0
C      1  0.4397120000000  0.4851740000000  0.4101210000000 1.0
C      1  0.5019800000000  0.3946930000000  0.4385520000000 1.0
C      1  0.4546930000000  0.5132490000000  0.5175320000000 1.0
C      1  0.3729780000000  0.4893620000000  0.5058720000000 1.0
C      1  0.4923100000000  0.6131670000000  0.4831350000000 1.0
C      1  0.5191550000000  0.4407230000000  0.4977170000000 1.0
C      1  0.5817140000000  0.4620210000000  0.5830000000000 1.0
C      1  0.5086030000000  0.5076690000000  0.4400790000000 1.0
C      1  0.4754520000000  0.4542370000000  0.5090590000000 1.0
C      1  0.3806580000000  0.5022090000000  0.5301900000000 1.0
C      1  0.6035360000000  0.5710520000000  0.5001970000000 1.0
C      1  0.5913650000000  0.4388420000000  0.5947540000000 1.0
C      1  0.5059500000000  0.4884430000000  0.5191470000000 1.0
C      1  0.5352530000000  0.5650110000000  0.5862970000000 1.0
C      1  0.4278090000000  0.5910720000000  0.4560450000000 1.0
C      1  0.4490140000000  0.4014830000000  0.5239060000000 1.0
C      1  0.3958210000000  0.5117850000000  0.4669230000000 1.0
C      1  0.5747450000000  0.5128580000000  0.6075590000000 1.0
C      1  0.4264370000000  0.4206780000000  0.5273590000000 1.0
C      1  0.5322610000000  0.5831090000000  0.4598960000000 1.0
C      1  0.4585550000000  0.4730450000000  0.6107150000000 1.0
C      1  0.4139030000000  0.5799450000000  0.5194570000000 1.0
C      1  0.5969710000000  0.5046610000000  0.5937520000000 1.0
C      1  0.4368360000000  0.5949390000000  0.5090270000000 1.0
END
