TITL C-612604-1799-457 -1.50195629303198e-05 125000 -99.8580401846962 0 0 18 (C1) n - 1
REM
REM in /home/nfs/bkarasulu/CARBON/AIRSS/Generating-Clusters/TERSOFF/Only-C1/FIRE-HFTN
REM
REM
REM
REM
REM
REM ./C.cell (11c1c37f851c82e70ff6c80c92926a4b)
REM AIRSS Version 0.9.1 bugfix July 2018 build 013d7b7c2542+ Fri, 06 Jul 2018 19:26:36 +0100
REM compiler GCC version 9.2.1 20190827 (Red Hat 9.2.1-1)
REM options -cpp -mtune=generic -march=x86-64 -g -O0 -fpre-include=/usr/include/finclude/math-vector-fortran.h
REM seed -855006786 333371762 -1589957491 1955275119 1903097664 -50567157 1611418501 -91116395 630780815 -1834372583 -1893693811 -1086985172 -659081503 -115272169 766685725 -354298751 -1922364582 -1087007516 1285094223 1528928172 1833676376 -797178993 -971503975 763457856 -1609979320 1494981443 -657107286 2013432662 922207649 41675103 476227061 -117895232 -845400907
REM
CELL 1.54180   50.00000   50.00000   50.00000   90.00000   90.00000   90.00000
LATT -1
SFAC C  
C      1  0.5119640000000  0.4750200000000  0.4691220000000 1.0
C      1  0.5256770000000  0.5134850000000  0.5406180000000 1.0
C      1  0.5267860000000  0.4516040000000  0.4654760000000 1.0
C      1  0.5355310000000  0.5195020000000  0.4925990000000 1.0
C      1  0.5403950000000  0.4296470000000  0.4620330000000 1.0
C      1  0.5216180000000  0.5270870000000  0.5160920000000 1.0
C      1  0.4664880000000  0.4784670000000  0.4863290000000 1.0
C      1  0.5248280000000  0.4984390000000  0.4774620000000 1.0
C      1  0.5584560000000  0.5322590000000  0.4850150000000 1.0
C      1  0.4739130000000  0.4707840000000  0.4394260000000 1.0
C      1  0.4972030000000  0.5412790000000  0.5141190000000 1.0
C      1  0.4704130000000  0.5353600000000  0.5209860000000 1.0
C      1  0.4587350000000  0.4898530000000  0.5090920000000 1.0
C      1  0.4838130000000  0.4746030000000  0.4646470000000 1.0
C      1  0.5071530000000  0.5013590000000  0.5561380000000 1.0
C      1  0.4660290000000  0.5081380000000  0.5289930000000 1.0
C      1  0.4504200000000  0.5538580000000  0.5202350000000 1.0
C      1  0.4805780000000  0.4992570000000  0.5516190000000 1.0
END
