TITL C-612606-7351-1202 27790.6491162466 125000 -1164.05830382421 0 0 191 (C1) n - 1
REM
REM in /home/nfs/bkarasulu/CARBON/AIRSS/Generating-Clusters/TERSOFF/Only-C1/FIRE-HFTN
REM
REM
REM
REM
REM
REM ./C.cell (11c1c37f851c82e70ff6c80c92926a4b)
REM AIRSS Version 0.9.1 bugfix July 2018 build 013d7b7c2542+ Fri, 06 Jul 2018 19:26:36 +0100
REM compiler GCC version 9.2.1 20190827 (Red Hat 9.2.1-1)
REM options -cpp -mtune=generic -march=x86-64 -g -O0 -fpre-include=/usr/include/finclude/math-vector-fortran.h
REM seed -1143920923 251906611 -986380229 -2112059655 -683019838 233446412 -1617177792 1881157256 1133111991 -610152857 -1145603303 -1906218958 1360715147 -879961354 -114869734 -623809789 1953258524 1949120584 1928703720 1294096182 -1751045793 -1586875707 413300305 -1039437566 -1618445285 277237892 -506906177 1108389271 616142505 -2026793691 1641208666 -143777759 205791600
REM
CELL 1.54180   50.00000   50.00000   50.00000   90.00000   90.00000   90.00000
LATT -1
SFAC C  
C      1  0.3265850000000  0.5528430000000  0.3687310000000 1.0
C      1  0.5493210000000  0.4360600000000  0.6056130000000 1.0
C      1  0.5213390000000  0.6063200000000  0.6127480000000 1.0
C      1  0.5382560000000  0.5083350000000  0.4901760000000 1.0
C      1  0.5364770000000  0.6239920000000  0.5007130000000 1.0
C      1  0.5657610000000  0.5323050000000  0.4029390000000 1.0
C      1  0.5848580000000  0.5695510000000  0.4263760000000 1.0
C      1  0.5853520000000  0.4230510000000  0.5333540000000 1.0
C      1  0.5553640000000  0.6057460000000  0.4515540000000 1.0
C      1  0.4745190000000  0.6224780000000  0.5346980000000 1.0
C      1  0.5744510000000  0.4044010000000  0.5171140000000 1.0
C      1  0.6362650000000  0.4775800000000  0.5413000000000 1.0
C      1  0.5642300000000  0.6214020000000  0.4955740000000 1.0
C      1  0.3389640000000  0.5364190000000  0.3854390000000 1.0
C      1  0.5766540000000  0.4501070000000  0.5334510000000 1.0
C      1  0.4756280000000  0.5558800000000  0.5537960000000 1.0
C      1  0.4546540000000  0.3922510000000  0.5401140000000 1.0
C      1  0.4137300000000  0.4566520000000  0.4875470000000 1.0
C      1  0.4280680000000  0.4739070000000  0.4661520000000 1.0
C      1  0.6009140000000  0.5679340000000  0.4952510000000 1.0
C      1  0.5036260000000  0.4213750000000  0.4941300000000 1.0
C      1  0.5614380000000  0.5453230000000  0.6465300000000 1.0
C      1  0.5057850000000  0.5965440000000  0.4368930000000 1.0
C      1  0.4950590000000  0.5178470000000  0.4696500000000 1.0
C      1  0.5387570000000  0.4700700000000  0.5159060000000 1.0
C      1  0.5061440000000  0.3748800000000  0.4832210000000 1.0
C      1  0.5474340000000  0.6021780000000  0.6073830000000 1.0
C      1  0.5300480000000  0.5403870000000  0.5502470000000 1.0
C      1  0.4683040000000  0.5127050000000  0.5658890000000 1.0
C      1  0.4012590000000  0.4828600000000  0.4515240000000 1.0
C      1  0.4820380000000  0.3877660000000  0.5512250000000 1.0
C      1  0.4442220000000  0.5487920000000  0.5889100000000 1.0
C      1  0.5553540000000  0.5123230000000  0.5807870000000 1.0
C      1  0.5201490000000  0.4195280000000  0.5664940000000 1.0
C      1  0.4717240000000  0.4280710000000  0.4536110000000 1.0
C      1  0.5524670000000  0.5415180000000  0.3798510000000 1.0
C      1  0.5751190000000  0.5622450000000  0.5069100000000 1.0
C      1  0.4443280000000  0.4578980000000  0.5610100000000 1.0
C      1  0.5577510000000  0.4359810000000  0.4303400000000 1.0
C      1  0.4552420000000  0.5684110000000  0.6067320000000 1.0
C      1  0.5059180000000  0.5357830000000  0.3784200000000 1.0
C      1  0.4706260000000  0.4906910000000  0.5827940000000 1.0
C      1  0.4927510000000  0.4658530000000  0.5490870000000 1.0
C      1  0.5301450000000  0.4442510000000  0.5849620000000 1.0
C      1  0.6170630000000  0.5226600000000  0.5400730000000 1.0
C      1  0.4956800000000  0.4194750000000  0.4669100000000 1.0
C      1  0.4903700000000  0.5849570000000  0.5060860000000 1.0
C      1  0.3667140000000  0.5062330000000  0.4189660000000 1.0
C      1  0.5102150000000  0.5943840000000  0.4087940000000 1.0
C      1  0.5401040000000  0.5548450000000  0.4383620000000 1.0
C      1  0.6021980000000  0.5308930000000  0.4668840000000 1.0
C      1  0.4768960000000  0.4205720000000  0.3619720000000 1.0
C      1  0.4481700000000  0.6166360000000  0.5255620000000 1.0
C      1  0.3910720000000  0.4401030000000  0.5293360000000 1.0
C      1  0.5209960000000  0.5797600000000  0.3888920000000 1.0
C      1  0.4932030000000  0.4065470000000  0.5694460000000 1.0
C      1  0.5416730000000  0.4656830000000  0.5651230000000 1.0
C      1  0.3752370000000  0.4879530000000  0.5025890000000 1.0
C      1  0.4989130000000  0.4894310000000  0.5054410000000 1.0
C      1  0.5257800000000  0.5052120000000  0.4376680000000 1.0
C      1  0.5111890000000  0.4676850000000  0.4782930000000 1.0
C      1  0.6008950000000  0.4526700000000  0.4917400000000 1.0
C      1  0.5187910000000  0.3561410000000  0.5397270000000 1.0
C      1  0.4857850000000  0.4855980000000  0.5314820000000 1.0
C      1  0.5304550000000  0.5116520000000  0.5412300000000 1.0
C      1  0.4683030000000  0.5462830000000  0.4484590000000 1.0
C      1  0.3955010000000  0.5289520000000  0.4832130000000 1.0
C      1  0.5469280000000  0.4529000000000  0.5385180000000 1.0
C      1  0.5894280000000  0.4683960000000  0.5146130000000 1.0
C      1  0.5817900000000  0.5053890000000  0.5869840000000 1.0
C      1  0.4954790000000  0.6099760000000  0.5198650000000 1.0
C      1  0.4573750000000  0.4481800000000  0.4683130000000 1.0
C      1  0.5455820000000  0.5463570000000  0.6258730000000 1.0
C      1  0.4022990000000  0.4358890000000  0.4417380000000 1.0
C      1  0.4855550000000  0.5260360000000  0.4443110000000 1.0
C      1  0.4602420000000  0.5153580000000  0.5124940000000 1.0
C      1  0.5800310000000  0.4487230000000  0.4719540000000 1.0
C      1  0.4830120000000  0.5763100000000  0.6082700000000 1.0
C      1  0.3997950000000  0.4890430000000  0.5761230000000 1.0
C      1  0.5345350000000  0.5924970000000  0.5407570000000 1.0
C      1  0.4817290000000  0.5104560000000  0.4930920000000 1.0
C      1  0.5879330000000  0.4971930000000  0.5075440000000 1.0
C      1  0.4927210000000  0.4738190000000  0.5767560000000 1.0
C      1  0.4688100000000  0.5066840000000  0.5383640000000 1.0
C      1  0.6160190000000  0.5463580000000  0.5556760000000 1.0
C      1  0.4977340000000  0.3719670000000  0.5328840000000 1.0
C      1  0.4354900000000  0.3838640000000  0.4681060000000 1.0
C      1  0.4211440000000  0.4866350000000  0.5220100000000 1.0
C      1  0.5265100000000  0.6109600000000  0.4526200000000 1.0
C      1  0.5372100000000  0.4629380000000  0.4880680000000 1.0
C      1  0.4169570000000  0.4482340000000  0.4227070000000 1.0
C      1  0.4068540000000  0.5155740000000  0.5779340000000 1.0
C      1  0.4691750000000  0.5074580000000  0.3877810000000 1.0
C      1  0.5296170000000  0.4768100000000  0.4349890000000 1.0
C      1  0.3145110000000  0.5695980000000  0.3521190000000 1.0
C      1  0.6060910000000  0.5638900000000  0.5735280000000 1.0
C      1  0.3974830000000  0.4704050000000  0.5096230000000 1.0
C      1  0.5250530000000  0.4299980000000  0.5378270000000 1.0
C      1  0.4207080000000  0.5761780000000  0.5340960000000 1.0
C      1  0.4447670000000  0.3901850000000  0.4437740000000 1.0
C      1  0.5026680000000  0.5169850000000  0.4230730000000 1.0
C      1  0.5270490000000  0.5540240000000  0.3787020000000 1.0
C      1  0.5509280000000  0.4045170000000  0.4717560000000 1.0
C      1  0.4414240000000  0.5241140000000  0.4603460000000 1.0
C      1  0.4570800000000  0.4786900000000  0.4308320000000 1.0
C      1  0.5291330000000  0.5471920000000  0.6031110000000 1.0
C      1  0.3988780000000  0.4618180000000  0.5714230000000 1.0
C      1  0.5675390000000  0.4297780000000  0.6231350000000 1.0
C      1  0.5138710000000  0.5662180000000  0.5073450000000 1.0
C      1  0.5749960000000  0.6072110000000  0.4730450000000 1.0
C      1  0.5518870000000  0.4068950000000  0.5006880000000 1.0
C      1  0.5270090000000  0.4156280000000  0.5111390000000 1.0
C      1  0.5642390000000  0.5945920000000  0.5859610000000 1.0
C      1  0.5730210000000  0.5611370000000  0.5337670000000 1.0
C      1  0.3828640000000  0.4934750000000  0.4356440000000 1.0
C      1  0.4868090000000  0.3745990000000  0.5056570000000 1.0
C      1  0.4610620000000  0.4443900000000  0.4959010000000 1.0
C      1  0.5669540000000  0.5013150000000  0.4843920000000 1.0
C      1  0.5641680000000  0.5517390000000  0.4240760000000 1.0
C      1  0.4971140000000  0.4427530000000  0.5343120000000 1.0
C      1  0.4844740000000  0.4364180000000  0.5095450000000 1.0
C      1  0.5205040000000  0.5598060000000  0.4585690000000 1.0
C      1  0.4408970000000  0.5899910000000  0.5191550000000 1.0
C      1  0.4941860000000  0.6026040000000  0.6049690000000 1.0
C      1  0.5073160000000  0.4667130000000  0.4502020000000 1.0
C      1  0.6404970000000  0.4616570000000  0.5198580000000 1.0
C      1  0.6136940000000  0.5212300000000  0.4436200000000 1.0
C      1  0.5526200000000  0.5987970000000  0.5607920000000 1.0
C      1  0.3755810000000  0.5129520000000  0.4921400000000 1.0
C      1  0.4468990000000  0.4758750000000  0.5826550000000 1.0
C      1  0.5412720000000  0.4942370000000  0.5632160000000 1.0
C      1  0.5259300000000  0.5648630000000  0.5344310000000 1.0
C      1  0.4186960000000  0.5422120000000  0.5761680000000 1.0
C      1  0.3522220000000  0.5207540000000  0.4021990000000 1.0
C      1  0.4453450000000  0.4949560000000  0.4521060000000 1.0
C      1  0.5230730000000  0.5124600000000  0.4665800000000 1.0
C      1  0.5652100000000  0.4271980000000  0.4573010000000 1.0
C      1  0.4127040000000  0.5595740000000  0.5539780000000 1.0
C      1  0.5026840000000  0.5558930000000  0.6066540000000 1.0
C      1  0.4363300000000  0.4645700000000  0.5340240000000 1.0
C      1  0.6070770000000  0.5199570000000  0.5133060000000 1.0
C      1  0.5040210000000  0.4557240000000  0.5953410000000 1.0
C      1  0.4833470000000  0.4702000000000  0.4362710000000 1.0
C      1  0.4415370000000  0.4600360000000  0.4144380000000 1.0
C      1  0.3025680000000  0.5859920000000  0.3357410000000 1.0
C      1  0.5283280000000  0.3846760000000  0.4686770000000 1.0
C      1  0.4461900000000  0.5050420000000  0.3756690000000 1.0
C      1  0.4607710000000  0.4109800000000  0.4337310000000 1.0
C      1  0.4560670000000  0.4438400000000  0.3963490000000 1.0
C      1  0.5801020000000  0.5078170000000  0.4078380000000 1.0
C      1  0.5884310000000  0.5799570000000  0.5859700000000 1.0
C      1  0.4638460000000  0.5746570000000  0.5106110000000 1.0
C      1  0.5689210000000  0.4817150000000  0.4093090000000 1.0
C      1  0.4645400000000  0.4170380000000  0.4066820000000 1.0
C      1  0.4499200000000  0.4309210000000  0.5688150000000 1.0
C      1  0.4645130000000  0.4445150000000  0.3687000000000 1.0
C      1  0.6048800000000  0.4955450000000  0.5771260000000 1.0
C      1  0.4655700000000  0.5388580000000  0.5731150000000 1.0
C      1  0.4947880000000  0.5720440000000  0.4499140000000 1.0
C      1  0.4729950000000  0.4218750000000  0.5837080000000 1.0
C      1  0.3986950000000  0.4377340000000  0.4686190000000 1.0
C      1  0.4684900000000  0.5535650000000  0.5280650000000 1.0
C      1  0.4846550000000  0.4370820000000  0.6046220000000 1.0
C      1  0.5739930000000  0.5281470000000  0.4725090000000 1.0
C      1  0.4771260000000  0.4038370000000  0.3841600000000 1.0
C      1  0.4222580000000  0.4136650000000  0.5053390000000 1.0
C      1  0.4584130000000  0.3839150000000  0.5115320000000 1.0
C      1  0.4029750000000  0.4381270000000  0.5548180000000 1.0
C      1  0.6053220000000  0.5112480000000  0.4202150000000 1.0
C      1  0.5234830000000  0.6131760000000  0.5236360000000 1.0
C      1  0.5267230000000  0.4979520000000  0.5154660000000 1.0
C      1  0.4320630000000  0.4144810000000  0.5554140000000 1.0
C      1  0.6121980000000  0.5405170000000  0.4922050000000 1.0
C      1  0.4933570000000  0.5184960000000  0.3963830000000 1.0
C      1  0.5620760000000  0.4714970000000  0.4751860000000 1.0
C      1  0.5522520000000  0.4639830000000  0.4241140000000 1.0
C      1  0.3951800000000  0.4166670000000  0.5140450000000 1.0
C      1  0.6214030000000  0.4979440000000  0.5542630000000 1.0
C      1  0.6286250000000  0.4506210000000  0.4979200000000 1.0
C      1  0.4372100000000  0.3920400000000  0.4947830000000 1.0
C      1  0.5398980000000  0.5374350000000  0.5786370000000 1.0
C      1  0.5205760000000  0.6255040000000  0.4765420000000 1.0
C      1  0.4345930000000  0.4415260000000  0.5068940000000 1.0
C      1  0.5557260000000  0.4172630000000  0.4103020000000 1.0
C      1  0.5304540000000  0.5583270000000  0.4851480000000 1.0
C      1  0.4234500000000  0.5248170000000  0.4836480000000 1.0
C      1  0.4783310000000  0.6288290000000  0.5617420000000 1.0
C      1  0.5981630000000  0.5908300000000  0.4782400000000 1.0
C      1  0.4328610000000  0.5099820000000  0.5070960000000 1.0
C      1  0.5584240000000  0.5498120000000  0.4872640000000 1.0
C      1  0.4829410000000  0.6206870000000  0.5867110000000 1.0
END
