TITL C-612602-9376-730 10107.7698657204 125000 -320.556728316193 0 0 55 (C1) n - 1
REM
REM in /home/nfs/bkarasulu/CARBON/AIRSS/Generating-Clusters/TERSOFF/Only-C1/FIRE-HFTN
REM
REM
REM
REM
REM
REM ./C.cell (11c1c37f851c82e70ff6c80c92926a4b)
REM AIRSS Version 0.9.1 bugfix July 2018 build 013d7b7c2542+ Fri, 06 Jul 2018 19:26:36 +0100
REM compiler GCC version 9.2.1 20190827 (Red Hat 9.2.1-1)
REM options -cpp -mtune=generic -march=x86-64 -g -O0 -fpre-include=/usr/include/finclude/math-vector-fortran.h
REM seed -574895950 99469510 -1545556393 66036856 -1646749736 1079658986 1003071661 56023970 1470697852 398377028 -1877015228 -1655297958 -900302250 786151389 -957284964 1201460382 427414057 1278268731 358056140 419777415 -1018296058 -974951328 -84707050 -1384106617 1648543511 1787190158 -389870290 366548703 1605616344 -239497262 1679912818 -1336303273 -1090687640
REM
CELL 1.54180   50.00000   50.00000   50.00000   90.00000   90.00000   90.00000
LATT -1
SFAC C  
C      1  0.5351320000000  0.5027630000000  0.5328690000000 1.0
C      1  0.5286740000000  0.4584550000000  0.4411530000000 1.0
C      1  0.5049590000000  0.4553060000000  0.4270400000000 1.0
C      1  0.4387070000000  0.4836610000000  0.4294910000000 1.0
C      1  0.4954290000000  0.4125050000000  0.5113130000000 1.0
C      1  0.4746590000000  0.5887620000000  0.4615330000000 1.0
C      1  0.4749130000000  0.4821890000000  0.5705110000000 1.0
C      1  0.4814360000000  0.6170510000000  0.4627190000000 1.0
C      1  0.5392940000000  0.4201720000000  0.5386650000000 1.0
C      1  0.4647130000000  0.6300940000000  0.4806420000000 1.0
C      1  0.5311470000000  0.4829220000000  0.6176350000000 1.0
C      1  0.5801050000000  0.4962490000000  0.4599950000000 1.0
C      1  0.5412230000000  0.5176440000000  0.4797440000000 1.0
C      1  0.5151820000000  0.4994190000000  0.4271460000000 1.0
C      1  0.4598930000000  0.4434440000000  0.4872050000000 1.0
C      1  0.4434450000000  0.4870460000000  0.4797240000000 1.0
C      1  0.5991240000000  0.4551940000000  0.5653740000000 1.0
C      1  0.4371350000000  0.5621550000000  0.4839560000000 1.0
C      1  0.5003720000000  0.4895790000000  0.6602680000000 1.0
C      1  0.4276680000000  0.5084640000000  0.4191320000000 1.0
C      1  0.4565580000000  0.4698510000000  0.4989660000000 1.0
C      1  0.5410660000000  0.5110940000000  0.5068740000000 1.0
C      1  0.5714640000000  0.4567060000000  0.5619710000000 1.0
C      1  0.4750000000000  0.4230380000000  0.4980780000000 1.0
C      1  0.4669530000000  0.4777700000000  0.5233740000000 1.0
C      1  0.5358870000000  0.4864990000000  0.4432500000000 1.0
C      1  0.4879430000000  0.5685460000000  0.4473530000000 1.0
C      1  0.4076860000000  0.5376460000000  0.4542340000000 1.0
C      1  0.6253530000000  0.4545770000000  0.5690520000000 1.0
C      1  0.5107140000000  0.5566940000000  0.4585540000000 1.0
C      1  0.4835340000000  0.4849680000000  0.5447090000000 1.0
C      1  0.6511470000000  0.4540120000000  0.5727870000000 1.0
C      1  0.4354220000000  0.5132460000000  0.4843850000000 1.0
C      1  0.5179140000000  0.4118560000000  0.5253680000000 1.0
C      1  0.4656120000000  0.5411850000000  0.4072800000000 1.0
C      1  0.5091050000000  0.4949240000000  0.5393350000000 1.0
C      1  0.5159050000000  0.4859730000000  0.6390950000000 1.0
C      1  0.5729120000000  0.5232940000000  0.5552950000000 1.0
C      1  0.5573780000000  0.4354560000000  0.5505630000000 1.0
C      1  0.5530290000000  0.4998260000000  0.4608900000000 1.0
C      1  0.4402800000000  0.4723090000000  0.4545140000000 1.0
C      1  0.5452280000000  0.4808360000000  0.5953010000000 1.0
C      1  0.4468800000000  0.6117230000000  0.4913810000000 1.0
C      1  0.4484810000000  0.4453760000000  0.4608660000000 1.0
C      1  0.5280070000000  0.5405460000000  0.4705530000000 1.0
C      1  0.4689600000000  0.4883410000000  0.4121100000000 1.0
C      1  0.5554880000000  0.5023300000000  0.5527220000000 1.0
C      1  0.4516900000000  0.5853580000000  0.4800960000000 1.0
C      1  0.4942180000000  0.4809610000000  0.4187350000000 1.0
C      1  0.5574030000000  0.4799790000000  0.5701860000000 1.0
C      1  0.4850630000000  0.4933120000000  0.6810370000000 1.0
C      1  0.4086260000000  0.5248800000000  0.4306870000000 1.0
C      1  0.4254670000000  0.5381140000000  0.4760650000000 1.0
C      1  0.4527940000000  0.5168200000000  0.4050690000000 1.0
C      1  0.4776230000000  0.5588760000000  0.4231470000000 1.0
END
