TITL C-612601-4209-1323 0.265375153666609 125000 -468.627802820173 0 0 76 (C1) n - 1
REM
REM in /home/nfs/bkarasulu/CARBON/AIRSS/Generating-Clusters/TERSOFF/Only-C1/FIRE-HFTN
REM
REM
REM
REM
REM
REM ./C.cell (11c1c37f851c82e70ff6c80c92926a4b)
REM AIRSS Version 0.9.1 bugfix July 2018 build 013d7b7c2542+ Fri, 06 Jul 2018 19:26:36 +0100
REM compiler GCC version 9.2.1 20190827 (Red Hat 9.2.1-1)
REM options -cpp -mtune=generic -march=x86-64 -g -O0 -fpre-include=/usr/include/finclude/math-vector-fortran.h
REM seed 536917013 -1536345429 -1384536347 -2068717979 1056376589 -1898303424 1159484921 71122150 -1306221563 -963722233 1130875633 1326509766 -771854744 523120292 -670993796 153623789 2111099960 1512736881 1653703200 84519705 -174682447 1192966765 1991431844 -1199330857 13979122 -34289679 -457001977 -1291987898 1522658663 1660322919 1176716205 -1834579990 813285694
REM
CELL 1.54180   50.00000   50.00000   50.00000   90.00000   90.00000   90.00000
LATT -1
SFAC C  
C      1  0.5319040000000  0.5278790000000  0.4337300000000 1.0
C      1  0.5313910000000  0.4344060000000  0.4744250000000 1.0
C      1  0.5355040000000  0.4577670000000  0.4906140000000 1.0
C      1  0.6230350000000  0.5417350000000  0.6191510000000 1.0
C      1  0.4922710000000  0.4758210000000  0.5875230000000 1.0
C      1  0.5432690000000  0.4423600000000  0.5599410000000 1.0
C      1  0.5542190000000  0.4319770000000  0.5811960000000 1.0
C      1  0.4203330000000  0.4984050000000  0.4892390000000 1.0
C      1  0.5150060000000  0.5478710000000  0.4455880000000 1.0
C      1  0.4885650000000  0.3993510000000  0.5366980000000 1.0
C      1  0.4325300000000  0.4644720000000  0.4496090000000 1.0
C      1  0.5699600000000  0.5420920000000  0.5605540000000 1.0
C      1  0.5662850000000  0.5503980000000  0.4954950000000 1.0
C      1  0.4857650000000  0.5996990000000  0.4573650000000 1.0
C      1  0.4708970000000  0.4704090000000  0.4174830000000 1.0
C      1  0.4719360000000  0.4347960000000  0.5714790000000 1.0
C      1  0.4700070000000  0.5818600000000  0.4989710000000 1.0
C      1  0.4847500000000  0.5268630000000  0.4749440000000 1.0
C      1  0.4489220000000  0.5658290000000  0.5031410000000 1.0
C      1  0.5227720000000  0.5092250000000  0.5633150000000 1.0
C      1  0.4931570000000  0.5143200000000  0.4985790000000 1.0
C      1  0.5116800000000  0.4907960000000  0.4046580000000 1.0
C      1  0.4736890000000  0.5855350000000  0.4376700000000 1.0
C      1  0.4672130000000  0.5579950000000  0.4399000000000 1.0
C      1  0.4376220000000  0.4368510000000  0.4523010000000 1.0
C      1  0.4372230000000  0.4863450000000  0.5431560000000 1.0
C      1  0.5306480000000  0.4525880000000  0.5390090000000 1.0
C      1  0.4699520000000  0.4622500000000  0.5774580000000 1.0
C      1  0.4879330000000  0.5419790000000  0.4513440000000 1.0
C      1  0.4313000000000  0.4646120000000  0.5261650000000 1.0
C      1  0.5135520000000  0.5849430000000  0.5365410000000 1.0
C      1  0.5507930000000  0.5416690000000  0.5404370000000 1.0
C      1  0.5535540000000  0.5444880000000  0.4713050000000 1.0
C      1  0.4604260000000  0.4225610000000  0.4513250000000 1.0
C      1  0.4462080000000  0.4460820000000  0.5138770000000 1.0
C      1  0.4921740000000  0.5895020000000  0.4830550000000 1.0
C      1  0.4965840000000  0.4003610000000  0.5096890000000 1.0
C      1  0.4986600000000  0.4687810000000  0.4167090000000 1.0
C      1  0.4929690000000  0.5687080000000  0.5471580000000 1.0
C      1  0.5296220000000  0.5612000000000  0.4668250000000 1.0
C      1  0.5190540000000  0.6092710000000  0.5478400000000 1.0
C      1  0.5120120000000  0.5232120000000  0.5174260000000 1.0
C      1  0.5517870000000  0.5591350000000  0.5181990000000 1.0
C      1  0.4836630000000  0.4886890000000  0.5034380000000 1.0
C      1  0.5878000000000  0.5420560000000  0.5801300000000 1.0
C      1  0.5435110000000  0.4563750000000  0.4273560000000 1.0
C      1  0.5602400000000  0.4757130000000  0.4361580000000 1.0
C      1  0.5194850000000  0.4585430000000  0.5142400000000 1.0
C      1  0.4473180000000  0.4759190000000  0.4286410000000 1.0
C      1  0.5179390000000  0.5775670000000  0.4873420000000 1.0
C      1  0.4852410000000  0.4229910000000  0.4644980000000 1.0
C      1  0.4795140000000  0.4130480000000  0.5578790000000 1.0
C      1  0.4732190000000  0.5510720000000  0.5509170000000 1.0
C      1  0.4210230000000  0.4804620000000  0.4694820000000 1.0
C      1  0.5285910000000  0.5238480000000  0.5403320000000 1.0
C      1  0.5247970000000  0.5129990000000  0.4114290000000 1.0
C      1  0.5525980000000  0.5212510000000  0.4536200000000 1.0
C      1  0.5156460000000  0.4508570000000  0.4313760000000 1.0
C      1  0.4829070000000  0.4193410000000  0.4931060000000 1.0
C      1  0.5501710000000  0.4801860000000  0.4819060000000 1.0
C      1  0.4916330000000  0.4630700000000  0.5103550000000 1.0
C      1  0.4391070000000  0.5131070000000  0.5327110000000 1.0
C      1  0.5109510000000  0.4936080000000  0.5811580000000 1.0
C      1  0.4326860000000  0.5447840000000  0.4936500000000 1.0
C      1  0.4729160000000  0.4420980000000  0.5067290000000 1.0
C      1  0.4260120000000  0.5465500000000  0.4661370000000 1.0
C      1  0.5577040000000  0.4935840000000  0.4581390000000 1.0
C      1  0.4404580000000  0.5503960000000  0.4438100000000 1.0
C      1  0.4294180000000  0.5191840000000  0.5062200000000 1.0
C      1  0.5381410000000  0.4090130000000  0.4850140000000 1.0
C      1  0.4490130000000  0.4783180000000  0.5674700000000 1.0
C      1  0.5287710000000  0.5760210000000  0.5139550000000 1.0
C      1  0.6055650000000  0.5418960000000  0.5998010000000 1.0
C      1  0.5224640000000  0.3934880000000  0.5007100000000 1.0
C      1  0.5097370000000  0.4351750000000  0.4548290000000 1.0
C      1  0.4546260000000  0.5323940000000  0.5463750000000 1.0
END
