TITL C-612605-9286-1226 0.0001941770650633 125000 -772.202593532746 0 0 126 (C1) n - 1
REM
REM in /home/nfs/bkarasulu/CARBON/AIRSS/Generating-Clusters/TERSOFF/Only-C1/FIRE-HFTN
REM
REM
REM
REM
REM
REM ./C.cell (11c1c37f851c82e70ff6c80c92926a4b)
REM AIRSS Version 0.9.1 bugfix July 2018 build 013d7b7c2542+ Fri, 06 Jul 2018 19:26:36 +0100
REM compiler GCC version 9.2.1 20190827 (Red Hat 9.2.1-1)
REM options -cpp -mtune=generic -march=x86-64 -g -O0 -fpre-include=/usr/include/finclude/math-vector-fortran.h
REM seed 1700294700 264239261 -347349145 -1719934192 1067992318 -349139933 914348973 322951887 2052516947 410656024 279858095 1003913240 1628257710 -766627214 -1892360349 -1609168842 1813572059 441454127 -995999193 1787985951 -752050439 1646385175 372860477 2039508882 2102128204 89090184 854604913 586757171 -1593907812 1140086063 1535694692 -1723544178 1773312179
REM
CELL 1.54180   50.00000   50.00000   50.00000   90.00000   90.00000   90.00000
LATT -1
SFAC C  
C      1  0.4852980000000  0.5221900000000  0.5990750000000 1.0
C      1  0.4753640000000  0.6181730000000  0.4874790000000 1.0
C      1  0.4726320000000  0.4223900000000  0.5110400000000 1.0
C      1  0.5721100000000  0.3637640000000  0.5432730000000 1.0
C      1  0.4395420000000  0.5761360000000  0.5428890000000 1.0
C      1  0.5006950000000  0.6202170000000  0.4743580000000 1.0
C      1  0.5330820000000  0.4207260000000  0.4865860000000 1.0
C      1  0.5297500000000  0.5055230000000  0.6147830000000 1.0
C      1  0.6410980000000  0.4906230000000  0.4727360000000 1.0
C      1  0.5035580000000  0.4868700000000  0.5448980000000 1.0
C      1  0.5303890000000  0.5179450000000  0.5002100000000 1.0
C      1  0.5667910000000  0.4751570000000  0.4965570000000 1.0
C      1  0.5594100000000  0.5610690000000  0.5122880000000 1.0
C      1  0.4910540000000  0.4867610000000  0.4841190000000 1.0
C      1  0.4629490000000  0.4379610000000  0.5862700000000 1.0
C      1  0.4668340000000  0.4023330000000  0.5544270000000 1.0
C      1  0.6324690000000  0.4740060000000  0.4916120000000 1.0
C      1  0.6076290000000  0.4799990000000  0.3981470000000 1.0
C      1  0.5350880000000  0.4199720000000  0.5143910000000 1.0
C      1  0.5302180000000  0.5373070000000  0.4799110000000 1.0
C      1  0.4571670000000  0.5952240000000  0.4479820000000 1.0
C      1  0.5305540000000  0.4428240000000  0.5299640000000 1.0
C      1  0.5858220000000  0.4767290000000  0.4120350000000 1.0
C      1  0.4324790000000  0.5027880000000  0.5217880000000 1.0
C      1  0.4085910000000  0.4644610000000  0.5016560000000 1.0
C      1  0.6241800000000  0.5298890000000  0.4432130000000 1.0
C      1  0.4356310000000  0.5461720000000  0.4432880000000 1.0
C      1  0.4710140000000  0.4230570000000  0.4622460000000 1.0
C      1  0.4544290000000  0.6024700000000  0.4751240000000 1.0
C      1  0.4768100000000  0.4899570000000  0.5346370000000 1.0
C      1  0.4497050000000  0.5000960000000  0.5472360000000 1.0
C      1  0.5821460000000  0.5220140000000  0.5406090000000 1.0
C      1  0.4224050000000  0.4145540000000  0.5260490000000 1.0
C      1  0.5198790000000  0.6026610000000  0.4867630000000 1.0
C      1  0.4439410000000  0.5864350000000  0.4965860000000 1.0
C      1  0.5084960000000  0.6003080000000  0.5146780000000 1.0
C      1  0.5313390000000  0.3944470000000  0.5262560000000 1.0
C      1  0.4506320000000  0.4216120000000  0.5668240000000 1.0
C      1  0.5673350000000  0.5035370000000  0.5834040000000 1.0
C      1  0.6129330000000  0.4657540000000  0.5076820000000 1.0
C      1  0.4414270000000  0.4719220000000  0.4134270000000 1.0
C      1  0.5497070000000  0.5795210000000  0.5313730000000 1.0
C      1  0.5520540000000  0.5593610000000  0.4303340000000 1.0
C      1  0.5682050000000  0.4604800000000  0.4726550000000 1.0
C      1  0.4272540000000  0.4294000000000  0.5516440000000 1.0
C      1  0.5063840000000  0.5496750000000  0.4118120000000 1.0
C      1  0.4509210000000  0.5297820000000  0.5542770000000 1.0
C      1  0.5071650000000  0.5357260000000  0.4636570000000 1.0
C      1  0.5781180000000  0.4989590000000  0.5572440000000 1.0
C      1  0.5579640000000  0.4543880000000  0.4475010000000 1.0
C      1  0.4035320000000  0.4577110000000  0.4746660000000 1.0
C      1  0.4313490000000  0.4081520000000  0.4999920000000 1.0
C      1  0.3939180000000  0.4802150000000  0.5222570000000 1.0
C      1  0.5182690000000  0.5116770000000  0.5457140000000 1.0
C      1  0.5347850000000  0.5415020000000  0.4152820000000 1.0
C      1  0.5204050000000  0.4242150000000  0.4618850000000 1.0
C      1  0.4734360000000  0.4900060000000  0.5054590000000 1.0
C      1  0.5154690000000  0.4645240000000  0.4305860000000 1.0
C      1  0.4047830000000  0.5338460000000  0.5400040000000 1.0
C      1  0.5129920000000  0.5252860000000  0.5212430000000 1.0
C      1  0.4045660000000  0.5075360000000  0.5265490000000 1.0
C      1  0.4173900000000  0.4562330000000  0.5576500000000 1.0
C      1  0.4370820000000  0.4992770000000  0.4722450000000 1.0
C      1  0.5310510000000  0.4442260000000  0.4451580000000 1.0
C      1  0.5267690000000  0.5930280000000  0.5345060000000 1.0
C      1  0.4123070000000  0.5321640000000  0.4468450000000 1.0
C      1  0.4934250000000  0.5359550000000  0.5749830000000 1.0
C      1  0.4851700000000  0.4926130000000  0.4553430000000 1.0
C      1  0.4595570000000  0.4469510000000  0.5174110000000 1.0
C      1  0.5014530000000  0.5152830000000  0.4438230000000 1.0
C      1  0.4797170000000  0.6072400000000  0.5157770000000 1.0
C      1  0.5186520000000  0.5928760000000  0.4280620000000 1.0
C      1  0.4542630000000  0.4924230000000  0.4017170000000 1.0
C      1  0.4718090000000  0.5846180000000  0.4279090000000 1.0
C      1  0.5373250000000  0.5843250000000  0.4727660000000 1.0
C      1  0.4813110000000  0.4550170000000  0.5956350000000 1.0
C      1  0.5762630000000  0.5408180000000  0.5224120000000 1.0
C      1  0.5473860000000  0.4955080000000  0.4994360000000 1.0
C      1  0.5644060000000  0.5316620000000  0.5881750000000 1.0
C      1  0.5621190000000  0.4723980000000  0.4256290000000 1.0
C      1  0.5030750000000  0.4723140000000  0.5989400000000 1.0
C      1  0.5482210000000  0.4886550000000  0.5988840000000 1.0
C      1  0.5042810000000  0.3876050000000  0.5282700000000 1.0
C      1  0.5360830000000  0.4848660000000  0.4194650000000 1.0
C      1  0.4448430000000  0.5581060000000  0.4970950000000 1.0
C      1  0.5019150000000  0.5005050000000  0.6077140000000 1.0
C      1  0.3925130000000  0.4649470000000  0.5465220000000 1.0
C      1  0.4408140000000  0.4550450000000  0.4362490000000 1.0
C      1  0.6376670000000  0.5107600000000  0.4557480000000 1.0
C      1  0.6038210000000  0.5450540000000  0.4354850000000 1.0
C      1  0.5795690000000  0.5550820000000  0.4317000000000 1.0
C      1  0.4885000000000  0.4669160000000  0.4405680000000 1.0
C      1  0.5420380000000  0.5433700000000  0.5784950000000 1.0
C      1  0.4207710000000  0.5457780000000  0.4950450000000 1.0
C      1  0.5393230000000  0.5818310000000  0.4438840000000 1.0
C      1  0.5383500000000  0.5127700000000  0.4128700000000 1.0
C      1  0.4721010000000  0.5478900000000  0.4989930000000 1.0
C      1  0.4575910000000  0.4141790000000  0.4870690000000 1.0
C      1  0.5865990000000  0.4697310000000  0.5164610000000 1.0
C      1  0.4634160000000  0.5299550000000  0.6134810000000 1.0
C      1  0.5814580000000  0.4747240000000  0.5436700000000 1.0
C      1  0.4922260000000  0.5254810000000  0.4179620000000 1.0
C      1  0.5314140000000  0.4651380000000  0.5944980000000 1.0
C      1  0.5452080000000  0.5607320000000  0.4869480000000 1.0
C      1  0.5172260000000  0.4626610000000  0.5416570000000 1.0
C      1  0.4811410000000  0.4031130000000  0.5302670000000 1.0
C      1  0.5200290000000  0.5302560000000  0.5672960000000 1.0
C      1  0.4728900000000  0.5117120000000  0.4029680000000 1.0
C      1  0.4811640000000  0.5448880000000  0.4718230000000 1.0
C      1  0.4584140000000  0.5064940000000  0.4553390000000 1.0
C      1  0.4350400000000  0.4563430000000  0.5103180000000 1.0
C      1  0.5521980000000  0.3783760000000  0.5349570000000 1.0
C      1  0.4600120000000  0.5356170000000  0.4536070000000 1.0
C      1  0.4973810000000  0.5762460000000  0.4189910000000 1.0
C      1  0.4463490000000  0.4969870000000  0.4986060000000 1.0
C      1  0.4878470000000  0.5407630000000  0.5230300000000 1.0
C      1  0.4961640000000  0.4100900000000  0.4563240000000 1.0
C      1  0.5408570000000  0.4399270000000  0.5903600000000 1.0
C      1  0.4359510000000  0.4780940000000  0.5630860000000 1.0
C      1  0.4122410000000  0.5093560000000  0.4621400000000 1.0
C      1  0.4770920000000  0.5404800000000  0.5514480000000 1.0
C      1  0.4542650000000  0.5934530000000  0.5237530000000 1.0
C      1  0.4174890000000  0.4525140000000  0.4521190000000 1.0
C      1  0.4293710000000  0.5483940000000  0.5481250000000 1.0
C      1  0.4668240000000  0.4472160000000  0.4461810000000 1.0
C      1  0.4966570000000  0.3849730000000  0.4454770000000 1.0
END
