TITL C-612601-4209-1106 8.4007591335358 125000 -262.042486634629 0 0 45 (C1) n - 1
REM
REM in /home/nfs/bkarasulu/CARBON/AIRSS/Generating-Clusters/TERSOFF/Only-C1/FIRE-HFTN
REM
REM
REM
REM
REM
REM ./C.cell (11c1c37f851c82e70ff6c80c92926a4b)
REM AIRSS Version 0.9.1 bugfix July 2018 build 013d7b7c2542+ Fri, 06 Jul 2018 19:26:36 +0100
REM compiler GCC version 9.2.1 20190827 (Red Hat 9.2.1-1)
REM options -cpp -mtune=generic -march=x86-64 -g -O0 -fpre-include=/usr/include/finclude/math-vector-fortran.h
REM seed -1497542322 1484582537 966047199 -1329689158 1029897264 298686693 1536256141 1726245607 1286029814 6744687 -1066724313 -957606850 1017892173 -2001446908 423256144 -932022047 16306920 -1931895562 247367657 1177569045 -871284872 301430363 -872313928 211329323 -2143585738 428271203 1705094943 1611066770 2035926781 -1974628134 -1875298314 -1737977996 1809697834
REM
CELL 1.54180   50.00000   50.00000   50.00000   90.00000   90.00000   90.00000
LATT -1
SFAC C  
C      1  0.4371970000000  0.4848460000000  0.4705730000000 1.0
C      1  0.5499640000000  0.4818850000000  0.4424920000000 1.0
C      1  0.4882330000000  0.5132950000000  0.4869980000000 1.0
C      1  0.5213950000000  0.5451020000000  0.5045460000000 1.0
C      1  0.5063040000000  0.5591100000000  0.4161080000000 1.0
C      1  0.4604450000000  0.4682060000000  0.5898670000000 1.0
C      1  0.4943690000000  0.5384420000000  0.4990220000000 1.0
C      1  0.4339130000000  0.5346610000000  0.4786780000000 1.0
C      1  0.5284410000000  0.4611600000000  0.4832940000000 1.0
C      1  0.5076310000000  0.4470040000000  0.4240400000000 1.0
C      1  0.5273180000000  0.5807770000000  0.5978110000000 1.0
C      1  0.4850060000000  0.5135280000000  0.4355590000000 1.0
C      1  0.5051870000000  0.4905300000000  0.5488700000000 1.0
C      1  0.5279480000000  0.5678150000000  0.5182420000000 1.0
C      1  0.5449200000000  0.4809260000000  0.4700510000000 1.0
C      1  0.4800060000000  0.4655460000000  0.4864570000000 1.0
C      1  0.4719330000000  0.5553530000000  0.5025130000000 1.0
C      1  0.5275490000000  0.4648030000000  0.5119390000000 1.0
C      1  0.5710430000000  0.5061260000000  0.5518250000000 1.0
C      1  0.5499390000000  0.5048320000000  0.4843230000000 1.0
C      1  0.4646970000000  0.4528930000000  0.4448570000000 1.0
C      1  0.4629960000000  0.4715790000000  0.4231570000000 1.0
C      1  0.4803440000000  0.4997130000000  0.5592320000000 1.0
C      1  0.4759000000000  0.5264230000000  0.5632150000000 1.0
C      1  0.5101330000000  0.4744370000000  0.4155620000000 1.0
C      1  0.4406560000000  0.4751260000000  0.5470520000000 1.0
C      1  0.5358070000000  0.4848440000000  0.4198370000000 1.0
C      1  0.5420080000000  0.5346580000000  0.5773530000000 1.0
C      1  0.4601470000000  0.4806740000000  0.5654820000000 1.0
C      1  0.5413340000000  0.5274380000000  0.4954930000000 1.0
C      1  0.5309310000000  0.4684030000000  0.5839130000000 1.0
C      1  0.5029360000000  0.4519210000000  0.4730430000000 1.0
C      1  0.4924510000000  0.4426500000000  0.4475980000000 1.0
C      1  0.4855960000000  0.4892180000000  0.4201720000000 1.0
C      1  0.4883690000000  0.4885240000000  0.5014620000000 1.0
C      1  0.4953950000000  0.5370730000000  0.4247330000000 1.0
C      1  0.4558590000000  0.4635600000000  0.4704360000000 1.0
C      1  0.5329750000000  0.4484130000000  0.6005050000000 1.0
C      1  0.4463610000000  0.5531860000000  0.4940010000000 1.0
C      1  0.5350150000000  0.5578550000000  0.5880700000000 1.0
C      1  0.5473410000000  0.5102340000000  0.5648570000000 1.0
C      1  0.4452140000000  0.5117420000000  0.4667070000000 1.0
C      1  0.5071620000000  0.4820250000000  0.5221550000000 1.0
C      1  0.4737760000000  0.5138770000000  0.4619220000000 1.0
C      1  0.5278560000000  0.4895870000000  0.5659790000000 1.0
END
