TITL C-612601-4209-363 0.00362039499256687 125000 -251.767096419203 0 0 42 (C1) n - 1
REM
REM in /home/nfs/bkarasulu/CARBON/AIRSS/Generating-Clusters/TERSOFF/Only-C1/FIRE-HFTN
REM
REM
REM
REM
REM
REM ./C.cell (11c1c37f851c82e70ff6c80c92926a4b)
REM AIRSS Version 0.9.1 bugfix July 2018 build 013d7b7c2542+ Fri, 06 Jul 2018 19:26:36 +0100
REM compiler GCC version 9.2.1 20190827 (Red Hat 9.2.1-1)
REM options -cpp -mtune=generic -march=x86-64 -g -O0 -fpre-include=/usr/include/finclude/math-vector-fortran.h
REM seed -413347169 -1587011844 -1530671323 -790732880 -1543311514 794953088 -226803314 -864744383 -1111956691 1534217952 180485408 2011907339 940375266 -916206202 1329019941 -1106881496 279458282 1210364722 1429583062 -1609008214 945974103 -1553656258 2007065309 813404685 -1026179616 -1172671642 -12131376 -1858929411 195203042 -634789727 -1209020346 1601792042 -1874301842
REM
CELL 1.54180   50.00000   50.00000   50.00000   90.00000   90.00000   90.00000
LATT -1
SFAC C  
C      1  0.5298840000000  0.4929150000000  0.5922940000000 1.0
C      1  0.5308150000000  0.4895630000000  0.5085010000000 1.0
C      1  0.4391450000000  0.5560500000000  0.4529350000000 1.0
C      1  0.4037930000000  0.4646700000000  0.4258310000000 1.0
C      1  0.4747410000000  0.4707960000000  0.4492380000000 1.0
C      1  0.4972000000000  0.5323910000000  0.5444360000000 1.0
C      1  0.5187290000000  0.5306120000000  0.5624120000000 1.0
C      1  0.6064930000000  0.5088070000000  0.5518660000000 1.0
C      1  0.4894720000000  0.5139880000000  0.4388570000000 1.0
C      1  0.5630640000000  0.5245160000000  0.4968280000000 1.0
C      1  0.4718990000000  0.4648900000000  0.5362690000000 1.0
C      1  0.4794140000000  0.5650340000000  0.5128790000000 1.0
C      1  0.4934770000000  0.4572570000000  0.4939370000000 1.0
C      1  0.5266600000000  0.4660520000000  0.5918210000000 1.0
C      1  0.4677700000000  0.4892950000000  0.5459030000000 1.0
C      1  0.5365950000000  0.5170900000000  0.5022450000000 1.0
C      1  0.4524150000000  0.4851080000000  0.4380010000000 1.0
C      1  0.4276820000000  0.4745350000000  0.4316490000000 1.0
C      1  0.4759260000000  0.5144810000000  0.5483560000000 1.0
C      1  0.5866610000000  0.5319430000000  0.4886280000000 1.0
C      1  0.4597790000000  0.5731380000000  0.4968150000000 1.0
C      1  0.5163730000000  0.4742210000000  0.4892370000000 1.0
C      1  0.4449320000000  0.5699190000000  0.4749380000000 1.0
C      1  0.5412420000000  0.4799410000000  0.5331270000000 1.0
C      1  0.4850130000000  0.4471650000000  0.5189970000000 1.0
C      1  0.5354790000000  0.4550270000000  0.5451220000000 1.0
C      1  0.5162040000000  0.5366520000000  0.4987740000000 1.0
C      1  0.3802690000000  0.4549900000000  0.4201240000000 1.0
C      1  0.5808140000000  0.5045710000000  0.5505100000000 1.0
C      1  0.4988980000000  0.5459000000000  0.5195200000000 1.0
C      1  0.5213890000000  0.4802440000000  0.4613680000000 1.0
C      1  0.4446010000000  0.5351340000000  0.4373260000000 1.0
C      1  0.4607600000000  0.5126700000000  0.4342990000000 1.0
C      1  0.5461950000000  0.4779540000000  0.4502150000000 1.0
C      1  0.5115870000000  0.5449830000000  0.4722770000000 1.0
C      1  0.5026290000000  0.5365190000000  0.4486030000000 1.0
C      1  0.4885360000000  0.4208730000000  0.5255340000000 1.0
C      1  0.4985510000000  0.4876170000000  0.4463370000000 1.0
C      1  0.5291940000000  0.4492460000000  0.5707840000000 1.0
C      1  0.5535470000000  0.4991060000000  0.5508770000000 1.0
C      1  0.4760850000000  0.4539360000000  0.4715830000000 1.0
C      1  0.5360890000000  0.5102010000000  0.5707470000000 1.0
END
