TITL C-612600-6631-242 0.00149265136894124 125000 -379.621690779469 0 0 64 (C1) n - 1
REM
REM in /home/nfs/bkarasulu/CARBON/AIRSS/Generating-Clusters/TERSOFF/Only-C1/FIRE-HFTN
REM
REM
REM
REM
REM
REM ./C.cell (11c1c37f851c82e70ff6c80c92926a4b)
REM AIRSS Version 0.9.1 bugfix July 2018 build 013d7b7c2542+ Fri, 06 Jul 2018 19:26:36 +0100
REM compiler GCC version 9.2.1 20190827 (Red Hat 9.2.1-1)
REM options -cpp -mtune=generic -march=x86-64 -g -O0 -fpre-include=/usr/include/finclude/math-vector-fortran.h
REM seed -666744634 -311326825 819571939 660629673 1017688674 1877173040 -634265714 -1841387467 1360630919 1535060517 -1246381763 -1816872796 -517164738 85519880 1106237089 -127392141 19784746 630687993 2108503180 -178290330 1300993545 -510070764 858568525 -782307050 154403185 829029353 1388774904 1193094732 -1838621008 -1959917942 205594003 1093010870 1994762820
REM
CELL 1.54180   50.00000   50.00000   50.00000   90.00000   90.00000   90.00000
LATT -1
SFAC C  
C      1  0.4680330000000  0.5323020000000  0.5929060000000 1.0
C      1  0.5049920000000  0.5064970000000  0.4678910000000 1.0
C      1  0.4847220000000  0.4861310000000  0.4713380000000 1.0
C      1  0.5129550000000  0.4877710000000  0.5644190000000 1.0
C      1  0.5277370000000  0.4586810000000  0.4936150000000 1.0
C      1  0.4925570000000  0.4296300000000  0.4925610000000 1.0
C      1  0.4628900000000  0.4698470000000  0.5212850000000 1.0
C      1  0.5503850000000  0.5576040000000  0.5115800000000 1.0
C      1  0.4266330000000  0.5576620000000  0.5312730000000 1.0
C      1  0.5632560000000  0.4672060000000  0.5220280000000 1.0
C      1  0.5151650000000  0.4399520000000  0.4762980000000 1.0
C      1  0.4572490000000  0.5816520000000  0.5042120000000 1.0
C      1  0.4925280000000  0.5490980000000  0.5080500000000 1.0
C      1  0.4424870000000  0.4524790000000  0.4836770000000 1.0
C      1  0.5557880000000  0.4583470000000  0.4965760000000 1.0
C      1  0.5740150000000  0.4505830000000  0.4771700000000 1.0
C      1  0.5413840000000  0.4828990000000  0.5607450000000 1.0
C      1  0.4742390000000  0.5272610000000  0.4406470000000 1.0
C      1  0.5328450000000  0.5352520000000  0.4305740000000 1.0
C      1  0.4393210000000  0.5326340000000  0.5281610000000 1.0
C      1  0.4393600000000  0.5075400000000  0.4761930000000 1.0
C      1  0.5176360000000  0.5032700000000  0.5096050000000 1.0
C      1  0.5174940000000  0.5138440000000  0.4180420000000 1.0
C      1  0.5031860000000  0.4248510000000  0.5212890000000 1.0
C      1  0.4500310000000  0.5177320000000  0.5506610000000 1.0
C      1  0.5256230000000  0.5470540000000  0.4566970000000 1.0
C      1  0.4351860000000  0.4785320000000  0.4764780000000 1.0
C      1  0.5004300000000  0.4626540000000  0.5551070000000 1.0
C      1  0.4967420000000  0.5347260000000  0.4606840000000 1.0
C      1  0.4663070000000  0.4353440000000  0.4783540000000 1.0
C      1  0.5263070000000  0.4868060000000  0.4191450000000 1.0
C      1  0.4716610000000  0.4434470000000  0.4508830000000 1.0
C      1  0.5015700000000  0.5148570000000  0.5627670000000 1.0
C      1  0.4365700000000  0.4769010000000  0.5295440000000 1.0
C      1  0.4842250000000  0.5513400000000  0.4811620000000 1.0
C      1  0.4805790000000  0.5727960000000  0.5197640000000 1.0
C      1  0.4732410000000  0.5212730000000  0.5680480000000 1.0
C      1  0.4330940000000  0.5806320000000  0.5185480000000 1.0
C      1  0.4481080000000  0.5268050000000  0.4547040000000 1.0
C      1  0.5350690000000  0.5549960000000  0.5371250000000 1.0
C      1  0.5184830000000  0.4444790000000  0.5400660000000 1.0
C      1  0.4987360000000  0.3996160000000  0.5315780000000 1.0
C      1  0.4346350000000  0.4935800000000  0.5510290000000 1.0
C      1  0.5269800000000  0.4621810000000  0.4301310000000 1.0
C      1  0.4773540000000  0.4701180000000  0.4488320000000 1.0
C      1  0.5761700000000  0.5432240000000  0.5154080000000 1.0
C      1  0.5536100000000  0.5197190000000  0.4838950000000 1.0
C      1  0.4888130000000  0.5185910000000  0.4173040000000 1.0
C      1  0.5093310000000  0.4763280000000  0.5082200000000 1.0
C      1  0.4412450000000  0.5543430000000  0.4617240000000 1.0
C      1  0.5447090000000  0.4583480000000  0.5431960000000 1.0
C      1  0.4599240000000  0.5674090000000  0.4786420000000 1.0
C      1  0.5290200000000  0.5060100000000  0.4832890000000 1.0
C      1  0.5159930000000  0.5341190000000  0.5453940000000 1.0
C      1  0.5055800000000  0.5269400000000  0.5194980000000 1.0
C      1  0.5436050000000  0.5484910000000  0.4819900000000 1.0
C      1  0.4814290000000  0.4765560000000  0.4998450000000 1.0
C      1  0.4378090000000  0.5200250000000  0.5023800000000 1.0
C      1  0.5917590000000  0.4446490000000  0.4590310000000 1.0
C      1  0.5730400000000  0.5159030000000  0.5059590000000 1.0
C      1  0.5718040000000  0.4951590000000  0.5256180000000 1.0
C      1  0.5620020000000  0.5011030000000  0.5524900000000 1.0
C      1  0.5217950000000  0.4434830000000  0.4489900000000 1.0
C      1  0.4745770000000  0.4607370000000  0.5456830000000 1.0
END
