TITL C-612600-6631-679 885.139223123868 125000 -1001.08652500767 0 0 167 (C1) n - 1
REM
REM in /home/nfs/bkarasulu/CARBON/AIRSS/Generating-Clusters/TERSOFF/Only-C1/FIRE-HFTN
REM
REM
REM
REM
REM
REM ./C.cell (11c1c37f851c82e70ff6c80c92926a4b)
REM AIRSS Version 0.9.1 bugfix July 2018 build 013d7b7c2542+ Fri, 06 Jul 2018 19:26:36 +0100
REM compiler GCC version 9.2.1 20190827 (Red Hat 9.2.1-1)
REM options -cpp -mtune=generic -march=x86-64 -g -O0 -fpre-include=/usr/include/finclude/math-vector-fortran.h
REM seed -837219193 1203896094 786205176 1469153831 -1758190278 -964223392 1992764981 -1753049870 -1009340144 -328740445 -1027651117 -51137768 2101208705 -2084879271 -310873090 -161310947 -919522998 -322141558 1154076312 -317784573 -1299944551 1726660303 -140419782 -1802183393 -1494630072 2105159834 -1099618522 -1071032629 684145152 376052689 -809837976 -812273040 1822837271
REM
CELL 1.54180   50.00000   50.00000   50.00000   90.00000   90.00000   90.00000
LATT -1
SFAC C  
C      1  0.6132680000000  0.5160060000000  0.5390780000000 1.0
C      1  0.4634580000000  0.4130390000000  0.5174250000000 1.0
C      1  0.4898770000000  0.5638330000000  0.4503410000000 1.0
C      1  0.4919820000000  0.4955150000000  0.5535930000000 1.0
C      1  0.5109400000000  0.4549300000000  0.4079690000000 1.0
C      1  0.4701380000000  0.5882450000000  0.5294730000000 1.0
C      1  0.5188180000000  0.3866110000000  0.5380140000000 1.0
C      1  0.4726770000000  0.5223780000000  0.5845850000000 1.0
C      1  0.5079030000000  0.4119330000000  0.4360370000000 1.0
C      1  0.5732320000000  0.5758710000000  0.5300550000000 1.0
C      1  0.4695510000000  0.5749100000000  0.5027810000000 1.0
C      1  0.4159480000000  0.4982500000000  0.5868590000000 1.0
C      1  0.4430900000000  0.4538310000000  0.5733270000000 1.0
C      1  0.4825720000000  0.5476180000000  0.5952420000000 1.0
C      1  0.4224140000000  0.5612590000000  0.5462820000000 1.0
C      1  0.4136630000000  0.5773520000000  0.5205830000000 1.0
C      1  0.4492740000000  0.4271050000000  0.4742860000000 1.0
C      1  0.4778900000000  0.4186230000000  0.5918610000000 1.0
C      1  0.4082880000000  0.5754770000000  0.4665360000000 1.0
C      1  0.6050090000000  0.5157900000000  0.4644210000000 1.0
C      1  0.4119660000000  0.5707270000000  0.4398460000000 1.0
C      1  0.5549860000000  0.5211480000000  0.5743260000000 1.0
C      1  0.5748980000000  0.4133120000000  0.4662270000000 1.0
C      1  0.4873620000000  0.5772760000000  0.5492380000000 1.0
C      1  0.4550560000000  0.4955570000000  0.4052620000000 1.0
C      1  0.4910570000000  0.4607810000000  0.5212720000000 1.0
C      1  0.3715680000000  0.5177520000000  0.4992010000000 1.0
C      1  0.4089940000000  0.5357000000000  0.5529040000000 1.0
C      1  0.5568930000000  0.4899420000000  0.4461010000000 1.0
C      1  0.5964150000000  0.5163070000000  0.4935350000000 1.0
C      1  0.4847850000000  0.3956810000000  0.5753020000000 1.0
C      1  0.5358690000000  0.4419940000000  0.5114660000000 1.0
C      1  0.4984820000000  0.5720610000000  0.4935090000000 1.0
C      1  0.5484670000000  0.5795370000000  0.4396430000000 1.0
C      1  0.4046020000000  0.4457920000000  0.4316010000000 1.0
C      1  0.4197190000000  0.5541460000000  0.4174100000000 1.0
C      1  0.4973210000000  0.5497140000000  0.5467900000000 1.0
C      1  0.5765340000000  0.4910410000000  0.6062380000000 1.0
C      1  0.4635520000000  0.4282950000000  0.4489550000000 1.0
C      1  0.5590550000000  0.5072060000000  0.4674260000000 1.0
C      1  0.3900640000000  0.4550660000000  0.4777230000000 1.0
C      1  0.4151510000000  0.4399400000000  0.5197600000000 1.0
C      1  0.5019320000000  0.5424380000000  0.4872180000000 1.0
C      1  0.6203170000000  0.4706980000000  0.5126970000000 1.0
C      1  0.4540900000000  0.5226170000000  0.4154850000000 1.0
C      1  0.5321840000000  0.4767400000000  0.4458830000000 1.0
C      1  0.5850600000000  0.4371550000000  0.5106200000000 1.0
C      1  0.4502130000000  0.4038410000000  0.4920300000000 1.0
C      1  0.5089030000000  0.4390490000000  0.5214670000000 1.0
C      1  0.4844410000000  0.5158750000000  0.4510940000000 1.0
C      1  0.6074790000000  0.4352130000000  0.5710250000000 1.0
C      1  0.4032050000000  0.5300770000000  0.4153670000000 1.0
C      1  0.5800640000000  0.4798100000000  0.5590060000000 1.0
C      1  0.5581170000000  0.4833680000000  0.5090300000000 1.0
C      1  0.5810140000000  0.5035670000000  0.5792150000000 1.0
C      1  0.4258630000000  0.4736230000000  0.5834430000000 1.0
C      1  0.5348300000000  0.4624230000000  0.6205440000000 1.0
C      1  0.5582900000000  0.4019360000000  0.3998420000000 1.0
C      1  0.5367230000000  0.4673250000000  0.5534780000000 1.0
C      1  0.5570510000000  0.4064240000000  0.4872680000000 1.0
C      1  0.5772760000000  0.5607100000000  0.4377880000000 1.0
C      1  0.4265380000000  0.5136400000000  0.5157540000000 1.0
C      1  0.5592300000000  0.4253400000000  0.5088470000000 1.0
C      1  0.4621410000000  0.5554690000000  0.4508830000000 1.0
C      1  0.5843020000000  0.4370340000000  0.4528230000000 1.0
C      1  0.5216480000000  0.4224050000000  0.5756830000000 1.0
C      1  0.5364110000000  0.4425110000000  0.5633940000000 1.0
C      1  0.5572120000000  0.4844430000000  0.5398160000000 1.0
C      1  0.5514270000000  0.4244300000000  0.4151730000000 1.0
C      1  0.4079590000000  0.5179980000000  0.4609370000000 1.0
C      1  0.5186380000000  0.5326620000000  0.4166320000000 1.0
C      1  0.3818040000000  0.4758590000000  0.5207890000000 1.0
C      1  0.5230030000000  0.4299760000000  0.4184700000000 1.0
C      1  0.4753810000000  0.4547190000000  0.4501190000000 1.0
C      1  0.4834180000000  0.5233620000000  0.5562670000000 1.0
C      1  0.4729600000000  0.4822190000000  0.3874400000000 1.0
C      1  0.5347060000000  0.5891920000000  0.4653640000000 1.0
C      1  0.4791330000000  0.4107580000000  0.4330220000000 1.0
C      1  0.5946180000000  0.4564640000000  0.5631260000000 1.0
C      1  0.6022120000000  0.5316520000000  0.5177450000000 1.0
C      1  0.6047090000000  0.5183750000000  0.5666680000000 1.0
C      1  0.5950990000000  0.5394110000000  0.4462570000000 1.0
C      1  0.4998860000000  0.5950190000000  0.5670740000000 1.0
C      1  0.4458670000000  0.4399540000000  0.5227440000000 1.0
C      1  0.6033140000000  0.4542460000000  0.4968580000000 1.0
C      1  0.3874450000000  0.5254400000000  0.4789220000000 1.0
C      1  0.5217520000000  0.5758890000000  0.5104970000000 1.0
C      1  0.4375480000000  0.5154180000000  0.4678780000000 1.0
C      1  0.4044580000000  0.5170880000000  0.5321620000000 1.0
C      1  0.5123140000000  0.5420640000000  0.5965120000000 1.0
C      1  0.5107780000000  0.6144010000000  0.5806810000000 1.0
C      1  0.4786310000000  0.4723430000000  0.5436320000000 1.0
C      1  0.4964760000000  0.4801330000000  0.5981980000000 1.0
C      1  0.4413050000000  0.5691970000000  0.5676420000000 1.0
C      1  0.4563800000000  0.5264480000000  0.4463930000000 1.0
C      1  0.5050770000000  0.5831440000000  0.4658760000000 1.0
C      1  0.4560650000000  0.4747030000000  0.4479300000000 1.0
C      1  0.5251740000000  0.5161310000000  0.5845630000000 1.0
C      1  0.5513900000000  0.5646110000000  0.5448220000000 1.0
C      1  0.5145400000000  0.3931920000000  0.5104110000000 1.0
C      1  0.4953770000000  0.4565360000000  0.4729430000000 1.0
C      1  0.4246130000000  0.4563480000000  0.4168470000000 1.0
C      1  0.4524120000000  0.4516500000000  0.4940870000000 1.0
C      1  0.5494640000000  0.5327830000000  0.4623800000000 1.0
C      1  0.4939610000000  0.4162570000000  0.5090010000000 1.0
C      1  0.5393300000000  0.4657260000000  0.4957940000000 1.0
C      1  0.5168490000000  0.5049270000000  0.5122210000000 1.0
C      1  0.4567780000000  0.5983870000000  0.4562950000000 1.0
C      1  0.5358600000000  0.5588430000000  0.5994660000000 1.0
C      1  0.5645560000000  0.3806680000000  0.3861500000000 1.0
C      1  0.5233400000000  0.4672820000000  0.4711500000000 1.0
C      1  0.5145160000000  0.4084800000000  0.4638530000000 1.0
C      1  0.5254060000000  0.5536660000000  0.5322350000000 1.0
C      1  0.4383750000000  0.5281840000000  0.4953150000000 1.0
C      1  0.5281360000000  0.5346970000000  0.4445650000000 1.0
C      1  0.6244460000000  0.4913100000000  0.5296750000000 1.0
C      1  0.4648430000000  0.5932000000000  0.4296490000000 1.0
C      1  0.5417950000000  0.5913510000000  0.4952880000000 1.0
C      1  0.4610470000000  0.5661410000000  0.5870110000000 1.0
C      1  0.4541270000000  0.4331950000000  0.5891460000000 1.0
C      1  0.5033340000000  0.4322300000000  0.5965930000000 1.0
C      1  0.4509260000000  0.4882190000000  0.4708510000000 1.0
C      1  0.4543840000000  0.4568110000000  0.5472650000000 1.0
C      1  0.5801850000000  0.4640020000000  0.4127440000000 1.0
C      1  0.4484070000000  0.5506300000000  0.4074360000000 1.0
C      1  0.6078270000000  0.4860290000000  0.4584830000000 1.0
C      1  0.5065480000000  0.5598740000000  0.4093060000000 1.0
C      1  0.4741900000000  0.4983480000000  0.6007440000000 1.0
C      1  0.5192240000000  0.4791190000000  0.4208810000000 1.0
C      1  0.5997130000000  0.4586410000000  0.4678070000000 1.0
C      1  0.4786550000000  0.4730780000000  0.4943730000000 1.0
C      1  0.3892930000000  0.4611900000000  0.4497920000000 1.0
C      1  0.4819660000000  0.5273340000000  0.4993300000000 1.0
C      1  0.5838950000000  0.5626310000000  0.4886870000000 1.0
C      1  0.3827380000000  0.4865680000000  0.4380210000000 1.0
C      1  0.5320640000000  0.5245300000000  0.5265360000000 1.0
C      1  0.5732310000000  0.4401140000000  0.4260650000000 1.0
C      1  0.5616450000000  0.5526530000000  0.4774490000000 1.0
C      1  0.5505620000000  0.5136990000000  0.5449880000000 1.0
C      1  0.4975640000000  0.4259820000000  0.4799890000000 1.0
C      1  0.4431220000000  0.4765700000000  0.4229350000000 1.0
C      1  0.4578690000000  0.6131360000000  0.5331070000000 1.0
C      1  0.4599700000000  0.5443220000000  0.5029210000000 1.0
C      1  0.3947700000000  0.4552120000000  0.5061060000000 1.0
C      1  0.5731800000000  0.4877850000000  0.4232850000000 1.0
C      1  0.3912230000000  0.5932210000000  0.5260520000000 1.0
C      1  0.4904640000000  0.5009950000000  0.5005500000000 1.0
C      1  0.5110720000000  0.3981180000000  0.5628120000000 1.0
C      1  0.4477530000000  0.6368290000000  0.5370420000000 1.0
C      1  0.4226850000000  0.5806180000000  0.4911390000000 1.0
C      1  0.5290320000000  0.5781600000000  0.4170340000000 1.0
C      1  0.4722200000000  0.5700580000000  0.4108380000000 1.0
C      1  0.4103040000000  0.5231060000000  0.5782380000000 1.0
C      1  0.5092730000000  0.4572690000000  0.6089520000000 1.0
C      1  0.5587170000000  0.5483510000000  0.5875840000000 1.0
C      1  0.5712670000000  0.5019840000000  0.4924740000000 1.0
C      1  0.5111640000000  0.4921240000000  0.5757240000000 1.0
C      1  0.5583390000000  0.4754880000000  0.6187860000000 1.0
C      1  0.5640760000000  0.5972550000000  0.5121910000000 1.0
C      1  0.5913280000000  0.5579600000000  0.5160610000000 1.0
C      1  0.3813870000000  0.5041370000000  0.5219300000000 1.0
C      1  0.5031730000000  0.5375120000000  0.4586130000000 1.0
C      1  0.3975510000000  0.5106500000000  0.4354460000000 1.0
C      1  0.5305990000000  0.3953430000000  0.4847920000000 1.0
C      1  0.4899650000000  0.4608120000000  0.3895070000000 1.0
C      1  0.4500720000000  0.5885780000000  0.4837220000000 1.0
C      1  0.5170580000000  0.5053240000000  0.4087580000000 1.0
END
