TITL C-612601-4209-390 301.853819331552 125000 -877.721725139192 0 0 141 (C1) n - 1
REM
REM in /home/nfs/bkarasulu/CARBON/AIRSS/Generating-Clusters/TERSOFF/Only-C1/FIRE-HFTN
REM
REM
REM
REM
REM
REM ./C.cell (11c1c37f851c82e70ff6c80c92926a4b)
REM AIRSS Version 0.9.1 bugfix July 2018 build 013d7b7c2542+ Fri, 06 Jul 2018 19:26:36 +0100
REM compiler GCC version 9.2.1 20190827 (Red Hat 9.2.1-1)
REM options -cpp -mtune=generic -march=x86-64 -g -O0 -fpre-include=/usr/include/finclude/math-vector-fortran.h
REM seed -716529648 1500379722 1427205784 -1882424677 -2072368421 -1294860077 1105098805 1251942985 -990576112 -628908596 367019295 -560420665 -104105 326896595 1838364652 -1256434017 198492776 -787615405 -1488710237 -174103249 833280596 -39991783 1041195260 663422210 150371205 -1804476521 -72941602 1014148067 1934347479 229583356 1382885846 1043517171 -1320161276
REM
CELL 1.54180   50.00000   50.00000   50.00000   90.00000   90.00000   90.00000
LATT -1
SFAC C  
C      1  0.4642910000000  0.5834360000000  0.4896100000000 1.0
C      1  0.4118420000000  0.4867370000000  0.5144560000000 1.0
C      1  0.5313530000000  0.4253560000000  0.5174190000000 1.0
C      1  0.5538220000000  0.4674060000000  0.4997630000000 1.0
C      1  0.4612100000000  0.4334520000000  0.5041170000000 1.0
C      1  0.4709370000000  0.4866000000000  0.4307750000000 1.0
C      1  0.4555650000000  0.4184480000000  0.5277200000000 1.0
C      1  0.5789890000000  0.4792640000000  0.5092500000000 1.0
C      1  0.4220430000000  0.3551780000000  0.4698510000000 1.0
C      1  0.5264660000000  0.4655170000000  0.4091250000000 1.0
C      1  0.4048100000000  0.4732550000000  0.6054740000000 1.0
C      1  0.4788930000000  0.4803990000000  0.5454450000000 1.0
C      1  0.5667980000000  0.4267770000000  0.4806450000000 1.0
C      1  0.4222690000000  0.4030010000000  0.4951060000000 1.0
C      1  0.4811710000000  0.4676960000000  0.6026910000000 1.0
C      1  0.5038030000000  0.5814160000000  0.5693760000000 1.0
C      1  0.4863640000000  0.5659760000000  0.4908040000000 1.0
C      1  0.3877190000000  0.4895720000000  0.5933760000000 1.0
C      1  0.4320300000000  0.6469860000000  0.5072030000000 1.0
C      1  0.5249530000000  0.5199090000000  0.4547140000000 1.0
C      1  0.5072500000000  0.4448150000000  0.4062250000000 1.0
C      1  0.5929870000000  0.4342540000000  0.4318870000000 1.0
C      1  0.6072110000000  0.4298810000000  0.4548010000000 1.0
C      1  0.4064610000000  0.4831030000000  0.4638370000000 1.0
C      1  0.5866050000000  0.5500550000000  0.4913620000000 1.0
C      1  0.3990430000000  0.4460190000000  0.4936720000000 1.0
C      1  0.4222200000000  0.4364480000000  0.4533380000000 1.0
C      1  0.4305030000000  0.5165100000000  0.4333430000000 1.0
C      1  0.5013250000000  0.5685170000000  0.5951420000000 1.0
C      1  0.5160020000000  0.5091740000000  0.5537260000000 1.0
C      1  0.5678160000000  0.4842700000000  0.4227860000000 1.0
C      1  0.5716090000000  0.5823930000000  0.5297520000000 1.0
C      1  0.5995120000000  0.4618050000000  0.5173650000000 1.0
C      1  0.4871450000000  0.5815690000000  0.6155930000000 1.0
C      1  0.4885030000000  0.4318790000000  0.4953730000000 1.0
C      1  0.4967300000000  0.4480460000000  0.5882840000000 1.0
C      1  0.5544790000000  0.4900960000000  0.5773040000000 1.0
C      1  0.5000800000000  0.4647470000000  0.5312620000000 1.0
C      1  0.4280640000000  0.4833290000000  0.5353070000000 1.0
C      1  0.4286170000000  0.4630560000000  0.6112870000000 1.0
C      1  0.4913850000000  0.4986510000000  0.5000630000000 1.0
C      1  0.4394810000000  0.5874470000000  0.5768930000000 1.0
C      1  0.5793290000000  0.5019500000000  0.5701560000000 1.0
C      1  0.4842790000000  0.5211400000000  0.5179960000000 1.0
C      1  0.4451210000000  0.4943700000000  0.4229260000000 1.0
C      1  0.5656450000000  0.5110460000000  0.4092400000000 1.0
C      1  0.4174750000000  0.3918250000000  0.5431570000000 1.0
C      1  0.4626290000000  0.5915510000000  0.6196880000000 1.0
C      1  0.6163710000000  0.5210060000000  0.4632370000000 1.0
C      1  0.4489430000000  0.6271620000000  0.5072890000000 1.0
C      1  0.5470570000000  0.4641650000000  0.5844910000000 1.0
C      1  0.5900400000000  0.5406160000000  0.5406070000000 1.0
C      1  0.5420930000000  0.3945790000000  0.4555400000000 1.0
C      1  0.4453780000000  0.5748600000000  0.4697890000000 1.0
C      1  0.5196930000000  0.4935770000000  0.4655600000000 1.0
C      1  0.4879590000000  0.5085790000000  0.5455940000000 1.0
C      1  0.4483790000000  0.4355090000000  0.4428380000000 1.0
C      1  0.5147240000000  0.5754610000000  0.4465640000000 1.0
C      1  0.5540060000000  0.5903180000000  0.5488130000000 1.0
C      1  0.5436020000000  0.3780880000000  0.5032960000000 1.0
C      1  0.5912810000000  0.5247940000000  0.4184050000000 1.0
C      1  0.4072710000000  0.5290240000000  0.4772150000000 1.0
C      1  0.5641610000000  0.4365080000000  0.4325800000000 1.0
C      1  0.4657150000000  0.6050720000000  0.5078440000000 1.0
C      1  0.4925790000000  0.4893430000000  0.4737240000000 1.0
C      1  0.4960300000000  0.5205960000000  0.6091780000000 1.0
C      1  0.6017920000000  0.5249870000000  0.4878450000000 1.0
C      1  0.4513100000000  0.4764330000000  0.5462780000000 1.0
C      1  0.4534040000000  0.5781140000000  0.5542170000000 1.0
C      1  0.4744460000000  0.4757660000000  0.4567810000000 1.0
C      1  0.4109330000000  0.5515130000000  0.4937810000000 1.0
C      1  0.4896960000000  0.4943600000000  0.6081860000000 1.0
C      1  0.5127580000000  0.4852760000000  0.5155380000000 1.0
C      1  0.5120560000000  0.5426270000000  0.6000880000000 1.0
C      1  0.4811580000000  0.5868660000000  0.5513350000000 1.0
C      1  0.4682920000000  0.4487120000000  0.4588000000000 1.0
C      1  0.5164010000000  0.3948750000000  0.4450040000000 1.0
C      1  0.4314960000000  0.4038810000000  0.5230410000000 1.0
C      1  0.5519360000000  0.5280610000000  0.4624530000000 1.0
C      1  0.6039400000000  0.5093260000000  0.4402290000000 1.0
C      1  0.3802070000000  0.5087200000000  0.5765960000000 1.0
C      1  0.5957010000000  0.4289700000000  0.4808180000000 1.0
C      1  0.4651280000000  0.5456880000000  0.4058520000000 1.0
C      1  0.4898020000000  0.4267600000000  0.4193060000000 1.0
C      1  0.4992810000000  0.4166100000000  0.4447670000000 1.0
C      1  0.5387660000000  0.5287270000000  0.5171090000000 1.0
C      1  0.5767090000000  0.5655920000000  0.4416830000000 1.0
C      1  0.4550470000000  0.4609040000000  0.6103620000000 1.0
C      1  0.4946270000000  0.5466600000000  0.5100710000000 1.0
C      1  0.5693770000000  0.5518000000000  0.4665660000000 1.0
C      1  0.4610030000000  0.4268860000000  0.4186520000000 1.0
C      1  0.5330410000000  0.5090400000000  0.5755940000000 1.0
C      1  0.5525560000000  0.4603700000000  0.4203130000000 1.0
C      1  0.4439730000000  0.5418920000000  0.4271220000000 1.0
C      1  0.5248650000000  0.4499570000000  0.5891760000000 1.0
C      1  0.3951970000000  0.5413250000000  0.5387950000000 1.0
C      1  0.4151660000000  0.5519790000000  0.5222430000000 1.0
C      1  0.4945790000000  0.5434380000000  0.4095340000000 1.0
C      1  0.5237770000000  0.5466650000000  0.4059770000000 1.0
C      1  0.5474890000000  0.3766180000000  0.4766850000000 1.0
C      1  0.5553840000000  0.4197630000000  0.4550990000000 1.0
C      1  0.4216640000000  0.3780230000000  0.4823830000000 1.0
C      1  0.4418980000000  0.5936640000000  0.6027830000000 1.0
C      1  0.5937930000000  0.5523090000000  0.4234190000000 1.0
C      1  0.4541640000000  0.5546430000000  0.4508230000000 1.0
C      1  0.5569460000000  0.5798090000000  0.4276800000000 1.0
C      1  0.5848710000000  0.5025060000000  0.4936910000000 1.0
C      1  0.4982150000000  0.5631930000000  0.4652950000000 1.0
C      1  0.5312690000000  0.5694400000000  0.4239220000000 1.0
C      1  0.4812010000000  0.4220660000000  0.5428460000000 1.0
C      1  0.5230730000000  0.5517100000000  0.5136380000000 1.0
C      1  0.4850790000000  0.4293850000000  0.5699900000000 1.0
C      1  0.5810090000000  0.5302420000000  0.5653460000000 1.0
C      1  0.5374410000000  0.5184320000000  0.4041020000000 1.0
C      1  0.5297730000000  0.5046480000000  0.5284220000000 1.0
C      1  0.5502330000000  0.4394640000000  0.5005370000000 1.0
C      1  0.4897530000000  0.4312510000000  0.4673350000000 1.0
C      1  0.5839820000000  0.5589750000000  0.5192660000000 1.0
C      1  0.4083910000000  0.4607760000000  0.4462240000000 1.0
C      1  0.4380910000000  0.5634300000000  0.5350360000000 1.0
C      1  0.5663320000000  0.5008110000000  0.4693990000000 1.0
C      1  0.4189430000000  0.5741750000000  0.4790320000000 1.0
C      1  0.4810060000000  0.5441440000000  0.4533970000000 1.0
C      1  0.5363820000000  0.3975840000000  0.5203980000000 1.0
C      1  0.4939180000000  0.4999590000000  0.4220280000000 1.0
C      1  0.4868070000000  0.6018330000000  0.5271290000000 1.0
C      1  0.4961010000000  0.5264050000000  0.4353810000000 1.0
C      1  0.4135820000000  0.5102540000000  0.4568990000000 1.0
C      1  0.6076500000000  0.4398840000000  0.5038230000000 1.0
C      1  0.5623900000000  0.5448580000000  0.5821630000000 1.0
C      1  0.4027150000000  0.4742400000000  0.4912430000000 1.0
C      1  0.5184540000000  0.4939180000000  0.4078700000000 1.0
C      1  0.5366170000000  0.5343230000000  0.5883930000000 1.0
C      1  0.5031410000000  0.4354770000000  0.5224970000000 1.0
C      1  0.3831230000000  0.5269500000000  0.5575300000000 1.0
C      1  0.5304340000000  0.5891390000000  0.5619610000000 1.0
C      1  0.5826770000000  0.4906560000000  0.4464290000000 1.0
C      1  0.5432830000000  0.4824160000000  0.4772790000000 1.0
C      1  0.5286740000000  0.5792500000000  0.5107410000000 1.0
C      1  0.4142830000000  0.4262510000000  0.4798310000000 1.0
C      1  0.5132340000000  0.6007620000000  0.5166980000000 1.0
END
