TITL C-612602-9376-605 202045.13525804 125000 -1150.05801777947 0 0 189 (C1) n - 1
REM
REM in /home/nfs/bkarasulu/CARBON/AIRSS/Generating-Clusters/TERSOFF/Only-C1/FIRE-HFTN
REM
REM
REM
REM
REM
REM ./C.cell (11c1c37f851c82e70ff6c80c92926a4b)
REM AIRSS Version 0.9.1 bugfix July 2018 build 013d7b7c2542+ Fri, 06 Jul 2018 19:26:36 +0100
REM compiler GCC version 9.2.1 20190827 (Red Hat 9.2.1-1)
REM options -cpp -mtune=generic -march=x86-64 -g -O0 -fpre-include=/usr/include/finclude/math-vector-fortran.h
REM seed -1575406872 641782587 2126210654 1228964804 1970340791 -213884957 945672053 -932199431 -1270366401 1446461891 588392037 968621380 -1836139336 304670657 -580092702 -1095792506 -1648129747 -546356392 -1152994202 -26840607 448289405 1654110428 -85339790 -1967047027 -1262621117 1645808918 -1985282947 1771457624 -769092164 -1332792609 -346398829 435992432 -324713633
REM
CELL 1.54180   50.00000   50.00000   50.00000   90.00000   90.00000   90.00000
LATT -1
SFAC C  
C      1  0.4237730000000  0.5611530000000  0.4698720000000 1.0
C      1  0.4664140000000  0.5825210000000  0.4573020000000 1.0
C      1  0.3961660000000  0.4557950000000  0.4611640000000 1.0
C      1  0.4845360000000  0.5139020000000  0.4826070000000 1.0
C      1  0.5481650000000  0.6138960000000  0.4768120000000 1.0
C      1  0.5230840000000  0.4337490000000  0.5170610000000 1.0
C      1  0.6027520000000  0.4901940000000  0.4322300000000 1.0
C      1  0.3659910000000  0.5819040000000  0.5090010000000 1.0
C      1  0.3949570000000  0.4753770000000  0.5080650000000 1.0
C      1  0.4071060000000  0.4759300000000  0.5686470000000 1.0
C      1  0.4209230000000  0.5906050000000  0.4322070000000 1.0
C      1  0.5433690000000  0.5389030000000  0.6159390000000 1.0
C      1  0.5187230000000  0.4977320000000  0.4117230000000 1.0
C      1  0.4599780000000  0.4441990000000  0.5171910000000 1.0
C      1  0.4813960000000  0.5545790000000  0.4594950000000 1.0
C      1  0.4647340000000  0.5271950000000  0.5242340000000 1.0
C      1  0.3871480000000  0.5329560000000  0.4813710000000 1.0
C      1  0.5187490000000  0.5204190000000  0.3924450000000 1.0
C      1  0.5110240000000  0.5544020000000  0.4834160000000 1.0
C      1  0.5417510000000  0.4330660000000  0.4287400000000 1.0
C      1  0.4753710000000  0.5194220000000  0.5712110000000 1.0
C      1  0.4658590000000  0.5069720000000  0.3931940000000 1.0
C      1  0.4886930000000  0.3824080000000  0.4786580000000 1.0
C      1  0.5169550000000  0.5874620000000  0.4101350000000 1.0
C      1  0.6112990000000  0.4908580000000  0.5521760000000 1.0
C      1  0.5450060000000  0.4101820000000  0.4477300000000 1.0
C      1  0.4805360000000  0.4327600000000  0.5346990000000 1.0
C      1  0.5463800000000  0.4623530000000  0.4358220000000 1.0
C      1  0.5466930000000  0.4881400000000  0.4166140000000 1.0
C      1  0.4196890000000  0.4892250000000  0.5036430000000 1.0
C      1  0.5070850000000  0.5543740000000  0.5882660000000 1.0
C      1  0.5509650000000  0.5557510000000  0.4417250000000 1.0
C      1  0.6029350000000  0.5370010000000  0.5707340000000 1.0
C      1  0.5333770000000  0.4642900000000  0.4634820000000 1.0
C      1  0.4863080000000  0.4430750000000  0.5917550000000 1.0
C      1  0.4448390000000  0.4835980000000  0.5453110000000 1.0
C      1  0.5185120000000  0.3859650000000  0.5319440000000 1.0
C      1  0.4682030000000  0.4320360000000  0.4060210000000 1.0
C      1  0.5590310000000  0.5742580000000  0.4202360000000 1.0
C      1  0.5803190000000  0.5282560000000  0.5851610000000 1.0
C      1  0.5130860000000  0.4006250000000  0.5839400000000 1.0
C      1  0.3932930000000  0.4648650000000  0.5367840000000 1.0
C      1  0.4990850000000  0.6091140000000  0.4859730000000 1.0
C      1  0.4204530000000  0.4490200000000  0.4487940000000 1.0
C      1  0.3992460000000  0.4361930000000  0.5303280000000 1.0
C      1  0.4499040000000  0.5952640000000  0.5093250000000 1.0
C      1  0.4249690000000  0.4356830000000  0.4242870000000 1.0
C      1  0.4420620000000  0.5480830000000  0.4870470000000 1.0
C      1  0.4155660000000  0.5280980000000  0.5261660000000 1.0
C      1  0.4767030000000  0.4103670000000  0.5525910000000 1.0
C      1  0.4458150000000  0.4546880000000  0.4625740000000 1.0
C      1  0.5384930000000  0.5672770000000  0.4004670000000 1.0
C      1  0.5062670000000  0.4538340000000  0.4593090000000 1.0
C      1  0.4315590000000  0.5845030000000  0.5366990000000 1.0
C      1  0.4473730000000  0.4408530000000  0.4901710000000 1.0
C      1  0.3988670000000  0.5492310000000  0.4617110000000 1.0
C      1  0.5182310000000  0.3785010000000  0.4780830000000 1.0
C      1  0.5991190000000  0.5623940000000  0.5559260000000 1.0
C      1  0.5042080000000  0.4933730000000  0.4358760000000 1.0
C      1  0.5432820000000  0.4991250000000  0.5888840000000 1.0
C      1  0.5023650000000  0.3960950000000  0.5566740000000 1.0
C      1  0.5143350000000  0.5110200000000  0.5235080000000 1.0
C      1  0.4857610000000  0.4032320000000  0.4973240000000 1.0
C      1  0.5661110000000  0.5088990000000  0.4622360000000 1.0
C      1  0.5716280000000  0.5735090000000  0.5936520000000 1.0
C      1  0.5095090000000  0.5916060000000  0.5337780000000 1.0
C      1  0.4326160000000  0.4009040000000  0.4687080000000 1.0
C      1  0.4241090000000  0.4332750000000  0.5423680000000 1.0
C      1  0.4895510000000  0.5720470000000  0.5293910000000 1.0
C      1  0.4257470000000  0.4513870000000  0.5859300000000 1.0
C      1  0.4903710000000  0.5255070000000  0.5097360000000 1.0
C      1  0.4875440000000  0.5250470000000  0.6191270000000 1.0
C      1  0.5359390000000  0.4759230000000  0.4906710000000 1.0
C      1  0.6071420000000  0.4462580000000  0.5765440000000 1.0
C      1  0.4255750000000  0.5000810000000  0.5300330000000 1.0
C      1  0.4432890000000  0.5112020000000  0.4609190000000 1.0
C      1  0.5909110000000  0.4621470000000  0.4661780000000 1.0
C      1  0.4865800000000  0.5345410000000  0.5928690000000 1.0
C      1  0.6126980000000  0.5093610000000  0.5102780000000 1.0
C      1  0.5373550000000  0.5154970000000  0.4665740000000 1.0
C      1  0.5329480000000  0.3838140000000  0.5929920000000 1.0
C      1  0.4955010000000  0.4697150000000  0.3386840000000 1.0
C      1  0.4052970000000  0.5713430000000  0.5380970000000 1.0
C      1  0.4258850000000  0.5409910000000  0.5710650000000 1.0
C      1  0.5618270000000  0.4097650000000  0.4707950000000 1.0
C      1  0.6114670000000  0.4141670000000  0.5144370000000 1.0
C      1  0.4908120000000  0.4688510000000  0.4414280000000 1.0
C      1  0.4458120000000  0.4945940000000  0.5940590000000 1.0
C      1  0.4423940000000  0.4555490000000  0.5367760000000 1.0
C      1  0.5103280000000  0.5073430000000  0.4601010000000 1.0
C      1  0.5068640000000  0.4443350000000  0.5371040000000 1.0
C      1  0.5614510000000  0.5138580000000  0.4068820000000 1.0
C      1  0.3657480000000  0.5422540000000  0.4262330000000 1.0
C      1  0.5037300000000  0.4219760000000  0.6016630000000 1.0
C      1  0.4939320000000  0.4476540000000  0.4832610000000 1.0
C      1  0.6202880000000  0.5310450000000  0.5277460000000 1.0
C      1  0.3917170000000  0.5381240000000  0.5084350000000 1.0
C      1  0.4890820000000  0.5895340000000  0.4086720000000 1.0
C      1  0.5567130000000  0.5883870000000  0.5487590000000 1.0
C      1  0.5571610000000  0.4887920000000  0.5049700000000 1.0
C      1  0.4523340000000  0.3997610000000  0.4471190000000 1.0
C      1  0.6131770000000  0.4514530000000  0.4531580000000 1.0
C      1  0.5297180000000  0.5787510000000  0.5503200000000 1.0
C      1  0.5504480000000  0.4291590000000  0.5134460000000 1.0
C      1  0.5949810000000  0.4280730000000  0.5312620000000 1.0
C      1  0.4922470000000  0.5402050000000  0.4343320000000 1.0
C      1  0.3902760000000  0.4540640000000  0.4885550000000 1.0
C      1  0.5618520000000  0.6066790000000  0.5278170000000 1.0
C      1  0.4362740000000  0.5806380000000  0.4536320000000 1.0
C      1  0.5004910000000  0.4559620000000  0.6368980000000 1.0
C      1  0.6125240000000  0.4721090000000  0.5725800000000 1.0
C      1  0.4401300000000  0.4938160000000  0.4846340000000 1.0
C      1  0.5611970000000  0.5122550000000  0.5706940000000 1.0
C      1  0.4462410000000  0.5710540000000  0.5590620000000 1.0
C      1  0.4966030000000  0.5548380000000  0.5074360000000 1.0
C      1  0.5817970000000  0.5318520000000  0.4686450000000 1.0
C      1  0.4616320000000  0.4848330000000  0.6167230000000 1.0
C      1  0.5834550000000  0.5819160000000  0.4678200000000 1.0
C      1  0.4743250000000  0.5942800000000  0.4306760000000 1.0
C      1  0.5000110000000  0.4643640000000  0.5799330000000 1.0
C      1  0.4609990000000  0.4944570000000  0.5689060000000 1.0
C      1  0.5122020000000  0.4830580000000  0.5079790000000 1.0
C      1  0.6179110000000  0.5185660000000  0.5548920000000 1.0
C      1  0.4630010000000  0.4715810000000  0.4454190000000 1.0
C      1  0.4660670000000  0.4794110000000  0.3831590000000 1.0
C      1  0.4272310000000  0.4524840000000  0.4011550000000 1.0
C      1  0.5680770000000  0.6038650000000  0.4584610000000 1.0
C      1  0.5064290000000  0.5040420000000  0.6241570000000 1.0
C      1  0.6204130000000  0.4685040000000  0.4324400000000 1.0
C      1  0.4880840000000  0.4708400000000  0.4987490000000 1.0
C      1  0.5773800000000  0.5783710000000  0.5657900000000 1.0
C      1  0.5348420000000  0.5360160000000  0.4870110000000 1.0
C      1  0.6121460000000  0.5585610000000  0.5303080000000 1.0
C      1  0.4771180000000  0.3863120000000  0.4519750000000 1.0
C      1  0.5777270000000  0.4728820000000  0.5170950000000 1.0
C      1  0.4712770000000  0.5981870000000  0.4841790000000 1.0
C      1  0.6043700000000  0.5843310000000  0.4859040000000 1.0
C      1  0.4006780000000  0.4297940000000  0.5016510000000 1.0
C      1  0.4088750000000  0.5439070000000  0.5507880000000 1.0
C      1  0.4692300000000  0.5157290000000  0.4206620000000 1.0
C      1  0.4703280000000  0.5355440000000  0.5498150000000 1.0
C      1  0.4591460000000  0.4375930000000  0.5895500000000 1.0
C      1  0.5447020000000  0.5174030000000  0.5143890000000 1.0
C      1  0.4408160000000  0.5386000000000  0.5130710000000 1.0
C      1  0.5006480000000  0.3863210000000  0.4351290000000 1.0
C      1  0.4743760000000  0.5259550000000  0.3741130000000 1.0
C      1  0.5160760000000  0.5283680000000  0.5492700000000 1.0
C      1  0.6016850000000  0.4863240000000  0.5247350000000 1.0
C      1  0.4548440000000  0.4558220000000  0.3940020000000 1.0
C      1  0.5735910000000  0.4442370000000  0.5209970000000 1.0
C      1  0.5232420000000  0.5586300000000  0.6111610000000 1.0
C      1  0.4492180000000  0.4180820000000  0.4247740000000 1.0
C      1  0.5125510000000  0.4632500000000  0.5564290000000 1.0
C      1  0.3979920000000  0.5787380000000  0.4241310000000 1.0
C      1  0.5826110000000  0.4875820000000  0.4539270000000 1.0
C      1  0.4549840000000  0.4145840000000  0.5717270000000 1.0
C      1  0.4258640000000  0.4199930000000  0.4892560000000 1.0
C      1  0.5722410000000  0.5566780000000  0.4611210000000 1.0
C      1  0.5218260000000  0.4290880000000  0.4085770000000 1.0
C      1  0.4544220000000  0.4985670000000  0.4387290000000 1.0
C      1  0.5330210000000  0.5108810000000  0.6132660000000 1.0
C      1  0.5536070000000  0.4053050000000  0.4979030000000 1.0
C      1  0.4957320000000  0.4276590000000  0.4025840000000 1.0
C      1  0.5581810000000  0.5191070000000  0.5426730000000 1.0
C      1  0.4625210000000  0.5333960000000  0.4711210000000 1.0
C      1  0.5567120000000  0.6003870000000  0.4324850000000 1.0
C      1  0.5199750000000  0.5538380000000  0.5626850000000 1.0
C      1  0.5992820000000  0.4276590000000  0.5589900000000 1.0
C      1  0.3864990000000  0.5562730000000  0.4369860000000 1.0
C      1  0.4209870000000  0.5063500000000  0.5833140000000 1.0
C      1  0.5084970000000  0.6112840000000  0.5133930000000 1.0
C      1  0.4683110000000  0.4891880000000  0.4908850000000 1.0
C      1  0.5429380000000  0.5364200000000  0.3962780000000 1.0
C      1  0.4801600000000  0.4754500000000  0.3589600000000 1.0
C      1  0.4280270000000  0.4197880000000  0.5651050000000 1.0
C      1  0.5009560000000  0.5296700000000  0.3728960000000 1.0
C      1  0.5031540000000  0.4255690000000  0.4973160000000 1.0
C      1  0.5269220000000  0.6038370000000  0.4346980000000 1.0
C      1  0.5225130000000  0.5457570000000  0.4370110000000 1.0
C      1  0.5094880000000  0.4315650000000  0.6281740000000 1.0
C      1  0.5683310000000  0.5466560000000  0.6035490000000 1.0
C      1  0.3858900000000  0.5656080000000  0.5176240000000 1.0
C      1  0.5253130000000  0.3888430000000  0.4501810000000 1.0
C      1  0.4719220000000  0.5635610000000  0.5504970000000 1.0
C      1  0.5321860000000  0.3854660000000  0.5034660000000 1.0
C      1  0.5205230000000  0.6105690000000  0.4649310000000 1.0
C      1  0.5558610000000  0.6167550000000  0.5037160000000 1.0
C      1  0.4892450000000  0.4805930000000  0.6278790000000 1.0
C      1  0.6138460000000  0.5766670000000  0.5094780000000 1.0
END
