TITL C-612604-1799-756 0.0115665899140807 125000 -637.881926232887 0 0 102 (C1) n - 1
REM
REM in /home/nfs/bkarasulu/CARBON/AIRSS/Generating-Clusters/TERSOFF/Only-C1/FIRE-HFTN
REM
REM
REM
REM
REM
REM ./C.cell (11c1c37f851c82e70ff6c80c92926a4b)
REM AIRSS Version 0.9.1 bugfix July 2018 build 013d7b7c2542+ Fri, 06 Jul 2018 19:26:36 +0100
REM compiler GCC version 9.2.1 20190827 (Red Hat 9.2.1-1)
REM options -cpp -mtune=generic -march=x86-64 -g -O0 -fpre-include=/usr/include/finclude/math-vector-fortran.h
REM seed 1722861046 -1685932238 -234845172 -1126848230 2109032069 1245086637 -1342856415 299253031 -1693745600 -61917814 79685765 1355574946 -1116252860 -1535988270 370726042 664630308 -474922683 755852517 -1314048678 -69678251 -939380066 -1477148591 -1604523480 -1637514521 -174153193 -1050475524 833077292 526901591 -1183612377 -753136472 564936055 101057902 -649598891
REM
CELL 1.54180   50.00000   50.00000   50.00000   90.00000   90.00000   90.00000
LATT -1
SFAC C  
C      1  0.5626890000000  0.5353080000000  0.5664060000000 1.0
C      1  0.4062060000000  0.5551320000000  0.4964950000000 1.0
C      1  0.5283510000000  0.4424990000000  0.4651460000000 1.0
C      1  0.6083250000000  0.4785120000000  0.4916970000000 1.0
C      1  0.4894300000000  0.5563380000000  0.5743710000000 1.0
C      1  0.4822920000000  0.5716420000000  0.5261910000000 1.0
C      1  0.4375390000000  0.4829400000000  0.5547450000000 1.0
C      1  0.5167780000000  0.4642500000000  0.4797340000000 1.0
C      1  0.3925850000000  0.5322290000000  0.5027240000000 1.0
C      1  0.5471300000000  0.4031060000000  0.4888860000000 1.0
C      1  0.5284600000000  0.4909330000000  0.5428610000000 1.0
C      1  0.4674720000000  0.5842950000000  0.5061450000000 1.0
C      1  0.4685160000000  0.5207360000000  0.4722670000000 1.0
C      1  0.4179710000000  0.5097220000000  0.4730660000000 1.0
C      1  0.4937080000000  0.4001030000000  0.5223820000000 1.0
C      1  0.5667380000000  0.3917330000000  0.5017420000000 1.0
C      1  0.5299880000000  0.6036380000000  0.5417570000000 1.0
C      1  0.5337070000000  0.5048030000000  0.4521760000000 1.0
C      1  0.5672160000000  0.5761040000000  0.5267530000000 1.0
C      1  0.4287000000000  0.4133810000000  0.5294530000000 1.0
C      1  0.4653550000000  0.5397280000000  0.4521130000000 1.0
C      1  0.5320300000000  0.5635410000000  0.5960830000000 1.0
C      1  0.4831520000000  0.4188110000000  0.4517030000000 1.0
C      1  0.4406380000000  0.4868710000000  0.4372310000000 1.0
C      1  0.4625510000000  0.4994120000000  0.4224900000000 1.0
C      1  0.4186490000000  0.5035010000000  0.4453980000000 1.0
C      1  0.4830400000000  0.3991280000000  0.4962130000000 1.0
C      1  0.4557480000000  0.4032490000000  0.4873950000000 1.0
C      1  0.4545920000000  0.5760490000000  0.4823550000000 1.0
C      1  0.5663170000000  0.5553680000000  0.5466740000000 1.0
C      1  0.5000510000000  0.5727550000000  0.4551760000000 1.0
C      1  0.5998010000000  0.4867810000000  0.4113120000000 1.0
C      1  0.4205080000000  0.4351290000000  0.4884220000000 1.0
C      1  0.5555870000000  0.4965560000000  0.5930250000000 1.0
C      1  0.4603680000000  0.5178640000000  0.5850700000000 1.0
C      1  0.4436230000000  0.4546970000000  0.5536130000000 1.0
C      1  0.5061290000000  0.4114740000000  0.5435170000000 1.0
C      1  0.5418280000000  0.4416770000000  0.4174940000000 1.0
C      1  0.5772600000000  0.4906600000000  0.4238180000000 1.0
C      1  0.4716390000000  0.5664900000000  0.4607230000000 1.0
C      1  0.5143850000000  0.4897290000000  0.4670520000000 1.0
C      1  0.5903000000000  0.5778490000000  0.5108870000000 1.0
C      1  0.6261500000000  0.5238470000000  0.4752520000000 1.0
C      1  0.4993860000000  0.5358170000000  0.4198910000000 1.0
C      1  0.5444770000000  0.5932280000000  0.5197200000000 1.0
C      1  0.4472840000000  0.5144170000000  0.5153700000000 1.0
C      1  0.4271150000000  0.5685140000000  0.4856330000000 1.0
C      1  0.4322090000000  0.4106380000000  0.5014430000000 1.0
C      1  0.5207510000000  0.5093870000000  0.5229980000000 1.0
C      1  0.5397160000000  0.5159240000000  0.5027310000000 1.0
C      1  0.6216940000000  0.5493850000000  0.4811360000000 1.0
C      1  0.5315320000000  0.5331350000000  0.4577410000000 1.0
C      1  0.5261730000000  0.4165760000000  0.4768070000000 1.0
C      1  0.4805330000000  0.4818070000000  0.4081660000000 1.0
C      1  0.4722430000000  0.5275610000000  0.4272130000000 1.0
C      1  0.4867020000000  0.5279260000000  0.5822370000000 1.0
C      1  0.5034160000000  0.5542420000000  0.5178250000000 1.0
C      1  0.4562090000000  0.4186410000000  0.4616880000000 1.0
C      1  0.5443090000000  0.5397580000000  0.5890420000000 1.0
C      1  0.5008430000000  0.4585810000000  0.5029530000000 1.0
C      1  0.5110110000000  0.5742700000000  0.5811870000000 1.0
C      1  0.5097740000000  0.4843580000000  0.5643430000000 1.0
C      1  0.5910830000000  0.4700890000000  0.5100810000000 1.0
C      1  0.4729160000000  0.4539910000000  0.5472770000000 1.0
C      1  0.4238360000000  0.4410920000000  0.5365670000000 1.0
C      1  0.4914300000000  0.5047190000000  0.4731590000000 1.0
C      1  0.4365640000000  0.4399680000000  0.4635590000000 1.0
C      1  0.4107110000000  0.4533080000000  0.5106940000000 1.0
C      1  0.5733960000000  0.4738650000000  0.5295210000000 1.0
C      1  0.5173230000000  0.5961790000000  0.5642910000000 1.0
C      1  0.4715480000000  0.5227250000000  0.5259520000000 1.0
C      1  0.3979480000000  0.5055080000000  0.4934470000000 1.0
C      1  0.5358450000000  0.5381500000000  0.4855450000000 1.0
C      1  0.4422660000000  0.5006470000000  0.5755850000000 1.0
C      1  0.5325640000000  0.5140750000000  0.5968140000000 1.0
C      1  0.3976710000000  0.4787720000000  0.5049710000000 1.0
C      1  0.4997610000000  0.4066670000000  0.4735250000000 1.0
C      1  0.4406410000000  0.4897960000000  0.5275020000000 1.0
C      1  0.5160830000000  0.5920820000000  0.4701990000000 1.0
C      1  0.5303100000000  0.5865530000000  0.4948930000000 1.0
C      1  0.5229450000000  0.4415070000000  0.4370740000000 1.0
C      1  0.6212330000000  0.4979890000000  0.4790140000000 1.0
C      1  0.4987190000000  0.5271820000000  0.5244210000000 1.0
C      1  0.4452480000000  0.5097510000000  0.4855530000000 1.0
C      1  0.4972690000000  0.4576940000000  0.5624570000000 1.0
C      1  0.4739200000000  0.5669650000000  0.5528660000000 1.0
C      1  0.5109810000000  0.4324440000000  0.5602360000000 1.0
C      1  0.5103080000000  0.5201030000000  0.3991080000000 1.0
C      1  0.4544440000000  0.4710410000000  0.5092600000000 1.0
C      1  0.4950490000000  0.4362800000000  0.4322720000000 1.0
C      1  0.4447660000000  0.4668010000000  0.4583360000000 1.0
C      1  0.5137360000000  0.5497200000000  0.4415710000000 1.0
C      1  0.6088950000000  0.5685460000000  0.4943700000000 1.0
C      1  0.5569910000000  0.4888480000000  0.5461990000000 1.0
C      1  0.5667650000000  0.5054310000000  0.5671830000000 1.0
C      1  0.5076700000000  0.5072560000000  0.5836020000000 1.0
C      1  0.5545980000000  0.4948410000000  0.4369050000000 1.0
C      1  0.5010240000000  0.4951380000000  0.3937010000000 1.0
C      1  0.4822170000000  0.4545600000000  0.4151700000000 1.0
C      1  0.5234930000000  0.5591870000000  0.4991990000000 1.0
C      1  0.4774390000000  0.4582780000000  0.5189560000000 1.0
C      1  0.4515120000000  0.4795170000000  0.4828280000000 1.0
END
