TITL C-612606-7351-1334 15.0372943069178 125000 -129.688602678994 0 0 23 (C1) n - 1
REM
REM in /home/nfs/bkarasulu/CARBON/AIRSS/Generating-Clusters/TERSOFF/Only-C1/FIRE-HFTN
REM
REM
REM
REM
REM
REM ./C.cell (11c1c37f851c82e70ff6c80c92926a4b)
REM AIRSS Version 0.9.1 bugfix July 2018 build 013d7b7c2542+ Fri, 06 Jul 2018 19:26:36 +0100
REM compiler GCC version 9.2.1 20190827 (Red Hat 9.2.1-1)
REM options -cpp -mtune=generic -march=x86-64 -g -O0 -fpre-include=/usr/include/finclude/math-vector-fortran.h
REM seed 1022530371 202423754 -28758190 -228598148 663023694 384979907 -1652713757 -1906023711 604160591 -568819963 -1078408061 1198751024 -888449115 265797395 1282974543 2073178686 -1478056358 1079266517 549578544 772001478 -1186318866 -193432695 271826046 410439226 723710899 -1853596462 -974766708 472353830 454262945 2128172534 1973705621 -1742816462 741305999
REM
CELL 1.54180   50.00000   50.00000   50.00000   90.00000   90.00000   90.00000
LATT -1
SFAC C  
C      1  0.6250670000000  0.4835990000000  0.4132850000000 1.0
C      1  0.3522990000000  0.5468310000000  0.6473220000000 1.0
C      1  0.3520890000000  0.5193490000000  0.6020110000000 1.0
C      1  0.5797770000000  0.4871040000000  0.4405880000000 1.0
C      1  0.6948020000000  0.4917900000000  0.3961340000000 1.0
C      1  0.5118430000000  0.4923630000000  0.4815430000000 1.0
C      1  0.6717320000000  0.4801460000000  0.3854430000000 1.0
C      1  0.6477150000000  0.4818600000000  0.3996580000000 1.0
C      1  0.3293960000000  0.4928690000000  0.5690370000000 1.0
C      1  0.7162060000000  0.5026970000000  0.4062420000000 1.0
C      1  0.3521820000000  0.5330830000000  0.6246600000000 1.0
C      1  0.3986230000000  0.5011310000000  0.5498070000000 1.0
C      1  0.6024220000000  0.4853510000000  0.4269360000000 1.0
C      1  0.5571320000000  0.4888570000000  0.4542390000000 1.0
C      1  0.4212660000000  0.4993760000000  0.5361540000000 1.0
C      1  0.3524130000000  0.5603540000000  0.6696100000000 1.0
C      1  0.6726510000000  0.4672240000000  0.3613520000000 1.0
C      1  0.3522370000000  0.5049020000000  0.5780710000000 1.0
C      1  0.4439100000000  0.4976230000000  0.5225010000000 1.0
C      1  0.4891980000000  0.4941160000000  0.4951960000000 1.0
C      1  0.3760000000000  0.5028970000000  0.5634710000000 1.0
C      1  0.4665540000000  0.4958690000000  0.5088480000000 1.0
C      1  0.5344880000000  0.4906090000000  0.4678910000000 1.0
END
