TITL C-612603-7354-343 -3.06090282771981e-05 125000 -1116.41216032108 0 0 181 (C1) n - 1
REM
REM in /home/nfs/bkarasulu/CARBON/AIRSS/Generating-Clusters/TERSOFF/Only-C1/FIRE-HFTN
REM
REM
REM
REM
REM
REM ./C.cell (11c1c37f851c82e70ff6c80c92926a4b)
REM AIRSS Version 0.9.1 bugfix July 2018 build 013d7b7c2542+ Fri, 06 Jul 2018 19:26:36 +0100
REM compiler GCC version 9.2.1 20190827 (Red Hat 9.2.1-1)
REM options -cpp -mtune=generic -march=x86-64 -g -O0 -fpre-include=/usr/include/finclude/math-vector-fortran.h
REM seed -357526675 355856210 -1940393913 185244416 378954826 395906445 -1038483210 -445554319 -1692974934 700183113 1750282225 -125859060 -1573881232 -1493657636 1487346356 -664291809 -1392178753 -725101041 -410761739 -916112387 -1367856963 1636442675 407210413 831473212 917674705 -2059964709 -1483857994 431340226 1893890233 1280076683 -1117840887 833986002 1067526576
REM
CELL 1.54180   50.00000   50.00000   50.00000   90.00000   90.00000   90.00000
LATT -1
SFAC C  
C      1  0.4800850000000  0.3999870000000  0.6015840000000 1.0
C      1  0.4495110000000  0.5651230000000  0.3810940000000 1.0
C      1  0.5676440000000  0.6002140000000  0.5187250000000 1.0
C      1  0.4584500000000  0.6306510000000  0.4942670000000 1.0
C      1  0.5586930000000  0.4772400000000  0.3982290000000 1.0
C      1  0.5170890000000  0.4125570000000  0.5426430000000 1.0
C      1  0.4865020000000  0.4864310000000  0.4173300000000 1.0
C      1  0.5645160000000  0.4029740000000  0.5506140000000 1.0
C      1  0.5323750000000  0.5003400000000  0.5946840000000 1.0
C      1  0.5090140000000  0.3876840000000  0.5312820000000 1.0
C      1  0.4441440000000  0.5210940000000  0.4564840000000 1.0
C      1  0.6140310000000  0.4344130000000  0.5356280000000 1.0
C      1  0.5485020000000  0.4978140000000  0.5045920000000 1.0
C      1  0.5233580000000  0.5210870000000  0.5538750000000 1.0
C      1  0.6044990000000  0.4373200000000  0.4894090000000 1.0
C      1  0.5466750000000  0.6004840000000  0.4981510000000 1.0
C      1  0.4334750000000  0.4791310000000  0.5036040000000 1.0
C      1  0.4837640000000  0.5660570000000  0.4905280000000 1.0
C      1  0.6007890000000  0.5094320000000  0.5647670000000 1.0
C      1  0.3767470000000  0.4631660000000  0.5365680000000 1.0
C      1  0.5317540000000  0.5695860000000  0.5767680000000 1.0
C      1  0.4286100000000  0.4106370000000  0.5116760000000 1.0
C      1  0.3741990000000  0.5613670000000  0.4682760000000 1.0
C      1  0.5084260000000  0.4381900000000  0.4585220000000 1.0
C      1  0.4863750000000  0.3806840000000  0.5494580000000 1.0
C      1  0.5459100000000  0.5404560000000  0.4593760000000 1.0
C      1  0.4608530000000  0.5931690000000  0.5740740000000 1.0
C      1  0.4231100000000  0.5301510000000  0.5855180000000 1.0
C      1  0.5758950000000  0.3862400000000  0.5326710000000 1.0
C      1  0.4482860000000  0.4534560000000  0.5982190000000 1.0
C      1  0.4672120000000  0.5759330000000  0.4722460000000 1.0
C      1  0.5401840000000  0.4394040000000  0.4243340000000 1.0
C      1  0.5020150000000  0.5213390000000  0.4675190000000 1.0
C      1  0.5596600000000  0.4304140000000  0.5010770000000 1.0
C      1  0.6212140000000  0.5105620000000  0.4862590000000 1.0
C      1  0.5002080000000  0.4145270000000  0.4438360000000 1.0
C      1  0.5312590000000  0.6062600000000  0.4722240000000 1.0
C      1  0.5986960000000  0.4642900000000  0.5677100000000 1.0
C      1  0.5260570000000  0.4542740000000  0.4442950000000 1.0
C      1  0.4498110000000  0.5454940000000  0.5449480000000 1.0
C      1  0.4345280000000  0.5061100000000  0.5915340000000 1.0
C      1  0.3874640000000  0.5660900000000  0.4457370000000 1.0
C      1  0.5408410000000  0.5102860000000  0.3725940000000 1.0
C      1  0.4429810000000  0.5853970000000  0.4656330000000 1.0
C      1  0.5348410000000  0.4387320000000  0.5013780000000 1.0
C      1  0.5262570000000  0.4704790000000  0.5526870000000 1.0
C      1  0.5679550000000  0.5931280000000  0.5457890000000 1.0
C      1  0.4093830000000  0.5678650000000  0.4308000000000 1.0
C      1  0.4701680000000  0.4372710000000  0.4859210000000 1.0
C      1  0.4741400000000  0.4205500000000  0.6193280000000 1.0
C      1  0.4604860000000  0.6031520000000  0.5459600000000 1.0
C      1  0.4547740000000  0.4096300000000  0.5220130000000 1.0
C      1  0.3708270000000  0.4496550000000  0.5136510000000 1.0
C      1  0.4994160000000  0.5428640000000  0.4487910000000 1.0
C      1  0.4115300000000  0.4293660000000  0.4523030000000 1.0
C      1  0.4723190000000  0.5061920000000  0.5204960000000 1.0
C      1  0.4775440000000  0.4528750000000  0.5317560000000 1.0
C      1  0.4807270000000  0.5361360000000  0.4018710000000 1.0
C      1  0.4394560000000  0.4790880000000  0.4234860000000 1.0
C      1  0.6007800000000  0.4996270000000  0.5023660000000 1.0
C      1  0.5949320000000  0.4392660000000  0.5558240000000 1.0
C      1  0.5332110000000  0.5856900000000  0.4506560000000 1.0
C      1  0.4368130000000  0.5646700000000  0.4264820000000 1.0
C      1  0.4891240000000  0.4418510000000  0.3945050000000 1.0
C      1  0.5168160000000  0.5733620000000  0.5518240000000 1.0
C      1  0.5213580000000  0.5604760000000  0.3989920000000 1.0
C      1  0.5042680000000  0.4278790000000  0.5605300000000 1.0
C      1  0.5395810000000  0.4550000000000  0.4000490000000 1.0
C      1  0.4418320000000  0.5240680000000  0.4853830000000 1.0
C      1  0.5463710000000  0.4118970000000  0.4339600000000 1.0
C      1  0.4608630000000  0.5404500000000  0.3820260000000 1.0
C      1  0.5046780000000  0.6200200000000  0.4843960000000 1.0
C      1  0.4197500000000  0.4705130000000  0.4799010000000 1.0
C      1  0.4641780000000  0.4483500000000  0.6215660000000 1.0
C      1  0.5239260000000  0.3975120000000  0.4488880000000 1.0
C      1  0.4502570000000  0.4954910000000  0.4447050000000 1.0
C      1  0.4439840000000  0.5926160000000  0.5251780000000 1.0
C      1  0.5231550000000  0.3852840000000  0.4761500000000 1.0
C      1  0.4261630000000  0.5996800000000  0.4810750000000 1.0
C      1  0.4018050000000  0.4762210000000  0.5418700000000 1.0
C      1  0.5480440000000  0.4517800000000  0.5620060000000 1.0
C      1  0.5227990000000  0.5584810000000  0.4540910000000 1.0
C      1  0.4620850000000  0.3871010000000  0.5366720000000 1.0
C      1  0.5532600000000  0.5202390000000  0.4409190000000 1.0
C      1  0.4390320000000  0.6112670000000  0.5033330000000 1.0
C      1  0.5592170000000  0.5064840000000  0.3941620000000 1.0
C      1  0.5560970000000  0.4598930000000  0.5895780000000 1.0
C      1  0.4914850000000  0.4455130000000  0.5785610000000 1.0
C      1  0.4416370000000  0.4510780000000  0.4169340000000 1.0
C      1  0.5723680000000  0.5391080000000  0.4990840000000 1.0
C      1  0.5207680000000  0.5048330000000  0.5070120000000 1.0
C      1  0.4857570000000  0.3856700000000  0.5785740000000 1.0
C      1  0.4822110000000  0.4997460000000  0.6265670000000 1.0
C      1  0.4758780000000  0.6175940000000  0.4245330000000 1.0
C      1  0.3927520000000  0.4395650000000  0.4991380000000 1.0
C      1  0.5347320000000  0.4548010000000  0.6074610000000 1.0
C      1  0.5808080000000  0.4742330000000  0.5889070000000 1.0
C      1  0.6135640000000  0.4517980000000  0.5126730000000 1.0
C      1  0.5028150000000  0.6123980000000  0.5131750000000 1.0
C      1  0.5086040000000  0.4524720000000  0.6004210000000 1.0
C      1  0.4882850000000  0.5897950000000  0.5833710000000 1.0
C      1  0.4260950000000  0.4058620000000  0.4602750000000 1.0
C      1  0.5160630000000  0.3824490000000  0.5030660000000 1.0
C      1  0.4499980000000  0.5022770000000  0.5029160000000 1.0
C      1  0.4631920000000  0.4538180000000  0.5744730000000 1.0
C      1  0.5031820000000  0.4870170000000  0.3941740000000 1.0
C      1  0.5577540000000  0.5288070000000  0.4138500000000 1.0
C      1  0.4220040000000  0.3971280000000  0.4873100000000 1.0
C      1  0.5020250000000  0.4686720000000  0.5346150000000 1.0
C      1  0.5742710000000  0.5098330000000  0.5001160000000 1.0
C      1  0.5572490000000  0.5784570000000  0.4331340000000 1.0
C      1  0.5411580000000  0.5094070000000  0.6175850000000 1.0
C      1  0.5963260000000  0.4192230000000  0.4452970000000 1.0
C      1  0.5487410000000  0.5578200000000  0.4108640000000 1.0
C      1  0.4710200000000  0.4324630000000  0.5139060000000 1.0
C      1  0.5028810000000  0.5827980000000  0.4024640000000 1.0
C      1  0.4182360000000  0.4374180000000  0.4260110000000 1.0
C      1  0.3981460000000  0.5364240000000  0.5949790000000 1.0
C      1  0.4782200000000  0.5412000000000  0.4298910000000 1.0
C      1  0.4150470000000  0.4345790000000  0.5173280000000 1.0
C      1  0.6051850000000  0.4410510000000  0.4611310000000 1.0
C      1  0.4768400000000  0.5935360000000  0.4099960000000 1.0
C      1  0.5026510000000  0.5977860000000  0.5585340000000 1.0
C      1  0.6083770000000  0.4795280000000  0.5208600000000 1.0
C      1  0.5119040000000  0.4596270000000  0.3905100000000 1.0
C      1  0.5280570000000  0.4812270000000  0.4516240000000 1.0
C      1  0.4680180000000  0.4111280000000  0.4751040000000 1.0
C      1  0.5276880000000  0.4964500000000  0.5671940000000 1.0
C      1  0.5459480000000  0.5343820000000  0.5430750000000 1.0
C      1  0.4783990000000  0.4835670000000  0.4476570000000 1.0
C      1  0.4035990000000  0.4475490000000  0.4734500000000 1.0
C      1  0.5173010000000  0.5682110000000  0.5241600000000 1.0
C      1  0.5009810000000  0.5518080000000  0.6182660000000 1.0
C      1  0.3768510000000  0.5424340000000  0.5168310000000 1.0
C      1  0.5077860000000  0.5696300000000  0.5962580000000 1.0
C      1  0.5684940000000  0.5516410000000  0.4737580000000 1.0
C      1  0.5575680000000  0.5816540000000  0.5690680000000 1.0
C      1  0.5533370000000  0.4933420000000  0.4483780000000 1.0
C      1  0.3886670000000  0.5262680000000  0.5342790000000 1.0
C      1  0.4718090000000  0.4601550000000  0.4684350000000 1.0
C      1  0.5240980000000  0.5933760000000  0.5140150000000 1.0
C      1  0.4876120000000  0.6108060000000  0.5376730000000 1.0
C      1  0.4714690000000  0.5269600000000  0.5407120000000 1.0
C      1  0.5865670000000  0.5027760000000  0.5877850000000 1.0
C      1  0.4274240000000  0.4621630000000  0.5305480000000 1.0
C      1  0.4414120000000  0.5747860000000  0.5818790000000 1.0
C      1  0.4516100000000  0.5791870000000  0.4057770000000 1.0
C      1  0.4669090000000  0.4354010000000  0.4122270000000 1.0
C      1  0.5038260000000  0.4949000000000  0.4588480000000 1.0
C      1  0.6027470000000  0.4670520000000  0.4501390000000 1.0
C      1  0.5040260000000  0.5524740000000  0.5047630000000 1.0
C      1  0.4001660000000  0.5041220000000  0.5435590000000 1.0
C      1  0.4800090000000  0.6305500000000  0.4749750000000 1.0
C      1  0.5070120000000  0.5359700000000  0.3922650000000 1.0
C      1  0.4894720000000  0.5250240000000  0.6184950000000 1.0
C      1  0.3710130000000  0.5537700000000  0.4935310000000 1.0
C      1  0.4537670000000  0.4053100000000  0.4511870000000 1.0
C      1  0.5843550000000  0.4183320000000  0.4970950000000 1.0
C      1  0.6327490000000  0.5037550000000  0.4629980000000 1.0
C      1  0.4757920000000  0.6314140000000  0.4473270000000 1.0
C      1  0.5621810000000  0.5458710000000  0.5247800000000 1.0
C      1  0.6251620000000  0.4836810000000  0.4467610000000 1.0
C      1  0.5771800000000  0.4786810000000  0.4490590000000 1.0
C      1  0.4732130000000  0.4144490000000  0.4316570000000 1.0
C      1  0.5143540000000  0.5107300000000  0.3818800000000 1.0
C      1  0.5739420000000  0.4067150000000  0.4372350000000 1.0
C      1  0.4538740000000  0.4589640000000  0.5479080000000 1.0
C      1  0.4983000000000  0.4921980000000  0.5190420000000 1.0
C      1  0.5673550000000  0.4307230000000  0.5548220000000 1.0
C      1  0.5135700000000  0.4385990000000  0.4858770000000 1.0
C      1  0.4350190000000  0.5480460000000  0.4993700000000 1.0
C      1  0.4963500000000  0.5298060000000  0.5538530000000 1.0
C      1  0.4511950000000  0.5430590000000  0.4391650000000 1.0
C      1  0.5779400000000  0.5710250000000  0.4537080000000 1.0
C      1  0.5062730000000  0.5621870000000  0.6434270000000 1.0
C      1  0.5113820000000  0.5276920000000  0.4934420000000 1.0
C      1  0.4752790000000  0.4735090000000  0.6314530000000 1.0
C      1  0.4413330000000  0.5629640000000  0.5230460000000 1.0
C      1  0.5872250000000  0.3929340000000  0.5089750000000 1.0
C      1  0.4375620000000  0.5492960000000  0.5705730000000 1.0
C      1  0.6069320000000  0.4858500000000  0.5490570000000 1.0
END
