TITL C-612603-7354-1358 0.00132278563679505 125000 -1117.2844719426 0 0 182 (C1) n - 1
REM
REM in /home/nfs/bkarasulu/CARBON/AIRSS/Generating-Clusters/TERSOFF/Only-C1/FIRE-HFTN
REM
REM
REM
REM
REM
REM ./C.cell (11c1c37f851c82e70ff6c80c92926a4b)
REM AIRSS Version 0.9.1 bugfix July 2018 build 013d7b7c2542+ Fri, 06 Jul 2018 19:26:36 +0100
REM compiler GCC version 9.2.1 20190827 (Red Hat 9.2.1-1)
REM options -cpp -mtune=generic -march=x86-64 -g -O0 -fpre-include=/usr/include/finclude/math-vector-fortran.h
REM seed -439526535 732255212 2485526 1770826452 -394821673 -616220826 963234482 -2016401987 -722166480 -1258908616 626190279 -582405362 789398188 1829389971 -1771338718 1954347218 1898186232 2078568459 478697782 -1199323979 1693879866 1414842400 -514550121 -246988333 1290427426 -1741722824 -2139224787 672431221 1705545015 287282299 -1042218499 -1296661373 -979140923
REM
CELL 1.54180   50.00000   50.00000   50.00000   90.00000   90.00000   90.00000
LATT -1
SFAC C  
C      1  0.6094060000000  0.5165490000000  0.5697270000000 1.0
C      1  0.5142190000000  0.4869530000000  0.6165230000000 1.0
C      1  0.5266570000000  0.6192370000000  0.5306160000000 1.0
C      1  0.5273010000000  0.4485070000000  0.3960290000000 1.0
C      1  0.4690230000000  0.5050400000000  0.6127490000000 1.0
C      1  0.5386070000000  0.6318530000000  0.4756480000000 1.0
C      1  0.5674780000000  0.5194640000000  0.5100920000000 1.0
C      1  0.3889540000000  0.4752280000000  0.4720040000000 1.0
C      1  0.4811700000000  0.5429540000000  0.4145980000000 1.0
C      1  0.5566660000000  0.4787360000000  0.6047530000000 1.0
C      1  0.5446300000000  0.4601930000000  0.5505680000000 1.0
C      1  0.4534170000000  0.4074400000000  0.4351600000000 1.0
C      1  0.5379140000000  0.4052980000000  0.4762040000000 1.0
C      1  0.4918700000000  0.5730560000000  0.4704100000000 1.0
C      1  0.5123840000000  0.4269100000000  0.5385030000000 1.0
C      1  0.5758680000000  0.4724600000000  0.4359060000000 1.0
C      1  0.5218870000000  0.5072660000000  0.4201560000000 1.0
C      1  0.4487010000000  0.4270330000000  0.4812750000000 1.0
C      1  0.5840760000000  0.4245610000000  0.4764230000000 1.0
C      1  0.6119800000000  0.5527210000000  0.5194920000000 1.0
C      1  0.5152970000000  0.3939910000000  0.4367450000000 1.0
C      1  0.4297900000000  0.4495750000000  0.4429210000000 1.0
C      1  0.3876830000000  0.5036150000000  0.4662310000000 1.0
C      1  0.6102490000000  0.4500830000000  0.4116020000000 1.0
C      1  0.5636850000000  0.5775840000000  0.5737330000000 1.0
C      1  0.5231640000000  0.4780970000000  0.5564670000000 1.0
C      1  0.4920680000000  0.5864550000000  0.5778020000000 1.0
C      1  0.4423370000000  0.5634700000000  0.4884470000000 1.0
C      1  0.5741140000000  0.5263820000000  0.6001770000000 1.0
C      1  0.5822980000000  0.5578380000000  0.5625870000000 1.0
C      1  0.5546000000000  0.5081210000000  0.6084440000000 1.0
C      1  0.4144150000000  0.4284270000000  0.5183470000000 1.0
C      1  0.5671680000000  0.4755440000000  0.5406130000000 1.0
C      1  0.4798880000000  0.5334050000000  0.6133150000000 1.0
C      1  0.4790400000000  0.4691190000000  0.5751800000000 1.0
C      1  0.5086430000000  0.5545210000000  0.5527560000000 1.0
C      1  0.5173500000000  0.5036510000000  0.4657440000000 1.0
C      1  0.4300470000000  0.4485290000000  0.4709470000000 1.0
C      1  0.5490680000000  0.3786600000000  0.4805820000000 1.0
C      1  0.5502740000000  0.5259470000000  0.3881680000000 1.0
C      1  0.6214660000000  0.5152900000000  0.4517930000000 1.0
C      1  0.5334430000000  0.4665450000000  0.4922260000000 1.0
C      1  0.5991790000000  0.4440690000000  0.4899520000000 1.0
C      1  0.5936510000000  0.4729400000000  0.5500250000000 1.0
C      1  0.5488550000000  0.5706820000000  0.4326670000000 1.0
C      1  0.4153610000000  0.4702880000000  0.4830520000000 1.0
C      1  0.4440750000000  0.5938120000000  0.4843250000000 1.0
C      1  0.4551900000000  0.5855520000000  0.4301410000000 1.0
C      1  0.3535510000000  0.5478580000000  0.5260450000000 1.0
C      1  0.5633480000000  0.6028410000000  0.5608710000000 1.0
C      1  0.5113750000000  0.4014320000000  0.4646920000000 1.0
C      1  0.5340420000000  0.3726050000000  0.4345580000000 1.0
C      1  0.4384870000000  0.4157260000000  0.5077260000000 1.0
C      1  0.5205660000000  0.4899840000000  0.4898130000000 1.0
C      1  0.6031880000000  0.4704220000000  0.4295380000000 1.0
C      1  0.5023390000000  0.5996260000000  0.4742190000000 1.0
C      1  0.4662400000000  0.5958350000000  0.5645810000000 1.0
C      1  0.5974620000000  0.4038090000000  0.4633570000000 1.0
C      1  0.4439730000000  0.5032550000000  0.6302890000000 1.0
C      1  0.3735080000000  0.4564480000000  0.4897350000000 1.0
C      1  0.6130570000000  0.4661890000000  0.4951760000000 1.0
C      1  0.4502660000000  0.6015040000000  0.4546320000000 1.0
C      1  0.5012940000000  0.4101890000000  0.4181430000000 1.0
C      1  0.4339270000000  0.5552800000000  0.6074310000000 1.0
C      1  0.4008120000000  0.5273090000000  0.4709480000000 1.0
C      1  0.5288740000000  0.6075570000000  0.4675910000000 1.0
C      1  0.3645150000000  0.4744390000000  0.5104100000000 1.0
C      1  0.5607590000000  0.5031630000000  0.5321590000000 1.0
C      1  0.5140290000000  0.5663410000000  0.5987810000000 1.0
C      1  0.5504280000000  0.6183480000000  0.5432340000000 1.0
C      1  0.4202980000000  0.4555450000000  0.3901650000000 1.0
C      1  0.4797190000000  0.5717940000000  0.4201570000000 1.0
C      1  0.5053010000000  0.5827130000000  0.4130900000000 1.0
C      1  0.5506980000000  0.4717820000000  0.4479750000000 1.0
C      1  0.4333850000000  0.4262860000000  0.4267310000000 1.0
C      1  0.4570720000000  0.4885380000000  0.4431210000000 1.0
C      1  0.4723520000000  0.5293480000000  0.4635240000000 1.0
C      1  0.5872290000000  0.5563190000000  0.5335180000000 1.0
C      1  0.4625700000000  0.4085510000000  0.5518890000000 1.0
C      1  0.4596500000000  0.4041940000000  0.4634970000000 1.0
C      1  0.3309290000000  0.5367170000000  0.5194340000000 1.0
C      1  0.6103060000000  0.4913070000000  0.5605750000000 1.0
C      1  0.5118190000000  0.5522160000000  0.4716130000000 1.0
C      1  0.5653380000000  0.5475520000000  0.5172890000000 1.0
C      1  0.3867770000000  0.4850640000000  0.5248550000000 1.0
C      1  0.4848500000000  0.3979280000000  0.5086630000000 1.0
C      1  0.4947450000000  0.4491430000000  0.5310870000000 1.0
C      1  0.4722290000000  0.5495640000000  0.5268620000000 1.0
C      1  0.4583210000000  0.4732990000000  0.5110700000000 1.0
C      1  0.5309610000000  0.4757270000000  0.3872840000000 1.0
C      1  0.4777120000000  0.4530820000000  0.5093910000000 1.0
C      1  0.5310180000000  0.5702550000000  0.4099380000000 1.0
C      1  0.4668630000000  0.5561760000000  0.4720190000000 1.0
C      1  0.4217060000000  0.4486320000000  0.5383360000000 1.0
C      1  0.5448200000000  0.5911070000000  0.4514380000000 1.0
C      1  0.5450550000000  0.5179050000000  0.5515210000000 1.0
C      1  0.4646010000000  0.6084750000000  0.5032350000000 1.0
C      1  0.4512310000000  0.5241540000000  0.3741640000000 1.0
C      1  0.4237710000000  0.4512790000000  0.6060000000000 1.0
C      1  0.4883840000000  0.4428890000000  0.5844620000000 1.0
C      1  0.5464380000000  0.4541160000000  0.4705520000000 1.0
C      1  0.4805800000000  0.4785900000000  0.4303220000000 1.0
C      1  0.5476820000000  0.4306800000000  0.3880260000000 1.0
C      1  0.5090340000000  0.4017640000000  0.5248340000000 1.0
C      1  0.4414560000000  0.5847180000000  0.5595270000000 1.0
C      1  0.5162180000000  0.5478340000000  0.4993360000000 1.0
C      1  0.4828070000000  0.6190660000000  0.4818880000000 1.0
C      1  0.5081150000000  0.5388780000000  0.6094780000000 1.0
C      1  0.5304720000000  0.4651860000000  0.6046280000000 1.0
C      1  0.4762840000000  0.6067970000000  0.5302820000000 1.0
C      1  0.4608960000000  0.5038200000000  0.4678370000000 1.0
C      1  0.4075730000000  0.4591860000000  0.5608600000000 1.0
C      1  0.5870130000000  0.5397430000000  0.4210960000000 1.0
C      1  0.3869300000000  0.5510370000000  0.5967820000000 1.0
C      1  0.5682670000000  0.5165090000000  0.4823590000000 1.0
C      1  0.4950900000000  0.4550580000000  0.4351440000000 1.0
C      1  0.4344280000000  0.4709020000000  0.5246120000000 1.0
C      1  0.5556380000000  0.4275870000000  0.4739550000000 1.0
C      1  0.5638870000000  0.5329910000000  0.4616900000000 1.0
C      1  0.5262140000000  0.5148420000000  0.6134510000000 1.0
C      1  0.4857210000000  0.3970610000000  0.4784020000000 1.0
C      1  0.3874780000000  0.4775040000000  0.5522420000000 1.0
C      1  0.4844750000000  0.5091930000000  0.5123850000000 1.0
C      1  0.5314260000000  0.4925620000000  0.4431480000000 1.0
C      1  0.5041040000000  0.6030460000000  0.5341510000000 1.0
C      1  0.5022500000000  0.5275060000000  0.4268430000000 1.0
C      1  0.5457400000000  0.3702770000000  0.5071870000000 1.0
C      1  0.4178760000000  0.5471930000000  0.4787100000000 1.0
C      1  0.4923130000000  0.5363800000000  0.5104520000000 1.0
C      1  0.4244990000000  0.4779470000000  0.4052650000000 1.0
C      1  0.5316030000000  0.4353340000000  0.5597040000000 1.0
C      1  0.3898470000000  0.4338470000000  0.5017670000000 1.0
C      1  0.4244060000000  0.4303610000000  0.3999910000000 1.0
C      1  0.4735220000000  0.4207130000000  0.5736650000000 1.0
C      1  0.4639890000000  0.4961580000000  0.5832770000000 1.0
C      1  0.5418780000000  0.5721690000000  0.5922900000000 1.0
C      1  0.4020430000000  0.5660500000000  0.5367660000000 1.0
C      1  0.4124310000000  0.5413930000000  0.5957060000000 1.0
C      1  0.5021740000000  0.5278880000000  0.4572670000000 1.0
C      1  0.4848250000000  0.4987760000000  0.5389460000000 1.0
C      1  0.5344110000000  0.5027940000000  0.3954010000000 1.0
C      1  0.4820420000000  0.5423580000000  0.5535360000000 1.0
C      1  0.4665350000000  0.6257370000000  0.4587630000000 1.0
C      1  0.5076760000000  0.5826410000000  0.5536460000000 1.0
C      1  0.4879690000000  0.4860450000000  0.6250620000000 1.0
C      1  0.6119730000000  0.3864950000000  0.4503600000000 1.0
C      1  0.4918480000000  0.4461090000000  0.4617870000000 1.0
C      1  0.5664130000000  0.5490010000000  0.4387490000000 1.0
C      1  0.4472050000000  0.5594210000000  0.5183960000000 1.0
C      1  0.4599920000000  0.4041080000000  0.5235100000000 1.0
C      1  0.6234300000000  0.5166480000000  0.4807210000000 1.0
C      1  0.6209540000000  0.4892050000000  0.4403900000000 1.0
C      1  0.4331000000000  0.5833470000000  0.4133860000000 1.0
C      1  0.5774050000000  0.5278900000000  0.3970830000000 1.0
C      1  0.3771440000000  0.5582900000000  0.5321210000000 1.0
C      1  0.4740060000000  0.4029280000000  0.4162570000000 1.0
C      1  0.4183530000000  0.5165450000000  0.5838770000000 1.0
C      1  0.4126840000000  0.4825890000000  0.5101920000000 1.0
C      1  0.4295330000000  0.5700340000000  0.5383900000000 1.0
C      1  0.4653090000000  0.4959090000000  0.4952350000000 1.0
C      1  0.5367160000000  0.5513690000000  0.3892820000000 1.0
C      1  0.4220450000000  0.4670480000000  0.5838190000000 1.0
C      1  0.5331580000000  0.5425060000000  0.5501970000000 1.0
C      1  0.4597700000000  0.5531910000000  0.6140400000000 1.0
C      1  0.4340560000000  0.4758350000000  0.4319410000000 1.0
C      1  0.4753740000000  0.5155230000000  0.5610930000000 1.0
C      1  0.4643950000000  0.5316770000000  0.3953590000000 1.0
C      1  0.6220890000000  0.5392670000000  0.4980990000000 1.0
C      1  0.6221640000000  0.4911840000000  0.4932930000000 1.0
C      1  0.4954610000000  0.4730080000000  0.5491190000000 1.0
C      1  0.5979920000000  0.4323340000000  0.3957880000000 1.0
C      1  0.4758430000000  0.4416810000000  0.4844050000000 1.0
C      1  0.5404760000000  0.5581080000000  0.5094980000000 1.0
C      1  0.5184300000000  0.4429600000000  0.5870160000000 1.0
C      1  0.6117430000000  0.5350450000000  0.4340230000000 1.0
C      1  0.5306250000000  0.5014520000000  0.5680850000000 1.0
C      1  0.5287690000000  0.3816010000000  0.5248950000000 1.0
C      1  0.5491090000000  0.3641550000000  0.4559780000000 1.0
C      1  0.5737140000000  0.4249540000000  0.3874840000000 1.0
C      1  0.5903930000000  0.5353840000000  0.5788530000000 1.0
C      1  0.5078570000000  0.4385600000000  0.4152440000000 1.0
C      1  0.4338620000000  0.4930450000000  0.5821500000000 1.0
END
