TITL C-612600-6631-1052 -579.68764695766 125000 -1118.52815323913 0 0 186 (C1) n - 1
REM
REM in /home/nfs/bkarasulu/CARBON/AIRSS/Generating-Clusters/TERSOFF/Only-C1/FIRE-HFTN
REM
REM
REM
REM
REM
REM ./C.cell (11c1c37f851c82e70ff6c80c92926a4b)
REM AIRSS Version 0.9.1 bugfix July 2018 build 013d7b7c2542+ Fri, 06 Jul 2018 19:26:36 +0100
REM compiler GCC version 9.2.1 20190827 (Red Hat 9.2.1-1)
REM options -cpp -mtune=generic -march=x86-64 -g -O0 -fpre-include=/usr/include/finclude/math-vector-fortran.h
REM seed 1738671589 875311824 -873477682 430758269 -1355161757 -2012918109 -737506486 -889248674 -814183548 1697098261 114509213 -401231276 1687723328 -161783435 1090872471 1570416387 545660024 696659286 360851544 -394445406 1223645018 225326261 1787399246 -868911517 -976974678 -2016614317 -1142922382 -601958860 1705661401 -763485446 1849565068 1228024549 -2052899109
REM
CELL 1.54180   50.00000   50.00000   50.00000   90.00000   90.00000   90.00000
LATT -1
SFAC C  
C      1  0.4327830000000  0.5168540000000  0.5063680000000 1.0
C      1  0.3206060000000  0.4852260000000  0.4165170000000 1.0
C      1  0.4683370000000  0.4471230000000  0.4070240000000 1.0
C      1  0.5726920000000  0.5752610000000  0.4264310000000 1.0
C      1  0.4698250000000  0.5478990000000  0.5482860000000 1.0
C      1  0.5498210000000  0.4310500000000  0.6126690000000 1.0
C      1  0.4729150000000  0.4193890000000  0.4111800000000 1.0
C      1  0.5567050000000  0.5779810000000  0.5440510000000 1.0
C      1  0.5019060000000  0.4296950000000  0.4709910000000 1.0
C      1  0.4562920000000  0.4494300000000  0.4655590000000 1.0
C      1  0.4745770000000  0.4113110000000  0.5862100000000 1.0
C      1  0.6112600000000  0.5343560000000  0.4720580000000 1.0
C      1  0.5029500000000  0.5736580000000  0.4946270000000 1.0
C      1  0.4714040000000  0.4512110000000  0.5516230000000 1.0
C      1  0.4217280000000  0.4903790000000  0.5110640000000 1.0
C      1  0.5662100000000  0.4017110000000  0.4784470000000 1.0
C      1  0.5343370000000  0.4543260000000  0.6206820000000 1.0
C      1  0.4465560000000  0.3990960000000  0.5414880000000 1.0
C      1  0.5205680000000  0.4501030000000  0.5273590000000 1.0
C      1  0.5202610000000  0.3765600000000  0.4752210000000 1.0
C      1  0.6031020000000  0.5264560000000  0.5824150000000 1.0
C      1  0.5141770000000  0.6116080000000  0.4369970000000 1.0
C      1  0.5784110000000  0.4745990000000  0.6083230000000 1.0
C      1  0.4180640000000  0.4734430000000  0.4866570000000 1.0
C      1  0.5532820000000  0.5222450000000  0.5547120000000 1.0
C      1  0.4647970000000  0.5118460000000  0.5765290000000 1.0
C      1  0.5393300000000  0.5310000000000  0.6014530000000 1.0
C      1  0.4813040000000  0.6090390000000  0.5304460000000 1.0
C      1  0.3975160000000  0.4527840000000  0.4870100000000 1.0
C      1  0.4848260000000  0.5040770000000  0.4548280000000 1.0
C      1  0.5217150000000  0.4209280000000  0.4897270000000 1.0
C      1  0.6116600000000  0.4536790000000  0.5125630000000 1.0
C      1  0.6185800000000  0.4671650000000  0.5379120000000 1.0
C      1  0.4367720000000  0.6044970000000  0.5162040000000 1.0
C      1  0.5172540000000  0.5268210000000  0.5248980000000 1.0
C      1  0.4350730000000  0.4177390000000  0.4950540000000 1.0
C      1  0.5471040000000  0.4606130000000  0.5237430000000 1.0
C      1  0.5149590000000  0.4502230000000  0.3853270000000 1.0
C      1  0.4156630000000  0.6017050000000  0.5355230000000 1.0
C      1  0.4797120000000  0.5117420000000  0.4815720000000 1.0
C      1  0.5624980000000  0.4512560000000  0.5694590000000 1.0
C      1  0.5560540000000  0.4972210000000  0.5661450000000 1.0
C      1  0.4906570000000  0.4527060000000  0.5728560000000 1.0
C      1  0.4689710000000  0.6262770000000  0.4808740000000 1.0
C      1  0.5592010000000  0.5821640000000  0.4041640000000 1.0
C      1  0.5216580000000  0.5200870000000  0.4344760000000 1.0
C      1  0.5678110000000  0.5280210000000  0.4289100000000 1.0
C      1  0.5514770000000  0.4797210000000  0.6194380000000 1.0
C      1  0.6028190000000  0.4856690000000  0.4745240000000 1.0
C      1  0.4355310000000  0.5661230000000  0.5748660000000 1.0
C      1  0.5098090000000  0.4760120000000  0.5702200000000 1.0
C      1  0.4717710000000  0.3834390000000  0.4909520000000 1.0
C      1  0.4250970000000  0.4760670000000  0.5384830000000 1.0
C      1  0.4055880000000  0.4255240000000  0.4920640000000 1.0
C      1  0.4611030000000  0.5603830000000  0.5226360000000 1.0
C      1  0.4355490000000  0.5437960000000  0.5165890000000 1.0
C      1  0.5795510000000  0.5620220000000  0.5332140000000 1.0
C      1  0.4400590000000  0.4069070000000  0.4451590000000 1.0
C      1  0.4230120000000  0.4447740000000  0.5350070000000 1.0
C      1  0.5040360000000  0.5001610000000  0.5912700000000 1.0
C      1  0.4041090000000  0.5263010000000  0.5624340000000 1.0
C      1  0.5861600000000  0.4662210000000  0.5817150000000 1.0
C      1  0.6437090000000  0.4599730000000  0.4760550000000 1.0
C      1  0.4925650000000  0.3844780000000  0.4695580000000 1.0
C      1  0.5238450000000  0.5542450000000  0.3857990000000 1.0
C      1  0.4857230000000  0.4629880000000  0.4231430000000 1.0
C      1  0.5314540000000  0.4021100000000  0.5330680000000 1.0
C      1  0.5038470000000  0.5046020000000  0.3906810000000 1.0
C      1  0.3452340000000  0.4648600000000  0.4829120000000 1.0
C      1  0.5241770000000  0.5299920000000  0.5553920000000 1.0
C      1  0.5158240000000  0.5977750000000  0.4136240000000 1.0
C      1  0.5428420000000  0.5217350000000  0.4158760000000 1.0
C      1  0.4012120000000  0.5562390000000  0.4532800000000 1.0
C      1  0.5620300000000  0.5028320000000  0.4935790000000 1.0
C      1  0.4694700000000  0.4388260000000  0.5262910000000 1.0
C      1  0.5111770000000  0.4713480000000  0.4343200000000 1.0
C      1  0.4898740000000  0.3794520000000  0.5536340000000 1.0
C      1  0.4965850000000  0.4086780000000  0.4514310000000 1.0
C      1  0.4514970000000  0.4040520000000  0.4209770000000 1.0
C      1  0.5408110000000  0.4731430000000  0.5708790000000 1.0
C      1  0.5431590000000  0.5395060000000  0.5141920000000 1.0
C      1  0.5264010000000  0.5257650000000  0.3914840000000 1.0
C      1  0.4599190000000  0.5907060000000  0.5254080000000 1.0
C      1  0.4245550000000  0.4942060000000  0.5876790000000 1.0
C      1  0.4505020000000  0.4865820000000  0.5767940000000 1.0
C      1  0.5573660000000  0.4279370000000  0.5867320000000 1.0
C      1  0.4312540000000  0.5211170000000  0.6026520000000 1.0
C      1  0.4839460000000  0.5549990000000  0.5048470000000 1.0
C      1  0.4445450000000  0.4234220000000  0.4673150000000 1.0
C      1  0.6199160000000  0.4670600000000  0.4877980000000 1.0
C      1  0.5445170000000  0.4862510000000  0.5122280000000 1.0
C      1  0.5475460000000  0.5308730000000  0.4855130000000 1.0
C      1  0.5199140000000  0.4339120000000  0.4099020000000 1.0
C      1  0.5845550000000  0.5448060000000  0.5891950000000 1.0
C      1  0.5045130000000  0.4809130000000  0.5387530000000 1.0
C      1  0.6402600000000  0.5054640000000  0.5549460000000 1.0
C      1  0.5606930000000  0.5549200000000  0.4709000000000 1.0
C      1  0.5446560000000  0.5722630000000  0.5711540000000 1.0
C      1  0.4854500000000  0.5065130000000  0.6143000000000 1.0
C      1  0.4992950000000  0.4156780000000  0.4229480000000 1.0
C      1  0.5889590000000  0.4138900000000  0.4869810000000 1.0
C      1  0.5465350000000  0.6039870000000  0.4734490000000 1.0
C      1  0.5625470000000  0.5809890000000  0.4907900000000 1.0
C      1  0.3398640000000  0.5012970000000  0.4269730000000 1.0
C      1  0.5315200000000  0.5793370000000  0.3983080000000 1.0
C      1  0.5106650000000  0.4970030000000  0.4456100000000 1.0
C      1  0.4217690000000  0.5863410000000  0.5593410000000 1.0
C      1  0.5167990000000  0.5794230000000  0.5768070000000 1.0
C      1  0.5774120000000  0.4240160000000  0.5312220000000 1.0
C      1  0.4834340000000  0.4509240000000  0.4746400000000 1.0
C      1  0.5569330000000  0.5521330000000  0.5903600000000 1.0
C      1  0.4707610000000  0.5757610000000  0.4424120000000 1.0
C      1  0.4950960000000  0.5629520000000  0.4463870000000 1.0
C      1  0.5792760000000  0.4818130000000  0.4250670000000 1.0
C      1  0.3823790000000  0.5365490000000  0.4476070000000 1.0
C      1  0.5599650000000  0.4017820000000  0.5343190000000 1.0
C      1  0.5679880000000  0.5342000000000  0.5321940000000 1.0
C      1  0.5330640000000  0.4541650000000  0.4269650000000 1.0
C      1  0.4156570000000  0.5025150000000  0.4332390000000 1.0
C      1  0.3841930000000  0.5377810000000  0.5477570000000 1.0
C      1  0.4210520000000  0.5412420000000  0.5822960000000 1.0
C      1  0.5656770000000  0.4476400000000  0.5404560000000 1.0
C      1  0.4976640000000  0.6228930000000  0.4849270000000 1.0
C      1  0.5890080000000  0.5708570000000  0.5060740000000 1.0
C      1  0.5028400000000  0.6142510000000  0.5126010000000 1.0
C      1  0.5198370000000  0.6152070000000  0.4651180000000 1.0
C      1  0.4904290000000  0.4722560000000  0.4900630000000 1.0
C      1  0.5107750000000  0.4773930000000  0.3812850000000 1.0
C      1  0.4244050000000  0.4188480000000  0.5487440000000 1.0
C      1  0.5618990000000  0.4584920000000  0.4716770000000 1.0
C      1  0.4096890000000  0.4976510000000  0.5626850000000 1.0
C      1  0.4381330000000  0.4721510000000  0.4644530000000 1.0
C      1  0.4543320000000  0.5076620000000  0.3846540000000 1.0
C      1  0.4900200000000  0.4347690000000  0.5945960000000 1.0
C      1  0.4547920000000  0.4761960000000  0.5494430000000 1.0
C      1  0.5818450000000  0.5142930000000  0.5148490000000 1.0
C      1  0.6048310000000  0.4776500000000  0.5632840000000 1.0
C      1  0.4977530000000  0.5286920000000  0.4987580000000 1.0
C      1  0.5193520000000  0.5356500000000  0.4770980000000 1.0
C      1  0.5869530000000  0.5076610000000  0.4348190000000 1.0
C      1  0.4448600000000  0.6203500000000  0.4932240000000 1.0
C      1  0.4758870000000  0.5071440000000  0.4042900000000 1.0
C      1  0.5178750000000  0.5242360000000  0.5830270000000 1.0
C      1  0.4506680000000  0.4581780000000  0.3884610000000 1.0
C      1  0.5105850000000  0.5628350000000  0.4696090000000 1.0
C      1  0.5453090000000  0.5083380000000  0.6191030000000 1.0
C      1  0.5438950000000  0.5860410000000  0.5192940000000 1.0
C      1  0.5749120000000  0.4815000000000  0.4780230000000 1.0
C      1  0.5181210000000  0.5905230000000  0.5116700000000 1.0
C      1  0.4526150000000  0.5147270000000  0.4868310000000 1.0
C      1  0.3909760000000  0.6127560000000  0.5316900000000 1.0
C      1  0.4611520000000  0.5194050000000  0.6041280000000 1.0
C      1  0.5594570000000  0.4635510000000  0.4236060000000 1.0
C      1  0.4654130000000  0.5027070000000  0.4332470000000 1.0
C      1  0.4397900000000  0.4916020000000  0.4424410000000 1.0
C      1  0.3346550000000  0.5244680000000  0.4424990000000 1.0
C      1  0.3545940000000  0.5401860000000  0.4520420000000 1.0
C      1  0.4897020000000  0.5768000000000  0.5801460000000 1.0
C      1  0.3894890000000  0.5119670000000  0.4342380000000 1.0
C      1  0.3677340000000  0.4969940000000  0.4237590000000 1.0
C      1  0.4443380000000  0.5322570000000  0.3762800000000 1.0
C      1  0.6068590000000  0.5548310000000  0.4896830000000 1.0
C      1  0.5382460000000  0.3984320000000  0.4806790000000 1.0
C      1  0.6439240000000  0.4826310000000  0.5380070000000 1.0
C      1  0.5196620000000  0.4238660000000  0.5179540000000 1.0
C      1  0.5146610000000  0.3830130000000  0.5444370000000 1.0
C      1  0.4766420000000  0.4947320000000  0.5378670000000 1.0
C      1  0.4226790000000  0.5709690000000  0.4480440000000 1.0
C      1  0.5217760000000  0.4980090000000  0.5232130000000 1.0
C      1  0.6154850000000  0.5047640000000  0.5696000000000 1.0
C      1  0.4681270000000  0.3956180000000  0.5619620000000 1.0
C      1  0.4448980000000  0.5761130000000  0.4318690000000 1.0
C      1  0.4504920000000  0.3941890000000  0.5091580000000 1.0
C      1  0.6675040000000  0.4752540000000  0.5267100000000 1.0
C      1  0.5031250000000  0.5416610000000  0.4305380000000 1.0
C      1  0.5961290000000  0.4287480000000  0.5102620000000 1.0
C      1  0.5063840000000  0.4452060000000  0.6164330000000 1.0
C      1  0.4415390000000  0.5745810000000  0.4040420000000 1.0
C      1  0.5688530000000  0.5530820000000  0.4433120000000 1.0
C      1  0.4437940000000  0.4395060000000  0.5141980000000 1.0
C      1  0.4651460000000  0.5647940000000  0.5711050000000 1.0
C      1  0.4404850000000  0.5575950000000  0.3835390000000 1.0
C      1  0.4444520000000  0.4821740000000  0.3781690000000 1.0
C      1  0.4730360000000  0.5203890000000  0.5513380000000 1.0
C      1  0.6048860000000  0.5097650000000  0.4582790000000 1.0
C      1  0.3706910000000  0.4593000000000  0.4832420000000 1.0
END
