TITL C-612606-7351-1179 3.49410583574981e-06 125000 -56.7173460712346 0 0 10 (C2v) n - 1
REM
REM in /home/nfs/bkarasulu/CARBON/AIRSS/Generating-Clusters/TERSOFF/Only-C1/FIRE-HFTN
REM
REM
REM
REM
REM
REM ./C.cell (11c1c37f851c82e70ff6c80c92926a4b)
REM AIRSS Version 0.9.1 bugfix July 2018 build 013d7b7c2542+ Fri, 06 Jul 2018 19:26:36 +0100
REM compiler GCC version 9.2.1 20190827 (Red Hat 9.2.1-1)
REM options -cpp -mtune=generic -march=x86-64 -g -O0 -fpre-include=/usr/include/finclude/math-vector-fortran.h
REM seed 596668309 -2068122285 -1680017154 655034123 -317769760 -2095385108 -991058736 2084581322 -1055172100 1428490524 -1365919822 -1259492483 555372347 -1469027560 1389324540 1197511907 103998629 1106492076 -199828286 -931643667 -1159053257 -812296911 -1862295099 1298053096 -733277507 703028713 -2131109720 2006233453 75018758 25809547 1318269989 -741161700 954821599
REM
CELL 1.54180   50.00000   50.00000   50.00000   90.00000   90.00000   90.00000
LATT -1
SFAC C  
C      1  0.4803600000000  0.5125970000000  0.5001620000000 1.0
C      1  0.4810540000000  0.4861080000000  0.5097820000000 1.0
C      1  0.5442480000000  0.4716200000000  0.4996350000000 1.0
C      1  0.5046110000000  0.5230870000000  0.4903360000000 1.0
C      1  0.4350010000000  0.5416890000000  0.5005360000000 1.0
C      1  0.4972420000000  0.4651050000000  0.5135740000000 1.0
C      1  0.5229890000000  0.4585430000000  0.5096830000000 1.0
C      1  0.5304050000000  0.5171630000000  0.4861980000000 1.0
C      1  0.4569380000000  0.5276190000000  0.5003550000000 1.0
C      1  0.5471500000000  0.4964700000000  0.4897380000000 1.0
END
