TITL C-612600-6631-1259 0.695445027329395 125000 -1084.12415214874 0 0 177 (C1) n - 1
REM
REM in /home/nfs/bkarasulu/CARBON/AIRSS/Generating-Clusters/TERSOFF/Only-C1/FIRE-HFTN
REM
REM
REM
REM
REM
REM ./C.cell (11c1c37f851c82e70ff6c80c92926a4b)
REM AIRSS Version 0.9.1 bugfix July 2018 build 013d7b7c2542+ Fri, 06 Jul 2018 19:26:36 +0100
REM compiler GCC version 9.2.1 20190827 (Red Hat 9.2.1-1)
REM options -cpp -mtune=generic -march=x86-64 -g -O0 -fpre-include=/usr/include/finclude/math-vector-fortran.h
REM seed 1880017922 -1284150386 1752133637 1086107389 1588358887 954642695 -635863527 -1106147494 -1842613514 -13294624 921841759 -1562025794 1104489368 1998740225 445648665 -169087756 -618421004 -1019144923 -1198441021 1739973768 219414631 233503764 -2036224110 1141134288 905756411 -1089378485 1127580804 -457769392 1137742119 1560051989 -1908526337 1116642317 -491718335
REM
CELL 1.54180   50.00000   50.00000   50.00000   90.00000   90.00000   90.00000
LATT -1
SFAC C  
C      1  0.3797190000000  0.4479000000000  0.5146700000000 1.0
C      1  0.4307040000000  0.4873300000000  0.5405330000000 1.0
C      1  0.4607250000000  0.4375650000000  0.5061730000000 1.0
C      1  0.4618120000000  0.4445760000000  0.5575060000000 1.0
C      1  0.5835640000000  0.4776930000000  0.4900660000000 1.0
C      1  0.5276480000000  0.5252340000000  0.5589520000000 1.0
C      1  0.5717380000000  0.5564880000000  0.4901630000000 1.0
C      1  0.3972510000000  0.5452150000000  0.4980860000000 1.0
C      1  0.5162750000000  0.4760470000000  0.3315750000000 1.0
C      1  0.3966350000000  0.5024710000000  0.4310460000000 1.0
C      1  0.4977210000000  0.4764280000000  0.5611960000000 1.0
C      1  0.5128840000000  0.4383530000000  0.5413540000000 1.0
C      1  0.5714440000000  0.4264190000000  0.5554610000000 1.0
C      1  0.6859390000000  0.6523370000000  0.5143430000000 1.0
C      1  0.5034110000000  0.4304910000000  0.5676940000000 1.0
C      1  0.5353910000000  0.3893420000000  0.5184910000000 1.0
C      1  0.5545350000000  0.4454330000000  0.5110630000000 1.0
C      1  0.5362370000000  0.4192620000000  0.6148330000000 1.0
C      1  0.5243740000000  0.4789200000000  0.4240110000000 1.0
C      1  0.4761540000000  0.4384780000000  0.4819290000000 1.0
C      1  0.4494700000000  0.5804080000000  0.4267390000000 1.0
C      1  0.6412600000000  0.6247030000000  0.5073390000000 1.0
C      1  0.4353840000000  0.3908860000000  0.4500070000000 1.0
C      1  0.5310230000000  0.6016190000000  0.4797620000000 1.0
C      1  0.4314410000000  0.4393250000000  0.4410300000000 1.0
C      1  0.5338610000000  0.3922740000000  0.5496140000000 1.0
C      1  0.7529570000000  0.6937900000000  0.5248490000000 1.0
C      1  0.5621730000000  0.4659550000000  0.5308950000000 1.0
C      1  0.5017130000000  0.3793180000000  0.5113580000000 1.0
C      1  0.4775200000000  0.5454330000000  0.5637400000000 1.0
C      1  0.7753020000000  0.7076110000000  0.5283510000000 1.0
C      1  0.5465360000000  0.4633030000000  0.4359070000000 1.0
C      1  0.4740920000000  0.6342500000000  0.5036120000000 1.0
C      1  0.4903550000000  0.5469390000000  0.5131320000000 1.0
C      1  0.5236070000000  0.5752040000000  0.5690770000000 1.0
C      1  0.4230390000000  0.3477720000000  0.4689720000000 1.0
C      1  0.4738290000000  0.5531300000000  0.3934350000000 1.0
C      1  0.5784230000000  0.4152790000000  0.4336920000000 1.0
C      1  0.4732010000000  0.5780170000000  0.4093140000000 1.0
C      1  0.5370990000000  0.6468720000000  0.5531090000000 1.0
C      1  0.5239390000000  0.4717480000000  0.4902910000000 1.0
C      1  0.4363690000000  0.3714960000000  0.4705360000000 1.0
C      1  0.4381130000000  0.4785580000000  0.4707230000000 1.0
C      1  0.5178440000000  0.5859120000000  0.4610790000000 1.0
C      1  0.4865200000000  0.5179720000000  0.5109460000000 1.0
C      1  0.6189200000000  0.6108880000000  0.5038390000000 1.0
C      1  0.4402280000000  0.5557890000000  0.5172700000000 1.0
C      1  0.4666240000000  0.4975680000000  0.5074920000000 1.0
C      1  0.5463770000000  0.4431480000000  0.4581740000000 1.0
C      1  0.6429260000000  0.4331980000000  0.4727380000000 1.0
C      1  0.4585010000000  0.5027060000000  0.5713940000000 1.0
C      1  0.5121810000000  0.5076940000000  0.5171720000000 1.0
C      1  0.5599560000000  0.4183570000000  0.4536280000000 1.0
C      1  0.3969220000000  0.5032850000000  0.4611390000000 1.0
C      1  0.5376900000000  0.4801570000000  0.5979490000000 1.0
C      1  0.4671280000000  0.5623720000000  0.5124800000000 1.0
C      1  0.4695380000000  0.5932270000000  0.4690740000000 1.0
C      1  0.5175080000000  0.4808370000000  0.5158560000000 1.0
C      1  0.4064480000000  0.5612190000000  0.4542950000000 1.0
C      1  0.4228370000000  0.4564870000000  0.4848420000000 1.0
C      1  0.4597190000000  0.3826410000000  0.5376460000000 1.0
C      1  0.4730810000000  0.4183240000000  0.4616600000000 1.0
C      1  0.5575500000000  0.4009330000000  0.4995110000000 1.0
C      1  0.3819760000000  0.4979010000000  0.4878140000000 1.0
C      1  0.5648830000000  0.4552640000000  0.5571960000000 1.0
C      1  0.4399480000000  0.5141390000000  0.3960430000000 1.0
C      1  0.5746630000000  0.4262720000000  0.5035370000000 1.0
C      1  0.5489700000000  0.4575470000000  0.5830720000000 1.0
C      1  0.4149840000000  0.5050200000000  0.4097630000000 1.0
C      1  0.4337020000000  0.5575590000000  0.4173300000000 1.0
C      1  0.5623200000000  0.5303190000000  0.4905330000000 1.0
C      1  0.7306180000000  0.6799720000000  0.5213470000000 1.0
C      1  0.5068270000000  0.4754940000000  0.4696030000000 1.0
C      1  0.4333880000000  0.4348290000000  0.4999040000000 1.0
C      1  0.5178020000000  0.5410860000000  0.4484720000000 1.0
C      1  0.4654410000000  0.4053170000000  0.5829150000000 1.0
C      1  0.4948660000000  0.4767660000000  0.6191780000000 1.0
C      1  0.4442150000000  0.4649240000000  0.4440750000000 1.0
C      1  0.4259900000000  0.4398520000000  0.5865570000000 1.0
C      1  0.4809160000000  0.5001370000000  0.4399780000000 1.0
C      1  0.4224440000000  0.5440900000000  0.4389040000000 1.0
C      1  0.5074750000000  0.4544070000000  0.3445630000000 1.0
C      1  0.4822520000000  0.4584710000000  0.6037970000000 1.0
C      1  0.4866110000000  0.5005340000000  0.5680830000000 1.0
C      1  0.5107570000000  0.4935960000000  0.4469190000000 1.0
C      1  0.4206040000000  0.4131070000000  0.5140550000000 1.0
C      1  0.4214100000000  0.5607710000000  0.5935870000000 1.0
C      1  0.5732520000000  0.5296560000000  0.5877330000000 1.0
C      1  0.4505930000000  0.5313480000000  0.5639170000000 1.0
C      1  0.3969610000000  0.5618850000000  0.5769340000000 1.0
C      1  0.4524360000000  0.3784860000000  0.4930660000000 1.0
C      1  0.5086770000000  0.5233380000000  0.6151180000000 1.0
C      1  0.5159700000000  0.4947800000000  0.6121190000000 1.0
C      1  0.5417270000000  0.4513980000000  0.4861010000000 1.0
C      1  0.5322980000000  0.5264790000000  0.5292430000000 1.0
C      1  0.5255280000000  0.5760550000000  0.5403780000000 1.0
C      1  0.4455260000000  0.5871490000000  0.4555720000000 1.0
C      1  0.5711160000000  0.4893760000000  0.5160180000000 1.0
C      1  0.7972790000000  0.7212040000000  0.5317960000000 1.0
C      1  0.5533530000000  0.3965050000000  0.4709250000000 1.0
C      1  0.4646660000000  0.4773470000000  0.4294220000000 1.0
C      1  0.4934350000000  0.4049100000000  0.5750480000000 1.0
C      1  0.5145140000000  0.5437820000000  0.3654850000000 1.0
C      1  0.3821200000000  0.5221800000000  0.5076220000000 1.0
C      1  0.4630130000000  0.4981180000000  0.3896670000000 1.0
C      1  0.3798410000000  0.4676130000000  0.4923890000000 1.0
C      1  0.4203170000000  0.5622970000000  0.4976960000000 1.0
C      1  0.5709980000000  0.4779320000000  0.4403960000000 1.0
C      1  0.4232890000000  0.5764170000000  0.4720470000000 1.0
C      1  0.5146300000000  0.5673640000000  0.5934660000000 1.0
C      1  0.5961790000000  0.5327280000000  0.5997470000000 1.0
C      1  0.4993980000000  0.5258210000000  0.5652940000000 1.0
C      1  0.4884710000000  0.3775430000000  0.5371020000000 1.0
C      1  0.4891820000000  0.5467340000000  0.4545740000000 1.0
C      1  0.4256010000000  0.5047210000000  0.4659270000000 1.0
C      1  0.3766400000000  0.5299880000000  0.5362330000000 1.0
C      1  0.4212180000000  0.4680910000000  0.5867250000000 1.0
C      1  0.4207030000000  0.5120320000000  0.5320080000000 1.0
C      1  0.4884730000000  0.3945550000000  0.4656510000000 1.0
C      1  0.5089100000000  0.4247200000000  0.5183270000000 1.0
C      1  0.5943220000000  0.4463690000000  0.4915340000000 1.0
C      1  0.6196460000000  0.4397310000000  0.4824520000000 1.0
C      1  0.5737630000000  0.4911660000000  0.4653020000000 1.0
C      1  0.5319600000000  0.5655790000000  0.4468060000000 1.0
C      1  0.4401190000000  0.5257250000000  0.4529360000000 1.0
C      1  0.4718510000000  0.6151630000000  0.4860090000000 1.0
C      1  0.4946750000000  0.5358580000000  0.3842300000000 1.0
C      1  0.5503300000000  0.4102260000000  0.5667090000000 1.0
C      1  0.5098720000000  0.3834690000000  0.4517310000000 1.0
C      1  0.4918800000000  0.5079060000000  0.3900800000000 1.0
C      1  0.4764120000000  0.5727600000000  0.5615860000000 1.0
C      1  0.5431020000000  0.4280100000000  0.5900010000000 1.0
C      1  0.4359620000000  0.5354480000000  0.5374410000000 1.0
C      1  0.4443910000000  0.5705480000000  0.6094550000000 1.0
C      1  0.5965100000000  0.5971890000000  0.5004220000000 1.0
C      1  0.4030060000000  0.4404120000000  0.4478260000000 1.0
C      1  0.5724020000000  0.5835460000000  0.4974880000000 1.0
C      1  0.6636000000000  0.6385200000000  0.5108410000000 1.0
C      1  0.4027530000000  0.4787230000000  0.6038940000000 1.0
C      1  0.5369250000000  0.5990810000000  0.5280650000000 1.0
C      1  0.5555780000000  0.5139470000000  0.4680850000000 1.0
C      1  0.4621620000000  0.4528780000000  0.5303260000000 1.0
C      1  0.5499090000000  0.5260750000000  0.5757060000000 1.0
C      1  0.4918300000000  0.4611800000000  0.3918240000000 1.0
C      1  0.7082780000000  0.6661550000000  0.5178450000000 1.0
C      1  0.5208990000000  0.5022990000000  0.3323650000000 1.0
C      1  0.4824610000000  0.4647740000000  0.4750610000000 1.0
C      1  0.4475460000000  0.4163110000000  0.4475090000000 1.0
C      1  0.5584530000000  0.5165700000000  0.5157610000000 1.0
C      1  0.5126790000000  0.4666800000000  0.5392530000000 1.0
C      1  0.5373050000000  0.6236970000000  0.5411940000000 1.0
C      1  0.5098790000000  0.4838690000000  0.3991550000000 1.0
C      1  0.5277200000000  0.5675650000000  0.3680000000000 1.0
C      1  0.5173240000000  0.5536380000000  0.5236600000000 1.0
C      1  0.4905990000000  0.5755270000000  0.4632800000000 1.0
C      1  0.5204370000000  0.5260020000000  0.3445050000000 1.0
C      1  0.4978200000000  0.5505620000000  0.6101120000000 1.0
C      1  0.4852360000000  0.4532430000000  0.5750950000000 1.0
C      1  0.4694950000000  0.5256150000000  0.4495850000000 1.0
C      1  0.5295270000000  0.5162340000000  0.4543980000000 1.0
C      1  0.4316890000000  0.5356810000000  0.5857230000000 1.0
C      1  0.4637840000000  0.4837870000000  0.4831330000000 1.0
C      1  0.5475630000000  0.5967530000000  0.5018880000000 1.0
C      1  0.4818290000000  0.3811910000000  0.4899810000000 1.0
C      1  0.4357030000000  0.4849120000000  0.5688940000000 1.0
C      1  0.4975980000000  0.4471530000000  0.3684180000000 1.0
C      1  0.5350840000000  0.3785860000000  0.4595930000000 1.0
C      1  0.4401620000000  0.3900860000000  0.5173030000000 1.0
C      1  0.3965530000000  0.4532830000000  0.4726420000000 1.0
C      1  0.4466640000000  0.5420640000000  0.3973200000000 1.0
C      1  0.4474110000000  0.4262070000000  0.5743900000000 1.0
C      1  0.4540800000000  0.4799440000000  0.5264890000000 1.0
C      1  0.4703170000000  0.5610380000000  0.6148200000000 1.0
C      1  0.3835250000000  0.5468990000000  0.5574390000000 1.0
C      1  0.3941460000000  0.4245620000000  0.5207150000000 1.0
C      1  0.4666500000000  0.4716250000000  0.4014180000000 1.0
C      1  0.5058890000000  0.3854680000000  0.5585180000000 1.0
END
