TITL C-612604-1799-57 0.000105799098362882 125000 -392.17409290708 0 0 64 (C1) n - 1
REM
REM in /home/nfs/bkarasulu/CARBON/AIRSS/Generating-Clusters/TERSOFF/Only-C1/FIRE-HFTN
REM
REM
REM
REM
REM
REM ./C.cell (11c1c37f851c82e70ff6c80c92926a4b)
REM AIRSS Version 0.9.1 bugfix July 2018 build 013d7b7c2542+ Fri, 06 Jul 2018 19:26:36 +0100
REM compiler GCC version 9.2.1 20190827 (Red Hat 9.2.1-1)
REM options -cpp -mtune=generic -march=x86-64 -g -O0 -fpre-include=/usr/include/finclude/math-vector-fortran.h
REM seed 1616901546 405905971 1989961436 721738205 1288162646 -659332365 -206026461 1939410429 1141203319 932861701 1287868699 -2118251035 1586709438 492729479 -1438589946 -1292300001 1154789889 391546896 -577679182 -19935687 -2105400292 -1783332022 1440878128 -1120803647 -2111450174 -1898917778 -805331988 -2067434782 1645022225 -1317132339 478102819 2046739542 -1735568620
REM
CELL 1.54180   50.00000   50.00000   50.00000   90.00000   90.00000   90.00000
LATT -1
SFAC C  
C      1  0.5875560000000  0.5259480000000  0.4943140000000 1.0
C      1  0.4155990000000  0.5464310000000  0.4826670000000 1.0
C      1  0.4561100000000  0.4717730000000  0.4827500000000 1.0
C      1  0.4845720000000  0.5383720000000  0.6026710000000 1.0
C      1  0.4955710000000  0.5731420000000  0.5059460000000 1.0
C      1  0.4836530000000  0.4767670000000  0.4870110000000 1.0
C      1  0.5637910000000  0.4574390000000  0.5091770000000 1.0
C      1  0.5362730000000  0.5518200000000  0.4507900000000 1.0
C      1  0.4913240000000  0.5473490000000  0.5782140000000 1.0
C      1  0.4861160000000  0.5392540000000  0.5516730000000 1.0
C      1  0.5044860000000  0.4575960000000  0.4891290000000 1.0
C      1  0.4498170000000  0.5502740000000  0.4501010000000 1.0
C      1  0.4596110000000  0.5432550000000  0.5410090000000 1.0
C      1  0.4281770000000  0.5068000000000  0.5077500000000 1.0
C      1  0.4379400000000  0.4828070000000  0.5012200000000 1.0
C      1  0.5746260000000  0.4050480000000  0.5109120000000 1.0
C      1  0.5394120000000  0.4650300000000  0.5227870000000 1.0
C      1  0.5134170000000  0.3858960000000  0.5295080000000 1.0
C      1  0.5497630000000  0.5058420000000  0.4365980000000 1.0
C      1  0.5171580000000  0.4957210000000  0.5790870000000 1.0
C      1  0.5333130000000  0.5289720000000  0.4343980000000 1.0
C      1  0.4675130000000  0.4594250000000  0.5720010000000 1.0
C      1  0.4929090000000  0.5725990000000  0.4538660000000 1.0
C      1  0.5648130000000  0.5046410000000  0.5334400000000 1.0
C      1  0.4708190000000  0.5626440000000  0.4958850000000 1.0
C      1  0.5191600000000  0.5746230000000  0.4923080000000 1.0
C      1  0.4918560000000  0.5031920000000  0.4915370000000 1.0
C      1  0.4466620000000  0.4669410000000  0.4567550000000 1.0
C      1  0.5803440000000  0.5035090000000  0.5100670000000 1.0
C      1  0.4576620000000  0.5308750000000  0.4305630000000 1.0
C      1  0.5296440000000  0.4618430000000  0.4432010000000 1.0
C      1  0.4400950000000  0.4822230000000  0.4358090000000 1.0
C      1  0.5147570000000  0.4525080000000  0.5154320000000 1.0
C      1  0.5186810000000  0.4522460000000  0.4655310000000 1.0
C      1  0.5611940000000  0.3825250000000  0.5156800000000 1.0
C      1  0.5740850000000  0.4315680000000  0.5095390000000 1.0
C      1  0.4693160000000  0.5628810000000  0.4666340000000 1.0
C      1  0.5407030000000  0.4809030000000  0.4256970000000 1.0
C      1  0.5367340000000  0.3746860000000  0.5229970000000 1.0
C      1  0.4306730000000  0.5343580000000  0.5030110000000 1.0
C      1  0.5411450000000  0.4895710000000  0.5379600000000 1.0
C      1  0.4498730000000  0.5034150000000  0.5953230000000 1.0
C      1  0.5773940000000  0.4784580000000  0.4956100000000 1.0
C      1  0.4678890000000  0.5187950000000  0.6108000000000 1.0
C      1  0.5036460000000  0.5207580000000  0.5389250000000 1.0
C      1  0.5782390000000  0.4807170000000  0.4674280000000 1.0
C      1  0.5832400000000  0.5274060000000  0.4674490000000 1.0
C      1  0.4823240000000  0.4491440000000  0.5524680000000 1.0
C      1  0.4384160000000  0.5356500000000  0.5581330000000 1.0
C      1  0.5017900000000  0.5180650000000  0.5111370000000 1.0
C      1  0.5432300000000  0.4756780000000  0.3989720000000 1.0
C      1  0.5192130000000  0.5693790000000  0.4644140000000 1.0
C      1  0.5008460000000  0.4090830000000  0.5328870000000 1.0
C      1  0.5095010000000  0.5281070000000  0.4193710000000 1.0
C      1  0.5724290000000  0.5050390000000  0.4535980000000 1.0
C      1  0.4426960000000  0.5073450000000  0.4271910000000 1.0
C      1  0.4830880000000  0.5315080000000  0.4186500000000 1.0
C      1  0.5202020000000  0.5018790000000  0.5526370000000 1.0
C      1  0.4559400000000  0.4769970000000  0.5883160000000 1.0
C      1  0.4044920000000  0.5651730000000  0.4391340000000 1.0
C      1  0.4534910000000  0.5482440000000  0.5134870000000 1.0
C      1  0.4223840000000  0.5543280000000  0.4565680000000 1.0
C      1  0.4333260000000  0.5185020000000  0.5781090000000 1.0
C      1  0.4993000000000  0.4370340000000  0.5337650000000 1.0
END
