TITL C-612600-6631-248 457.7510623343 125000 -1213.16974267465 0 0 197 (C1) n - 1
REM
REM in /home/nfs/bkarasulu/CARBON/AIRSS/Generating-Clusters/TERSOFF/Only-C1/FIRE-HFTN
REM
REM
REM
REM
REM
REM ./C.cell (11c1c37f851c82e70ff6c80c92926a4b)
REM AIRSS Version 0.9.1 bugfix July 2018 build 013d7b7c2542+ Fri, 06 Jul 2018 19:26:36 +0100
REM compiler GCC version 9.2.1 20190827 (Red Hat 9.2.1-1)
REM options -cpp -mtune=generic -march=x86-64 -g -O0 -fpre-include=/usr/include/finclude/math-vector-fortran.h
REM seed -1546525486 -409875622 -780137453 1124428913 454177069 -840836660 1626793696 -1978834646 2054197023 534028623 2024726908 406394031 -898086495 114050868 1015593241 161104528 -503513374 994239758 -1358223379 -1973959295 -222799272 1564110603 -1835443971 -1929642338 61198204 1152017202 152380660 818341333 -1355516251 -334878774 -890975948 533947201 -1953957199
REM
CELL 1.54180   50.00000   50.00000   50.00000   90.00000   90.00000   90.00000
LATT -1
SFAC C  
C      1  0.5604290000000  0.4625090000000  0.5062870000000 1.0
C      1  0.3843500000000  0.5464050000000  0.4791630000000 1.0
C      1  0.5516300000000  0.6143070000000  0.5702480000000 1.0
C      1  0.5339290000000  0.4944530000000  0.4313010000000 1.0
C      1  0.4997400000000  0.5107570000000  0.4988100000000 1.0
C      1  0.4551050000000  0.4412860000000  0.5713580000000 1.0
C      1  0.5145040000000  0.4292100000000  0.5551080000000 1.0
C      1  0.5857090000000  0.4475100000000  0.4245730000000 1.0
C      1  0.5360140000000  0.5971740000000  0.4819800000000 1.0
C      1  0.5165550000000  0.6497830000000  0.4634870000000 1.0
C      1  0.4837590000000  0.4115690000000  0.5934400000000 1.0
C      1  0.5476970000000  0.4547520000000  0.3926240000000 1.0
C      1  0.4593540000000  0.5974480000000  0.5560100000000 1.0
C      1  0.4702370000000  0.4505220000000  0.4804610000000 1.0
C      1  0.5591650000000  0.5378470000000  0.5727180000000 1.0
C      1  0.4121900000000  0.4381330000000  0.5146720000000 1.0
C      1  0.5218660000000  0.6072640000000  0.4242370000000 1.0
C      1  0.5471840000000  0.5839380000000  0.4590800000000 1.0
C      1  0.5497680000000  0.4165400000000  0.4185700000000 1.0
C      1  0.5626290000000  0.4556510000000  0.6104390000000 1.0
C      1  0.5508600000000  0.5649330000000  0.4144160000000 1.0
C      1  0.5565100000000  0.4827800000000  0.3874940000000 1.0
C      1  0.4601860000000  0.5234280000000  0.6181210000000 1.0
C      1  0.3698460000000  0.5590900000000  0.4997020000000 1.0
C      1  0.5309140000000  0.5349010000000  0.5675030000000 1.0
C      1  0.5324040000000  0.4947660000000  0.3760690000000 1.0
C      1  0.5110640000000  0.3769430000000  0.5612070000000 1.0
C      1  0.4523950000000  0.4630680000000  0.5540730000000 1.0
C      1  0.4866650000000  0.4844540000000  0.6203560000000 1.0
C      1  0.4984160000000  0.3839450000000  0.5087960000000 1.0
C      1  0.5793110000000  0.3897550000000  0.5286580000000 1.0
C      1  0.4766410000000  0.5185680000000  0.3418940000000 1.0
C      1  0.5159540000000  0.5970730000000  0.5022750000000 1.0
C      1  0.5084800000000  0.4587590000000  0.5039820000000 1.0
C      1  0.5098110000000  0.4799870000000  0.3867330000000 1.0
C      1  0.5737830000000  0.4150620000000  0.5656610000000 1.0
C      1  0.4484490000000  0.5515980000000  0.5760180000000 1.0
C      1  0.4371320000000  0.4824870000000  0.6349590000000 1.0
C      1  0.5145480000000  0.5331600000000  0.4842630000000 1.0
C      1  0.5348860000000  0.4757580000000  0.4514320000000 1.0
C      1  0.4746490000000  0.3924010000000  0.4940430000000 1.0
C      1  0.5424220000000  0.5028670000000  0.5270250000000 1.0
C      1  0.4128710000000  0.6030110000000  0.5408990000000 1.0
C      1  0.4165780000000  0.5331560000000  0.5206900000000 1.0
C      1  0.5396610000000  0.4175370000000  0.4947020000000 1.0
C      1  0.4417220000000  0.4969240000000  0.4019240000000 1.0
C      1  0.5339950000000  0.4245110000000  0.4389810000000 1.0
C      1  0.5034500000000  0.5190650000000  0.3421490000000 1.0
C      1  0.5290670000000  0.4488010000000  0.4485170000000 1.0
C      1  0.5905880000000  0.5214720000000  0.4406750000000 1.0
C      1  0.5930060000000  0.5042660000000  0.5451810000000 1.0
C      1  0.5668090000000  0.3904320000000  0.4605210000000 1.0
C      1  0.5565700000000  0.5311600000000  0.5299280000000 1.0
C      1  0.5308960000000  0.5201960000000  0.4263800000000 1.0
C      1  0.5772930000000  0.4936390000000  0.4046500000000 1.0
C      1  0.5817200000000  0.5451640000000  0.4539830000000 1.0
C      1  0.4465900000000  0.6023490000000  0.4226300000000 1.0
C      1  0.4985970000000  0.5739060000000  0.5018890000000 1.0
C      1  0.5323180000000  0.5119980000000  0.6275970000000 1.0
C      1  0.5620060000000  0.6354320000000  0.5840190000000 1.0
C      1  0.5820950000000  0.5218140000000  0.4117620000000 1.0
C      1  0.4485090000000  0.5402160000000  0.4588580000000 1.0
C      1  0.5611920000000  0.5576890000000  0.5290570000000 1.0
C      1  0.5137800000000  0.5130250000000  0.5266720000000 1.0
C      1  0.5271080000000  0.6028500000000  0.5770160000000 1.0
C      1  0.4762870000000  0.4400380000000  0.5912210000000 1.0
C      1  0.5850850000000  0.4180170000000  0.5910270000000 1.0
C      1  0.4045210000000  0.4839800000000  0.5994410000000 1.0
C      1  0.4622660000000  0.4758900000000  0.3982250000000 1.0
C      1  0.3831130000000  0.4718140000000  0.4681580000000 1.0
C      1  0.5693910000000  0.5601830000000  0.5850140000000 1.0
C      1  0.4935510000000  0.5583140000000  0.6098290000000 1.0
C      1  0.4894270000000  0.5640040000000  0.4561620000000 1.0
C      1  0.5437920000000  0.5899780000000  0.4297160000000 1.0
C      1  0.4436090000000  0.5370560000000  0.5998910000000 1.0
C      1  0.5907760000000  0.5247520000000  0.4983810000000 1.0
C      1  0.5224150000000  0.3964800000000  0.5009380000000 1.0
C      1  0.5259420000000  0.5122030000000  0.3551900000000 1.0
C      1  0.4662360000000  0.4117050000000  0.5374720000000 1.0
C      1  0.4946340000000  0.6354950000000  0.4552050000000 1.0
C      1  0.4422370000000  0.5129190000000  0.4539520000000 1.0
C      1  0.5401010000000  0.3766550000000  0.5591890000000 1.0
C      1  0.4769150000000  0.5326640000000  0.4214960000000 1.0
C      1  0.4416230000000  0.4229200000000  0.4405200000000 1.0
C      1  0.5718800000000  0.5479870000000  0.4021460000000 1.0
C      1  0.4485490000000  0.4163610000000  0.5592250000000 1.0
C      1  0.3733860000000  0.5764210000000  0.5197630000000 1.0
C      1  0.4820980000000  0.5703780000000  0.5246880000000 1.0
C      1  0.5443820000000  0.3748420000000  0.4538330000000 1.0
C      1  0.4902330000000  0.4658680000000  0.5980220000000 1.0
C      1  0.4559190000000  0.5375970000000  0.5520460000000 1.0
C      1  0.4295770000000  0.5059250000000  0.4278470000000 1.0
C      1  0.4375510000000  0.5481100000000  0.5083870000000 1.0
C      1  0.5955860000000  0.5884150000000  0.5145150000000 1.0
C      1  0.3799850000000  0.5104970000000  0.4425270000000 1.0
C      1  0.4287580000000  0.3996950000000  0.5674970000000 1.0
C      1  0.5430840000000  0.5357200000000  0.4801780000000 1.0
C      1  0.4183180000000  0.4904420000000  0.5774530000000 1.0
C      1  0.5685540000000  0.4997830000000  0.5952730000000 1.0
C      1  0.5530340000000  0.4924310000000  0.4992810000000 1.0
C      1  0.3795310000000  0.5194670000000  0.4710140000000 1.0
C      1  0.5342420000000  0.4445570000000  0.5025780000000 1.0
C      1  0.5046880000000  0.4800750000000  0.5768310000000 1.0
C      1  0.5065260000000  0.6110040000000  0.5260710000000 1.0
C      1  0.4878710000000  0.5325910000000  0.6195700000000 1.0
C      1  0.4024630000000  0.5111230000000  0.5257860000000 1.0
C      1  0.4302680000000  0.4192370000000  0.5072130000000 1.0
C      1  0.4594620000000  0.5525950000000  0.5270230000000 1.0
C      1  0.4429070000000  0.4883640000000  0.5647860000000 1.0
C      1  0.3896020000000  0.5919220000000  0.5341870000000 1.0
C      1  0.3916040000000  0.4887110000000  0.5130020000000 1.0
C      1  0.5008890000000  0.3881300000000  0.5869900000000 1.0
C      1  0.3724510000000  0.4824800000000  0.4438100000000 1.0
C      1  0.5982710000000  0.4809520000000  0.4815610000000 1.0
C      1  0.5731280000000  0.5833220000000  0.5305590000000 1.0
C      1  0.5100960000000  0.4839960000000  0.4905160000000 1.0
C      1  0.4076530000000  0.5609140000000  0.4705130000000 1.0
C      1  0.5885630000000  0.3999430000000  0.4433170000000 1.0
C      1  0.4884010000000  0.5941200000000  0.5446930000000 1.0
C      1  0.5046370000000  0.5088690000000  0.6237130000000 1.0
C      1  0.5527870000000  0.5536190000000  0.4590950000000 1.0
C      1  0.4094830000000  0.4618090000000  0.4691980000000 1.0
C      1  0.4981590000000  0.3732510000000  0.5357130000000 1.0
C      1  0.3995310000000  0.4617560000000  0.5191850000000 1.0
C      1  0.4483670000000  0.4005290000000  0.4537330000000 1.0
C      1  0.4650180000000  0.4664470000000  0.5277190000000 1.0
C      1  0.6077160000000  0.5463870000000  0.4944270000000 1.0
C      1  0.5880530000000  0.4156940000000  0.5231480000000 1.0
C      1  0.5953200000000  0.4930380000000  0.4514660000000 1.0
C      1  0.5781480000000  0.4344380000000  0.5435450000000 1.0
C      1  0.5033900000000  0.5898510000000  0.5710890000000 1.0
C      1  0.4704160000000  0.5487690000000  0.4435880000000 1.0
C      1  0.5833320000000  0.4576520000000  0.4873800000000 1.0
C      1  0.6002310000000  0.5015830000000  0.5107780000000 1.0
C      1  0.4967360000000  0.6175370000000  0.4328090000000 1.0
C      1  0.5647300000000  0.3892530000000  0.5538750000000 1.0
C      1  0.5799410000000  0.4352530000000  0.6108680000000 1.0
C      1  0.4595260000000  0.5779070000000  0.5783280000000 1.0
C      1  0.5463430000000  0.4792230000000  0.5466740000000 1.0
C      1  0.5390130000000  0.5454400000000  0.4327250000000 1.0
C      1  0.4570500000000  0.4453170000000  0.4340060000000 1.0
C      1  0.4678160000000  0.4495680000000  0.4079960000000 1.0
C      1  0.4858500000000  0.5050940000000  0.4242560000000 1.0
C      1  0.4910500000000  0.5036710000000  0.5653410000000 1.0
C      1  0.5818620000000  0.4341750000000  0.4723520000000 1.0
C      1  0.4401930000000  0.6088200000000  0.5383820000000 1.0
C      1  0.4481660000000  0.4973300000000  0.4774700000000 1.0
C      1  0.4819220000000  0.4862170000000  0.4458700000000 1.0
C      1  0.4928380000000  0.4211810000000  0.5415300000000 1.0
C      1  0.4735290000000  0.3933210000000  0.4647360000000 1.0
C      1  0.4081830000000  0.5805970000000  0.4504650000000 1.0
C      1  0.5342800000000  0.4863190000000  0.4768530000000 1.0
C      1  0.4692750000000  0.6405230000000  0.4677190000000 1.0
C      1  0.3802230000000  0.4942590000000  0.4873320000000 1.0
C      1  0.5640300000000  0.5189720000000  0.4896080000000 1.0
C      1  0.5538750000000  0.4754530000000  0.5928860000000 1.0
C      1  0.5337710000000  0.4766610000000  0.5723390000000 1.0
C      1  0.4942360000000  0.4358040000000  0.4048610000000 1.0
C      1  0.5631520000000  0.4127920000000  0.4792900000000 1.0
C      1  0.4612740000000  0.6287660000000  0.4920700000000 1.0
C      1  0.4235550000000  0.5941580000000  0.4333150000000 1.0
C      1  0.4951200000000  0.3933040000000  0.4446450000000 1.0
C      1  0.4024890000000  0.5150630000000  0.4263440000000 1.0
C      1  0.4554920000000  0.4063420000000  0.5113470000000 1.0
C      1  0.4631600000000  0.5389700000000  0.3975030000000 1.0
C      1  0.4627390000000  0.5081800000000  0.5529840000000 1.0
C      1  0.4874920000000  0.4907280000000  0.3992290000000 1.0
C      1  0.5648230000000  0.4373400000000  0.4068670000000 1.0
C      1  0.5884650000000  0.4761320000000  0.4267670000000 1.0
C      1  0.5766170000000  0.5137790000000  0.5706630000000 1.0
C      1  0.4540730000000  0.5167680000000  0.3564310000000 1.0
C      1  0.4639780000000  0.4956980000000  0.5245490000000 1.0
C      1  0.5647000000000  0.4587290000000  0.5362140000000 1.0
C      1  0.4493230000000  0.6220320000000  0.5150210000000 1.0
C      1  0.5096100000000  0.5220150000000  0.5536730000000 1.0
C      1  0.4803730000000  0.4533840000000  0.5069170000000 1.0
C      1  0.5180320000000  0.3768990000000  0.4486000000000 1.0
C      1  0.4688870000000  0.5054950000000  0.4979200000000 1.0
C      1  0.5648940000000  0.6028610000000  0.5485330000000 1.0
C      1  0.4599810000000  0.4954680000000  0.6257780000000 1.0
C      1  0.4313370000000  0.4745230000000  0.4788850000000 1.0
C      1  0.4335820000000  0.5524230000000  0.4799330000000 1.0
C      1  0.4522740000000  0.6585040000000  0.4557420000000 1.0
C      1  0.5925550000000  0.4291510000000  0.4456470000000 1.0
C      1  0.5294910000000  0.4292920000000  0.5774520000000 1.0
C      1  0.5003350000000  0.5569730000000  0.4804660000000 1.0
C      1  0.4950890000000  0.4110050000000  0.4209220000000 1.0
C      1  0.4126580000000  0.4788400000000  0.6245290000000 1.0
C      1  0.5350610000000  0.4158200000000  0.6004660000000 1.0
C      1  0.5171920000000  0.4523620000000  0.3936490000000 1.0
C      1  0.5226820000000  0.3921280000000  0.6055580000000 1.0
C      1  0.4478360000000  0.5192950000000  0.3837850000000 1.0
C      1  0.4724610000000  0.6088150000000  0.4214680000000 1.0
C      1  0.6109170000000  0.5723300000000  0.4996600000000 1.0
C      1  0.5576490000000  0.5134880000000  0.6180330000000 1.0
C      1  0.4703340000000  0.4609160000000  0.4541170000000 1.0
C      1  0.4863040000000  0.5771530000000  0.5903160000000 1.0
END
