TITL C-612604-1799-1067 -0.72752265622785 125000 -1169.12244940739 0 0 189 (C1) n - 1
REM
REM in /home/nfs/bkarasulu/CARBON/AIRSS/Generating-Clusters/TERSOFF/Only-C1/FIRE-HFTN
REM
REM
REM
REM
REM
REM ./C.cell (11c1c37f851c82e70ff6c80c92926a4b)
REM AIRSS Version 0.9.1 bugfix July 2018 build 013d7b7c2542+ Fri, 06 Jul 2018 19:26:36 +0100
REM compiler GCC version 9.2.1 20190827 (Red Hat 9.2.1-1)
REM options -cpp -mtune=generic -march=x86-64 -g -O0 -fpre-include=/usr/include/finclude/math-vector-fortran.h
REM seed 1925929657 -682434648 -2061962514 1230273273 654633034 601856879 -883365422 -1289008788 1499432661 541348677 -76255209 -323141454 -475978079 1928458133 3532446 320393884 1971284394 -2101452716 -991512636 -190201890 51056929 -398025039 -1120284203 -1489798074 -424677539 -632648310 45607010 1807963812 -388062932 -562249516 -2124882640 1790487589 792087103
REM
CELL 1.54180   50.00000   50.00000   50.00000   90.00000   90.00000   90.00000
LATT -1
SFAC C  
C      1  0.4785630000000  0.5074910000000  0.4456090000000 1.0
C      1  0.5828630000000  0.5616950000000  0.4345380000000 1.0
C      1  0.5598690000000  0.6340310000000  0.5179590000000 1.0
C      1  0.5049910000000  0.6007530000000  0.4695380000000 1.0
C      1  0.5494000000000  0.5282550000000  0.4472440000000 1.0
C      1  0.5143470000000  0.4467890000000  0.4222970000000 1.0
C      1  0.6254100000000  0.5071320000000  0.4936380000000 1.0
C      1  0.4654850000000  0.4371710000000  0.4620290000000 1.0
C      1  0.3894170000000  0.4751590000000  0.5055200000000 1.0
C      1  0.5561190000000  0.5304590000000  0.5322130000000 1.0
C      1  0.4675380000000  0.5277230000000  0.3596850000000 1.0
C      1  0.4507620000000  0.3831440000000  0.5054240000000 1.0
C      1  0.3953230000000  0.4554530000000  0.5528130000000 1.0
C      1  0.4448340000000  0.5185560000000  0.5626880000000 1.0
C      1  0.6005500000000  0.4508410000000  0.5297930000000 1.0
C      1  0.5568860000000  0.4331800000000  0.5228520000000 1.0
C      1  0.5536210000000  0.4834850000000  0.5335930000000 1.0
C      1  0.4448320000000  0.4400020000000  0.5218500000000 1.0
C      1  0.4356650000000  0.5927690000000  0.4188700000000 1.0
C      1  0.5516650000000  0.4078000000000  0.4809540000000 1.0
C      1  0.5142700000000  0.4197510000000  0.5891990000000 1.0
C      1  0.5579040000000  0.5196120000000  0.6167590000000 1.0
C      1  0.5354150000000  0.4608890000000  0.4913490000000 1.0
C      1  0.5534460000000  0.5794740000000  0.5718280000000 1.0
C      1  0.6076530000000  0.5046050000000  0.4707910000000 1.0
C      1  0.3901560000000  0.4497670000000  0.4906840000000 1.0
C      1  0.5099730000000  0.4635770000000  0.6193130000000 1.0
C      1  0.5424270000000  0.4561120000000  0.5331990000000 1.0
C      1  0.4339840000000  0.5347110000000  0.4925080000000 1.0
C      1  0.4407070000000  0.5372340000000  0.5420160000000 1.0
C      1  0.4723660000000  0.4090300000000  0.4125800000000 1.0
C      1  0.4917040000000  0.5271550000000  0.5491380000000 1.0
C      1  0.4262310000000  0.5066020000000  0.5814690000000 1.0
C      1  0.5798070000000  0.4866730000000  0.5457410000000 1.0
C      1  0.4725510000000  0.4830250000000  0.5660770000000 1.0
C      1  0.4822010000000  0.6164420000000  0.4809580000000 1.0
C      1  0.4701790000000  0.5412580000000  0.3360370000000 1.0
C      1  0.5583860000000  0.4232650000000  0.4197160000000 1.0
C      1  0.4206100000000  0.4261700000000  0.4241460000000 1.0
C      1  0.6198860000000  0.4941480000000  0.5182180000000 1.0
C      1  0.5115330000000  0.4617330000000  0.5671890000000 1.0
C      1  0.5327200000000  0.5088540000000  0.5685320000000 1.0
C      1  0.4576510000000  0.3916580000000  0.4806210000000 1.0
C      1  0.6124280000000  0.4559030000000  0.4796710000000 1.0
C      1  0.4795560000000  0.5657420000000  0.5159950000000 1.0
C      1  0.4369310000000  0.4782440000000  0.4601570000000 1.0
C      1  0.3853770000000  0.5023880000000  0.5482770000000 1.0
C      1  0.5757640000000  0.4973840000000  0.6174720000000 1.0
C      1  0.4510460000000  0.5297580000000  0.5159840000000 1.0
C      1  0.4592710000000  0.4863390000000  0.6172030000000 1.0
C      1  0.5627460000000  0.4678850000000  0.4923400000000 1.0
C      1  0.4419300000000  0.3833560000000  0.5311250000000 1.0
C      1  0.5837500000000  0.4645790000000  0.4366840000000 1.0
C      1  0.3913940000000  0.4797860000000  0.4024110000000 1.0
C      1  0.5033800000000  0.5271940000000  0.4953690000000 1.0
C      1  0.4400120000000  0.4649160000000  0.5096200000000 1.0
C      1  0.5160400000000  0.4801510000000  0.4933540000000 1.0
C      1  0.4676270000000  0.4084740000000  0.4598930000000 1.0
C      1  0.3879280000000  0.4765950000000  0.5351180000000 1.0
C      1  0.4674680000000  0.5129060000000  0.6232710000000 1.0
C      1  0.4807930000000  0.4663600000000  0.6222010000000 1.0
C      1  0.4916150000000  0.5558900000000  0.5408730000000 1.0
C      1  0.4195680000000  0.4150800000000  0.5672100000000 1.0
C      1  0.5792940000000  0.4458810000000  0.5082290000000 1.0
C      1  0.4579870000000  0.4597120000000  0.5720180000000 1.0
C      1  0.5286420000000  0.5143680000000  0.6179910000000 1.0
C      1  0.6039390000000  0.4763730000000  0.4593040000000 1.0
C      1  0.4727680000000  0.5008810000000  0.3611370000000 1.0
C      1  0.4304690000000  0.3944870000000  0.5531660000000 1.0
C      1  0.5036860000000  0.5772760000000  0.5854880000000 1.0
C      1  0.3916010000000  0.5414160000000  0.5155830000000 1.0
C      1  0.4983240000000  0.4890880000000  0.4527040000000 1.0
C      1  0.5096380000000  0.5368480000000  0.6132630000000 1.0
C      1  0.4068790000000  0.5262280000000  0.4962880000000 1.0
C      1  0.4606840000000  0.6279550000000  0.4912510000000 1.0
C      1  0.5078000000000  0.6075180000000  0.4394080000000 1.0
C      1  0.5077890000000  0.5735600000000  0.5570340000000 1.0
C      1  0.5472680000000  0.5007790000000  0.4536930000000 1.0
C      1  0.3897350000000  0.5797530000000  0.4691320000000 1.0
C      1  0.5891050000000  0.4608660000000  0.5556990000000 1.0
C      1  0.6078310000000  0.5538200000000  0.5410460000000 1.0
C      1  0.4135100000000  0.4430190000000  0.5710020000000 1.0
C      1  0.5865870000000  0.4777690000000  0.6024310000000 1.0
C      1  0.5297500000000  0.5788180000000  0.4048380000000 1.0
C      1  0.4643490000000  0.5313930000000  0.4502380000000 1.0
C      1  0.5082500000000  0.4048060000000  0.4957470000000 1.0
C      1  0.4327530000000  0.4598910000000  0.5843940000000 1.0
C      1  0.4525550000000  0.4575740000000  0.4466440000000 1.0
C      1  0.4852540000000  0.4472970000000  0.4790640000000 1.0
C      1  0.5712350000000  0.5364930000000  0.4301820000000 1.0
C      1  0.5493170000000  0.5636030000000  0.5955760000000 1.0
C      1  0.5348960000000  0.5811330000000  0.5516350000000 1.0
C      1  0.4856270000000  0.4014440000000  0.4379340000000 1.0
C      1  0.4386750000000  0.6374260000000  0.5015180000000 1.0
C      1  0.5372040000000  0.5084850000000  0.5243900000000 1.0
C      1  0.5315890000000  0.5976920000000  0.4261530000000 1.0
C      1  0.5825210000000  0.5166970000000  0.4135440000000 1.0
C      1  0.4035490000000  0.4463060000000  0.4365440000000 1.0
C      1  0.5302590000000  0.5554340000000  0.3915380000000 1.0
C      1  0.3971600000000  0.5693080000000  0.5184030000000 1.0
C      1  0.5794630000000  0.4568300000000  0.5839940000000 1.0
C      1  0.5210170000000  0.5606560000000  0.6017500000000 1.0
C      1  0.3968950000000  0.4997080000000  0.4926550000000 1.0
C      1  0.5240880000000  0.4848550000000  0.5808480000000 1.0
C      1  0.4981420000000  0.5703980000000  0.4692870000000 1.0
C      1  0.5674190000000  0.5405200000000  0.4863170000000 1.0
C      1  0.4311050000000  0.5647230000000  0.4163350000000 1.0
C      1  0.5697520000000  0.4957640000000  0.3991390000000 1.0
C      1  0.4595210000000  0.5414800000000  0.3826890000000 1.0
C      1  0.4349370000000  0.4847160000000  0.5995070000000 1.0
C      1  0.4183860000000  0.4922700000000  0.4421170000000 1.0
C      1  0.5373050000000  0.4035510000000  0.4246660000000 1.0
C      1  0.5245350000000  0.3970310000000  0.5191410000000 1.0
C      1  0.5786590000000  0.5859220000000  0.4485440000000 1.0
C      1  0.5258220000000  0.4846900000000  0.4459620000000 1.0
C      1  0.5215410000000  0.4874950000000  0.6091410000000 1.0
C      1  0.5931760000000  0.4346810000000  0.4836430000000 1.0
C      1  0.3914160000000  0.4453400000000  0.4624660000000 1.0
C      1  0.4229510000000  0.4230210000000  0.5168350000000 1.0
C      1  0.5241380000000  0.4013430000000  0.4711710000000 1.0
C      1  0.4906570000000  0.5991020000000  0.5955980000000 1.0
C      1  0.4548930000000  0.5514530000000  0.4080800000000 1.0
C      1  0.4435560000000  0.4144990000000  0.4143490000000 1.0
C      1  0.4725930000000  0.5492750000000  0.4295610000000 1.0
C      1  0.4693330000000  0.4348230000000  0.5365760000000 1.0
C      1  0.6020160000000  0.5299080000000  0.5558640000000 1.0
C      1  0.4701490000000  0.4929710000000  0.4908810000000 1.0
C      1  0.3992780000000  0.5062580000000  0.5727010000000 1.0
C      1  0.4596190000000  0.4625270000000  0.4204720000000 1.0
C      1  0.5641400000000  0.4894860000000  0.4740320000000 1.0
C      1  0.4967610000000  0.4381720000000  0.5768380000000 1.0
C      1  0.5921330000000  0.5635340000000  0.5195030000000 1.0
C      1  0.5326390000000  0.4579680000000  0.4403230000000 1.0
C      1  0.4037850000000  0.4732140000000  0.4258260000000 1.0
C      1  0.5912020000000  0.5897860000000  0.4737510000000 1.0
C      1  0.5476610000000  0.5061340000000  0.3844900000000 1.0
C      1  0.4345420000000  0.5628480000000  0.5535330000000 1.0
C      1  0.5203570000000  0.3977400000000  0.5724900000000 1.0
C      1  0.4152260000000  0.5203940000000  0.4365550000000 1.0
C      1  0.5709060000000  0.4247530000000  0.4678540000000 1.0
C      1  0.5348940000000  0.5300250000000  0.3839280000000 1.0
C      1  0.5458000000000  0.6191890000000  0.5017870000000 1.0
C      1  0.5434350000000  0.5441570000000  0.4706990000000 1.0
C      1  0.4732250000000  0.5644600000000  0.4870310000000 1.0
C      1  0.5161650000000  0.5137710000000  0.5456740000000 1.0
C      1  0.5604600000000  0.4435980000000  0.3976490000000 1.0
C      1  0.4142560000000  0.5768290000000  0.5397930000000 1.0
C      1  0.4946240000000  0.4405750000000  0.5248380000000 1.0
C      1  0.5748670000000  0.4685870000000  0.4075310000000 1.0
C      1  0.4832050000000  0.6140550000000  0.4262770000000 1.0
C      1  0.5203650000000  0.3909010000000  0.5462760000000 1.0
C      1  0.4715400000000  0.5101630000000  0.5612700000000 1.0
C      1  0.5890560000000  0.5263330000000  0.4734910000000 1.0
C      1  0.6193970000000  0.4656770000000  0.5135370000000 1.0
C      1  0.5798210000000  0.5323420000000  0.5752560000000 1.0
C      1  0.4571580000000  0.6090320000000  0.4214030000000 1.0
C      1  0.5363500000000  0.4423710000000  0.3816120000000 1.0
C      1  0.4468310000000  0.5657890000000  0.5795330000000 1.0
C      1  0.4801980000000  0.5358010000000  0.6128020000000 1.0
C      1  0.3916100000000  0.5844730000000  0.4954360000000 1.0
C      1  0.4929830000000  0.5649100000000  0.4400200000000 1.0
C      1  0.5973860000000  0.5825620000000  0.4990900000000 1.0
C      1  0.6022870000000  0.5046660000000  0.5399810000000 1.0
C      1  0.4914550000000  0.4761210000000  0.4790090000000 1.0
C      1  0.5294410000000  0.6066820000000  0.4850990000000 1.0
C      1  0.5569130000000  0.6010480000000  0.4385780000000 1.0
C      1  0.5675410000000  0.5416670000000  0.6002770000000 1.0
C      1  0.4125290000000  0.5489440000000  0.4321390000000 1.0
C      1  0.5570910000000  0.4417600000000  0.5951440000000 1.0
C      1  0.5214780000000  0.5060560000000  0.5009790000000 1.0
C      1  0.5698140000000  0.5464100000000  0.5136430000000 1.0
C      1  0.5152420000000  0.3998060000000  0.4436730000000 1.0
C      1  0.5563290000000  0.5251200000000  0.5608810000000 1.0
C      1  0.3948970000000  0.5639390000000  0.4482540000000 1.0
C      1  0.4893620000000  0.4203870000000  0.3924880000000 1.0
C      1  0.5153860000000  0.4544950000000  0.5396870000000 1.0
C      1  0.5303870000000  0.4371770000000  0.6059300000000 1.0
C      1  0.4627410000000  0.5543610000000  0.5987240000000 1.0
C      1  0.5116280000000  0.4377020000000  0.3956030000000 1.0
C      1  0.3777920000000  0.5256680000000  0.5343450000000 1.0
C      1  0.3989270000000  0.4274360000000  0.5057390000000 1.0
C      1  0.4759360000000  0.5181100000000  0.5033210000000 1.0
C      1  0.4963750000000  0.4305210000000  0.4987300000000 1.0
C      1  0.5620500000000  0.4419960000000  0.4446040000000 1.0
C      1  0.5166200000000  0.5485510000000  0.4798730000000 1.0
C      1  0.4711960000000  0.4364960000000  0.5648400000000 1.0
C      1  0.4536860000000  0.5454270000000  0.4738430000000 1.0
C      1  0.5497960000000  0.4085340000000  0.5109020000000 1.0
C      1  0.4447680000000  0.4815250000000  0.4876860000000 1.0
END
