TITL C-612603-7354-1381 59.3992158919651 125000 -1093.91776237689 0 0 178 (C1) n - 1
REM
REM in /home/nfs/bkarasulu/CARBON/AIRSS/Generating-Clusters/TERSOFF/Only-C1/FIRE-HFTN
REM
REM
REM
REM
REM
REM ./C.cell (11c1c37f851c82e70ff6c80c92926a4b)
REM AIRSS Version 0.9.1 bugfix July 2018 build 013d7b7c2542+ Fri, 06 Jul 2018 19:26:36 +0100
REM compiler GCC version 9.2.1 20190827 (Red Hat 9.2.1-1)
REM options -cpp -mtune=generic -march=x86-64 -g -O0 -fpre-include=/usr/include/finclude/math-vector-fortran.h
REM seed -393947955 313074756 1932492370 -903532813 1946216448 942830670 -672870195 519668913 1873149881 1723268396 1218089425 1265318878 -1743937592 1144138363 -1343197507 -887431439 1222164349 1563713418 -1008499569 1652205585 1595078199 1399601369 -863217675 1285117986 1465719301 1842839494 -1739589607 726588564 1422911044 -1417931905 590839254 456762190 1020242987
REM
CELL 1.54180   50.00000   50.00000   50.00000   90.00000   90.00000   90.00000
LATT -1
SFAC C  
C      1  0.5643770000000  0.6090130000000  0.5302490000000 1.0
C      1  0.4376420000000  0.4674340000000  0.4747680000000 1.0
C      1  0.6028150000000  0.5305100000000  0.5540700000000 1.0
C      1  0.4940440000000  0.5060810000000  0.3784010000000 1.0
C      1  0.4398170000000  0.4839990000000  0.4540730000000 1.0
C      1  0.5965220000000  0.6168660000000  0.4409930000000 1.0
C      1  0.5176820000000  0.4665850000000  0.5992260000000 1.0
C      1  0.5382580000000  0.5629730000000  0.5268560000000 1.0
C      1  0.5743730000000  0.4890650000000  0.4812400000000 1.0
C      1  0.3977300000000  0.4290230000000  0.4990510000000 1.0
C      1  0.5032500000000  0.4134630000000  0.4127990000000 1.0
C      1  0.4837320000000  0.4341420000000  0.5387700000000 1.0
C      1  0.4687850000000  0.5179340000000  0.3847090000000 1.0
C      1  0.5988980000000  0.4839660000000  0.4952830000000 1.0
C      1  0.6444460000000  0.4916160000000  0.4579540000000 1.0
C      1  0.5131990000000  0.4576170000000  0.3836600000000 1.0
C      1  0.4373010000000  0.5836660000000  0.5564270000000 1.0
C      1  0.6160380000000  0.5256300000000  0.5296450000000 1.0
C      1  0.3955680000000  0.5714950000000  0.4829100000000 1.0
C      1  0.5047040000000  0.5107550000000  0.4635940000000 1.0
C      1  0.4177680000000  0.4350720000000  0.4497270000000 1.0
C      1  0.4347490000000  0.5167430000000  0.4876260000000 1.0
C      1  0.5332430000000  0.4223810000000  0.4714280000000 1.0
C      1  0.4468860000000  0.5760390000000  0.4889720000000 1.0
C      1  0.4976490000000  0.4458050000000  0.4843010000000 1.0
C      1  0.5528250000000  0.3929290000000  0.5004050000000 1.0
C      1  0.4769460000000  0.5955750000000  0.5306350000000 1.0
C      1  0.5460130000000  0.5038540000000  0.5931750000000 1.0
C      1  0.4474280000000  0.5956700000000  0.5324810000000 1.0
C      1  0.4237280000000  0.4564130000000  0.3966980000000 1.0
C      1  0.6035590000000  0.5508880000000  0.4659600000000 1.0
C      1  0.5013840000000  0.4273540000000  0.5775110000000 1.0
C      1  0.5287770000000  0.3855910000000  0.5159860000000 1.0
C      1  0.5644100000000  0.4013420000000  0.5465650000000 1.0
C      1  0.5108240000000  0.4625230000000  0.4615070000000 1.0
C      1  0.5142390000000  0.5861730000000  0.5913540000000 1.0
C      1  0.4437620000000  0.3793660000000  0.4900720000000 1.0
C      1  0.5243600000000  0.5507530000000  0.4382970000000 1.0
C      1  0.5066130000000  0.4191540000000  0.4824330000000 1.0
C      1  0.4323950000000  0.5931740000000  0.5072360000000 1.0
C      1  0.4215910000000  0.5088950000000  0.6078730000000 1.0
C      1  0.4615360000000  0.5102070000000  0.4976690000000 1.0
C      1  0.4372360000000  0.4207830000000  0.5288820000000 1.0
C      1  0.5705460000000  0.5407450000000  0.5016110000000 1.0
C      1  0.6567830000000  0.5399000000000  0.5069160000000 1.0
C      1  0.4847360000000  0.5454560000000  0.5854940000000 1.0
C      1  0.4088240000000  0.4498150000000  0.6442080000000 1.0
C      1  0.5293260000000  0.4023130000000  0.4222420000000 1.0
C      1  0.4673190000000  0.4524160000000  0.4326120000000 1.0
C      1  0.5326360000000  0.6069770000000  0.5870760000000 1.0
C      1  0.5489460000000  0.3986900000000  0.4711330000000 1.0
C      1  0.4203610000000  0.4989330000000  0.5823430000000 1.0
C      1  0.4875220000000  0.4691270000000  0.4445360000000 1.0
C      1  0.4007270000000  0.4573940000000  0.4414530000000 1.0
C      1  0.4584100000000  0.5534920000000  0.4410340000000 1.0
C      1  0.4315210000000  0.5391880000000  0.5247040000000 1.0
C      1  0.3882030000000  0.4728330000000  0.4624020000000 1.0
C      1  0.4909080000000  0.6028480000000  0.5034830000000 1.0
C      1  0.5097060000000  0.4415420000000  0.5357190000000 1.0
C      1  0.3942640000000  0.5023680000000  0.5046610000000 1.0
C      1  0.6014880000000  0.5860060000000  0.4995370000000 1.0
C      1  0.4119240000000  0.4199010000000  0.4741450000000 1.0
C      1  0.5187950000000  0.5117620000000  0.6038610000000 1.0
C      1  0.4622630000000  0.3752720000000  0.5115210000000 1.0
C      1  0.4083680000000  0.4195790000000  0.5264490000000 1.0
C      1  0.4457270000000  0.4259070000000  0.5019090000000 1.0
C      1  0.5095700000000  0.4839560000000  0.3779230000000 1.0
C      1  0.5306130000000  0.5015180000000  0.5446000000000 1.0
C      1  0.5154790000000  0.4051620000000  0.5614810000000 1.0
C      1  0.5521300000000  0.5129430000000  0.4457230000000 1.0
C      1  0.5371480000000  0.5716540000000  0.4514320000000 1.0
C      1  0.4966860000000  0.5702730000000  0.5761420000000 1.0
C      1  0.6340060000000  0.4686440000000  0.4672800000000 1.0
C      1  0.3856950000000  0.4782860000000  0.5527120000000 1.0
C      1  0.4377040000000  0.5093860000000  0.5623830000000 1.0
C      1  0.6464110000000  0.5193240000000  0.4626310000000 1.0
C      1  0.4014110000000  0.4954370000000  0.4083800000000 1.0
C      1  0.4567180000000  0.5728690000000  0.3866280000000 1.0
C      1  0.6046620000000  0.4330070000000  0.5410830000000 1.0
C      1  0.5725350000000  0.6060460000000  0.5574870000000 1.0
C      1  0.4391660000000  0.5580340000000  0.5686670000000 1.0
C      1  0.5344910000000  0.4555190000000  0.5354300000000 1.0
C      1  0.4652660000000  0.4675470000000  0.5125180000000 1.0
C      1  0.5738970000000  0.5089560000000  0.5909120000000 1.0
C      1  0.4013600000000  0.4538460000000  0.5910540000000 1.0
C      1  0.5079890000000  0.3896460000000  0.5364470000000 1.0
C      1  0.4835870000000  0.4975840000000  0.4451840000000 1.0
C      1  0.4611510000000  0.4959130000000  0.5520470000000 1.0
C      1  0.4567520000000  0.5548450000000  0.5060930000000 1.0
C      1  0.4768210000000  0.6163610000000  0.4780700000000 1.0
C      1  0.5335970000000  0.4449470000000  0.4544380000000 1.0
C      1  0.5320700000000  0.6079560000000  0.4815840000000 1.0
C      1  0.4248740000000  0.5310440000000  0.4649940000000 1.0
C      1  0.6050660000000  0.4358610000000  0.4935750000000 1.0
C      1  0.4585290000000  0.5954080000000  0.4027390000000 1.0
C      1  0.4044690000000  0.4678270000000  0.4148810000000 1.0
C      1  0.4439270000000  0.5297740000000  0.4445960000000 1.0
C      1  0.5609910000000  0.5651530000000  0.5114500000000 1.0
C      1  0.5617090000000  0.5830940000000  0.4442110000000 1.0
C      1  0.5142310000000  0.5056190000000  0.5239970000000 1.0
C      1  0.4842970000000  0.5505450000000  0.4954310000000 1.0
C      1  0.5495490000000  0.4775250000000  0.4882060000000 1.0
C      1  0.5946910000000  0.4228250000000  0.5163440000000 1.0
C      1  0.4711130000000  0.4529040000000  0.4038660000000 1.0
C      1  0.6258660000000  0.5374140000000  0.4554230000000 1.0
C      1  0.4331450000000  0.5358190000000  0.5522300000000 1.0
C      1  0.4767940000000  0.5514450000000  0.4198170000000 1.0
C      1  0.4710520000000  0.6165360000000  0.4512600000000 1.0
C      1  0.6104470000000  0.5020190000000  0.5142900000000 1.0
C      1  0.4660990000000  0.5461210000000  0.3935230000000 1.0
C      1  0.5821740000000  0.5354880000000  0.4762400000000 1.0
C      1  0.5119400000000  0.4870550000000  0.6189730000000 1.0
C      1  0.5482580000000  0.4596530000000  0.5108240000000 1.0
C      1  0.4570180000000  0.5510150000000  0.5895060000000 1.0
C      1  0.3868800000000  0.4780690000000  0.4906090000000 1.0
C      1  0.5383000000000  0.6226830000000  0.5268900000000 1.0
C      1  0.4527440000000  0.5729250000000  0.4612550000000 1.0
C      1  0.4873190000000  0.3858350000000  0.4499990000000 1.0
C      1  0.5454310000000  0.3912180000000  0.4426330000000 1.0
C      1  0.6631510000000  0.5283890000000  0.4834960000000 1.0
C      1  0.4964400000000  0.4391130000000  0.3975190000000 1.0
C      1  0.4614870000000  0.4936510000000  0.5227940000000 1.0
C      1  0.4356900000000  0.4060080000000  0.4842320000000 1.0
C      1  0.4165530000000  0.5195620000000  0.5092050000000 1.0
C      1  0.6014600000000  0.4648440000000  0.5830760000000 1.0
C      1  0.6009380000000  0.5789780000000  0.4713590000000 1.0
C      1  0.5202830000000  0.6164640000000  0.5059720000000 1.0
C      1  0.6136680000000  0.4614590000000  0.4853750000000 1.0
C      1  0.4588170000000  0.4258690000000  0.5460000000000 1.0
C      1  0.5441900000000  0.4038810000000  0.5643050000000 1.0
C      1  0.5730040000000  0.5116250000000  0.4642020000000 1.0
C      1  0.4015890000000  0.4786050000000  0.5763490000000 1.0
C      1  0.4960680000000  0.5182430000000  0.5866320000000 1.0
C      1  0.5866870000000  0.5938320000000  0.4517570000000 1.0
C      1  0.4647270000000  0.6091430000000  0.4256440000000 1.0
C      1  0.5230890000000  0.5823590000000  0.4730720000000 1.0
C      1  0.5133550000000  0.5642220000000  0.5345170000000 1.0
C      1  0.4932830000000  0.3961680000000  0.4740790000000 1.0
C      1  0.5906330000000  0.4862250000000  0.5949600000000 1.0
C      1  0.6324330000000  0.5468600000000  0.5191880000000 1.0
C      1  0.4561510000000  0.5044280000000  0.4434450000000 1.0
C      1  0.3924200000000  0.4312320000000  0.5472140000000 1.0
C      1  0.5265950000000  0.5246130000000  0.4479710000000 1.0
C      1  0.4476030000000  0.4983150000000  0.3883890000000 1.0
C      1  0.5279570000000  0.6372970000000  0.5488670000000 1.0
C      1  0.4040150000000  0.5500860000000  0.4685340000000 1.0
C      1  0.5037570000000  0.5565120000000  0.4211680000000 1.0
C      1  0.4453230000000  0.4330410000000  0.4384520000000 1.0
C      1  0.5212440000000  0.4870860000000  0.4778660000000 1.0
C      1  0.6061110000000  0.4472480000000  0.5635790000000 1.0
C      1  0.4964120000000  0.4569940000000  0.5829810000000 1.0
C      1  0.4857000000000  0.5236310000000  0.4858830000000 1.0
C      1  0.4498330000000  0.4684310000000  0.3914450000000 1.0
C      1  0.5001000000000  0.5736800000000  0.4888760000000 1.0
C      1  0.5232250000000  0.6307030000000  0.5746200000000 1.0
C      1  0.4474670000000  0.4533990000000  0.4964570000000 1.0
C      1  0.4913060000000  0.4639840000000  0.5045550000000 1.0
C      1  0.3963360000000  0.4311180000000  0.5749160000000 1.0
C      1  0.3822570000000  0.4561680000000  0.5354490000000 1.0
C      1  0.6215540000000  0.5727050000000  0.5147580000000 1.0
C      1  0.4539000000000  0.4086020000000  0.4259230000000 1.0
C      1  0.5598430000000  0.6017720000000  0.5809840000000 1.0
C      1  0.4807780000000  0.3996220000000  0.4261080000000 1.0
C      1  0.5726570000000  0.4044590000000  0.5189490000000 1.0
C      1  0.4338430000000  0.3581600000000  0.4759650000000 1.0
C      1  0.5072260000000  0.4872510000000  0.5044540000000 1.0
C      1  0.4930520000000  0.5779360000000  0.5482210000000 1.0
C      1  0.5657220000000  0.5196180000000  0.5183850000000 1.0
C      1  0.3847870000000  0.4546580000000  0.5066560000000 1.0
C      1  0.5380800000000  0.4761650000000  0.5548430000000 1.0
C      1  0.5854990000000  0.5284310000000  0.5743480000000 1.0
C      1  0.5396840000000  0.4764720000000  0.5829730000000 1.0
C      1  0.4823290000000  0.3798750000000  0.5289210000000 1.0
C      1  0.4048700000000  0.5904190000000  0.5003220000000 1.0
C      1  0.4051230000000  0.4520990000000  0.6185120000000 1.0
C      1  0.4213260000000  0.5081930000000  0.3947650000000 1.0
C      1  0.4823460000000  0.4891490000000  0.5717390000000 1.0
C      1  0.5757860000000  0.5894340000000  0.5121600000000 1.0
END
