TITL C-612601-4209-195 646128.020979006 125000 -902.722901115442 0 0 147 (C1) n - 1
REM
REM in /home/nfs/bkarasulu/CARBON/AIRSS/Generating-Clusters/TERSOFF/Only-C1/FIRE-HFTN
REM
REM
REM
REM
REM
REM ./C.cell (11c1c37f851c82e70ff6c80c92926a4b)
REM AIRSS Version 0.9.1 bugfix July 2018 build 013d7b7c2542+ Fri, 06 Jul 2018 19:26:36 +0100
REM compiler GCC version 9.2.1 20190827 (Red Hat 9.2.1-1)
REM options -cpp -mtune=generic -march=x86-64 -g -O0 -fpre-include=/usr/include/finclude/math-vector-fortran.h
REM seed 589677080 2093979475 158151203 595356569 110637434 -273536416 1754123162 1341771139 1740486281 -222158733 1015786294 1556303934 2004710399 203743652 235554940 -139235929 1924536118 -828411596 -407164684 432074556 -1743961573 -244895764 1380404705 -1997191669 -1111719884 -2128038997 1811403939 59208999 293736608 -1042611837 -299990971 725234890 -52135178
REM
CELL 1.54180   50.00000   50.00000   50.00000   90.00000   90.00000   90.00000
LATT -1
SFAC C  
C      1  0.4996130000000  0.5012540000000  0.5168410000000 1.0
C      1  0.5703700000000  0.5852860000000  0.4868250000000 1.0
C      1  0.4657150000000  0.4763150000000  0.4896870000000 1.0
C      1  0.5143770000000  0.5314440000000  0.4015200000000 1.0
C      1  0.4897060000000  0.4683130000000  0.5691090000000 1.0
C      1  0.5138710000000  0.5583090000000  0.5038740000000 1.0
C      1  0.5081060000000  0.4349260000000  0.5172380000000 1.0
C      1  0.4602250000000  0.5068600000000  0.4432160000000 1.0
C      1  0.5050870000000  0.4791100000000  0.6412830000000 1.0
C      1  0.5869690000000  0.5332400000000  0.4718060000000 1.0
C      1  0.4501360000000  0.4698660000000  0.4666930000000 1.0
C      1  0.5394290000000  0.4639430000000  0.4024730000000 1.0
C      1  0.4684250000000  0.6171050000000  0.4450650000000 1.0
C      1  0.4489550000000  0.4653950000000  0.5322940000000 1.0
C      1  0.5923480000000  0.5032000000000  0.5098160000000 1.0
C      1  0.5605930000000  0.5049700000000  0.6096190000000 1.0
C      1  0.4555340000000  0.4484700000000  0.4223410000000 1.0
C      1  0.4717430000000  0.4962980000000  0.3949940000000 1.0
C      1  0.4943310000000  0.4783220000000  0.6649830000000 1.0
C      1  0.4867870000000  0.3906990000000  0.4905360000000 1.0
C      1  0.4919160000000  0.5560850000000  0.4858350000000 1.0
C      1  0.5455330000000  0.4457440000000  0.4567200000000 1.0
C      1  0.5224310000000  0.6201560000000  0.5308910000000 1.0
C      1  0.4777300000000  0.4025790000000  0.4652930000000 1.0
C      1  0.4390620000000  0.5674000000000  0.4818560000000 1.0
C      1  0.4654450000000  0.4716360000000  0.5551390000000 1.0
C      1  0.5321690000000  0.5032170000000  0.6084590000000 1.0
C      1  0.5509900000000  0.4178220000000  0.5551450000000 1.0
C      1  0.4384770000000  0.4168650000000  0.4906530000000 1.0
C      1  0.4991460000000  0.6002370000000  0.5753090000000 1.0
C      1  0.4185810000000  0.5721140000000  0.5104930000000 1.0
C      1  0.5705350000000  0.5451400000000  0.5466490000000 1.0
C      1  0.4484210000000  0.5103900000000  0.3864710000000 1.0
C      1  0.5238240000000  0.4041250000000  0.4483220000000 1.0
C      1  0.5772160000000  0.5184490000000  0.5927670000000 1.0
C      1  0.4640340000000  0.4575500000000  0.5100900000000 1.0
C      1  0.5468720000000  0.4982010000000  0.5172790000000 1.0
C      1  0.5798670000000  0.5336140000000  0.5705670000000 1.0
C      1  0.5197080000000  0.5096120000000  0.5637410000000 1.0
C      1  0.4557810000000  0.5870620000000  0.5383010000000 1.0
C      1  0.4781870000000  0.5012090000000  0.4977910000000 1.0
C      1  0.4080210000000  0.5385360000000  0.5533330000000 1.0
C      1  0.4956930000000  0.4192400000000  0.5863750000000 1.0
C      1  0.4390750000000  0.5519700000000  0.4348300000000 1.0
C      1  0.5139830000000  0.4817850000000  0.6150130000000 1.0
C      1  0.4535890000000  0.4456680000000  0.4514950000000 1.0
C      1  0.5931880000000  0.5057680000000  0.4632670000000 1.0
C      1  0.4212030000000  0.4877190000000  0.5704040000000 1.0
C      1  0.4958650000000  0.3993000000000  0.4432470000000 1.0
C      1  0.5180560000000  0.4592370000000  0.5253040000000 1.0
C      1  0.5638580000000  0.5959550000000  0.5349910000000 1.0
C      1  0.4419900000000  0.5192660000000  0.5197800000000 1.0
C      1  0.5558550000000  0.5073450000000  0.4309390000000 1.0
C      1  0.4243540000000  0.5476250000000  0.4112970000000 1.0
C      1  0.4121080000000  0.5010060000000  0.4610120000000 1.0
C      1  0.3762580000000  0.5146230000000  0.4314180000000 1.0
C      1  0.4393050000000  0.4180210000000  0.5436480000000 1.0
C      1  0.4514720000000  0.5234510000000  0.5475520000000 1.0
C      1  0.4074760000000  0.4557600000000  0.5057980000000 1.0
C      1  0.5385030000000  0.6597850000000  0.4985050000000 1.0
C      1  0.3837820000000  0.4679810000000  0.4396050000000 1.0
C      1  0.5181420000000  0.4376810000000  0.5889930000000 1.0
C      1  0.4874530000000  0.3897190000000  0.4185420000000 1.0
C      1  0.5428260000000  0.5434530000000  0.5383750000000 1.0
C      1  0.5029410000000  0.4753220000000  0.4545510000000 1.0
C      1  0.5369320000000  0.5066380000000  0.4543890000000 1.0
C      1  0.5326880000000  0.5380750000000  0.4930720000000 1.0
C      1  0.4318700000000  0.4594640000000  0.5794920000000 1.0
C      1  0.5570390000000  0.5382060000000  0.4285660000000 1.0
C      1  0.4789430000000  0.5339940000000  0.5503510000000 1.0
C      1  0.5758350000000  0.5801470000000  0.5141500000000 1.0
C      1  0.4074800000000  0.5478640000000  0.5243580000000 1.0
C      1  0.5222950000000  0.4108360000000  0.5168190000000 1.0
C      1  0.5682410000000  0.4153770000000  0.5058920000000 1.0
C      1  0.4852720000000  0.4930420000000  0.4451900000000 1.0
C      1  0.4961520000000  0.6096940000000  0.5302910000000 1.0
C      1  0.4674220000000  0.4704000000000  0.4074870000000 1.0
C      1  0.5609100000000  0.4004190000000  0.4825480000000 1.0
C      1  0.4550450000000  0.4207940000000  0.4668220000000 1.0
C      1  0.4053370000000  0.4795260000000  0.5472210000000 1.0
C      1  0.4857390000000  0.5463020000000  0.4405260000000 1.0
C      1  0.4637480000000  0.5530670000000  0.4942920000000 1.0
C      1  0.5840840000000  0.4671440000000  0.4375980000000 1.0
C      1  0.4678070000000  0.3886420000000  0.5121360000000 1.0
C      1  0.5548760000000  0.4656260000000  0.5649180000000 1.0
C      1  0.4829800000000  0.5910510000000  0.5513740000000 1.0
C      1  0.5225380000000  0.5222090000000  0.5889780000000 1.0
C      1  0.5436610000000  0.5256470000000  0.5152770000000 1.0
C      1  0.5907190000000  0.5325870000000  0.5021490000000 1.0
C      1  0.4990740000000  0.5140810000000  0.5436470000000 1.0
C      1  0.5180300000000  0.5586910000000  0.5328810000000 1.0
C      1  0.5279440000000  0.5962790000000  0.5730940000000 1.0
C      1  0.4937520000000  0.5605380000000  0.5490890000000 1.0
C      1  0.5341990000000  0.3946550000000  0.4736020000000 1.0
C      1  0.4995170000000  0.5396960000000  0.4635170000000 1.0
C      1  0.5844330000000  0.5533850000000  0.5218340000000 1.0
C      1  0.4828640000000  0.3798970000000  0.3948330000000 1.0
C      1  0.5362960000000  0.4384180000000  0.4111110000000 1.0
C      1  0.5711690000000  0.5499880000000  0.4527950000000 1.0
C      1  0.5613700000000  0.5758200000000  0.4617570000000 1.0
C      1  0.5844290000000  0.4392660000000  0.5063680000000 1.0
C      1  0.3782070000000  0.4425800000000  0.4385570000000 1.0
C      1  0.5725450000000  0.4915920000000  0.5269820000000 1.0
C      1  0.4454680000000  0.4065910000000  0.5173320000000 1.0
C      1  0.5149910000000  0.3935100000000  0.4952830000000 1.0
C      1  0.4609890000000  0.5338150000000  0.4369130000000 1.0
C      1  0.4427900000000  0.4291370000000  0.4072870000000 1.0
C      1  0.5404400000000  0.6055950000000  0.5481880000000 1.0
C      1  0.5372170000000  0.4266000000000  0.4368880000000 1.0
C      1  0.5317410000000  0.5492470000000  0.4166070000000 1.0
C      1  0.4290540000000  0.5922960000000  0.5292170000000 1.0
C      1  0.4203350000000  0.4663930000000  0.5273860000000 1.0
C      1  0.5120340000000  0.4670380000000  0.5515080000000 1.0
C      1  0.5237030000000  0.5262240000000  0.4690100000000 1.0
C      1  0.5227390000000  0.4841900000000  0.5128190000000 1.0
C      1  0.4069180000000  0.5131860000000  0.4859210000000 1.0
C      1  0.4908060000000  0.5739050000000  0.4338560000000 1.0
C      1  0.4446040000000  0.4321650000000  0.5695760000000 1.0
C      1  0.4680030000000  0.5897710000000  0.4440190000000 1.0
C      1  0.5440760000000  0.4388830000000  0.5734400000000 1.0
C      1  0.4815080000000  0.4363840000000  0.5104900000000 1.0
C      1  0.3905240000000  0.4947710000000  0.4436440000000 1.0
C      1  0.5729520000000  0.4526850000000  0.4595360000000 1.0
C      1  0.4276600000000  0.5175030000000  0.5644180000000 1.0
C      1  0.4630320000000  0.5664550000000  0.5200340000000 1.0
C      1  0.5457500000000  0.4894680000000  0.4087640000000 1.0
C      1  0.5390460000000  0.5861380000000  0.4471610000000 1.0
C      1  0.5958310000000  0.4867910000000  0.4859030000000 1.0
C      1  0.4611270000000  0.5235570000000  0.4996920000000 1.0
C      1  0.4961650000000  0.5119260000000  0.3957790000000 1.0
C      1  0.4440110000000  0.5738500000000  0.4533030000000 1.0
C      1  0.4686830000000  0.4220060000000  0.5826690000000 1.0
C      1  0.5240600000000  0.4621720000000  0.4642820000000 1.0
C      1  0.5757160000000  0.4695560000000  0.5450320000000 1.0
C      1  0.5902080000000  0.4486680000000  0.5327050000000 1.0
C      1  0.5822990000000  0.4954460000000  0.4392870000000 1.0
C      1  0.4302630000000  0.5295140000000  0.3919980000000 1.0
C      1  0.5365280000000  0.5740930000000  0.5880410000000 1.0
C      1  0.5861200000000  0.4586030000000  0.4845400000000 1.0
C      1  0.5488290000000  0.4119470000000  0.5274390000000 1.0
C      1  0.5039510000000  0.4637350000000  0.5949650000000 1.0
C      1  0.5330160000000  0.4841440000000  0.5619450000000 1.0
C      1  0.5276270000000  0.5493960000000  0.5933660000000 1.0
C      1  0.5203750000000  0.5738980000000  0.4291670000000 1.0
C      1  0.5303980000000  0.6417810000000  0.5155100000000 1.0
C      1  0.4153430000000  0.5237420000000  0.5102450000000 1.0
C      1  0.4383880000000  0.4928450000000  0.4546110000000 1.0
END
