TITL C-612607-4507-367 215.126548215927 125000 -167.225117275281 0 0 30 (C1) n - 1
REM
REM in /home/nfs/bkarasulu/CARBON/AIRSS/Generating-Clusters/TERSOFF/Only-C1/FIRE-HFTN
REM
REM
REM
REM
REM
REM ./C.cell (11c1c37f851c82e70ff6c80c92926a4b)
REM AIRSS Version 0.9.1 bugfix July 2018 build 013d7b7c2542+ Fri, 06 Jul 2018 19:26:36 +0100
REM compiler GCC version 9.2.1 20190827 (Red Hat 9.2.1-1)
REM options -cpp -mtune=generic -march=x86-64 -g -O0 -fpre-include=/usr/include/finclude/math-vector-fortran.h
REM seed -1804157752 688903980 1419910571 -260629540 -1402564344 -1952908653 -512166066 81894967 29709884 40510580 -1338648911 -1752215495 483382353 2082339399 -480736240 1536527303 -438256090 305962454 739700605 -681442881 -1865539358 -1607672566 -978592866 1485572217 -653034478 2138615736 266786943 -697616918 -1136893566 489145347 89732867 -1083034397 -394206952
REM
CELL 1.54180   50.00000   50.00000   50.00000   90.00000   90.00000   90.00000
LATT -1
SFAC C  
C      1  0.6031670000000  0.6211310000000  0.4305130000000 1.0
C      1  0.3552600000000  0.4834590000000  0.4683340000000 1.0
C      1  0.5935060000000  0.4857390000000  0.5871180000000 1.0
C      1  0.5600900000000  0.4920840000000  0.5464730000000 1.0
C      1  0.5252220000000  0.4458140000000  0.4789060000000 1.0
C      1  0.6266550000000  0.4794430000000  0.6274390000000 1.0
C      1  0.5767980000000  0.4889120000000  0.5667950000000 1.0
C      1  0.3732650000000  0.4746500000000  0.4856770000000 1.0
C      1  0.4786820000000  0.4412340000000  0.4913400000000 1.0
C      1  0.5301910000000  0.5161090000000  0.4845260000000 1.0
C      1  0.4537330000000  0.4438540000000  0.5005590000000 1.0
C      1  0.5382510000000  0.5502660000000  0.4448460000000 1.0
C      1  0.3913240000000  0.4659120000000  0.5029710000000 1.0
C      1  0.4512810000000  0.4866540000000  0.5228230000000 1.0
C      1  0.6102180000000  0.4825650000000  0.6074460000000 1.0
C      1  0.4783520000000  0.4896960000000  0.5158020000000 1.0
C      1  0.5028110000000  0.4556830000000  0.4909660000000 1.0
C      1  0.5254590000000  0.4975860000000  0.5048780000000 1.0
C      1  0.3375530000000  0.4921230000000  0.4512750000000 1.0
C      1  0.5426840000000  0.5683700000000  0.4240030000000 1.0
C      1  0.5023630000000  0.4811870000000  0.5039330000000 1.0
C      1  0.5636440000000  0.5867570000000  0.4261040000000 1.0
C      1  0.5342390000000  0.5332110000000  0.4647110000000 1.0
C      1  0.5266980000000  0.5680960000000  0.4018100000000 1.0
C      1  0.4380980000000  0.5061390000000  0.5367280000000 1.0
C      1  0.4382460000000  0.4624680000000  0.5148210000000 1.0
C      1  0.4042420000000  0.4442370000000  0.5438630000000 1.0
C      1  0.4110470000000  0.4573770000000  0.5208510000000 1.0
C      1  0.5433590000000  0.4951600000000  0.5261730000000 1.0
C      1  0.5835630000000  0.6040870000000  0.4283160000000 1.0
END
