TITL C-612602-9376-1405 0.000372989656234401 125000 -715.062629277121 0 0 117 (C1) n - 1
REM
REM in /home/nfs/bkarasulu/CARBON/AIRSS/Generating-Clusters/TERSOFF/Only-C1/FIRE-HFTN
REM
REM
REM
REM
REM
REM ./C.cell (11c1c37f851c82e70ff6c80c92926a4b)
REM AIRSS Version 0.9.1 bugfix July 2018 build 013d7b7c2542+ Fri, 06 Jul 2018 19:26:36 +0100
REM compiler GCC version 9.2.1 20190827 (Red Hat 9.2.1-1)
REM options -cpp -mtune=generic -march=x86-64 -g -O0 -fpre-include=/usr/include/finclude/math-vector-fortran.h
REM seed 23859220 -414421012 2034603647 -963090387 -2053198809 -1102381656 363673335 490376438 -1707846695 1736709814 1712528173 -588592316 916978590 -819709898 2103552916 -785546494 -1795750713 1766410958 263707878 -891582871 1485511776 -1308060262 684490145 1110360760 1547326702 929753258 -981446353 -621236819 1361730158 577427328 -784213983 -347861282 -485652595
REM
CELL 1.54180   50.00000   50.00000   50.00000   90.00000   90.00000   90.00000
LATT -1
SFAC C  
C      1  0.5576970000000  0.5265640000000  0.4586850000000 1.0
C      1  0.5092720000000  0.4923070000000  0.4088540000000 1.0
C      1  0.4463370000000  0.5876420000000  0.5377780000000 1.0
C      1  0.4493340000000  0.4527300000000  0.4213940000000 1.0
C      1  0.6080610000000  0.5348650000000  0.5611330000000 1.0
C      1  0.4253730000000  0.4987230000000  0.5541820000000 1.0
C      1  0.5052370000000  0.4298750000000  0.5461270000000 1.0
C      1  0.5431520000000  0.4821230000000  0.5388950000000 1.0
C      1  0.6256260000000  0.5147920000000  0.4923350000000 1.0
C      1  0.5220840000000  0.4568360000000  0.4724880000000 1.0
C      1  0.5693620000000  0.4889810000000  0.4321010000000 1.0
C      1  0.4033910000000  0.4925940000000  0.4745560000000 1.0
C      1  0.5034490000000  0.5663860000000  0.4362440000000 1.0
C      1  0.4429320000000  0.5878640000000  0.4829590000000 1.0
C      1  0.4766470000000  0.4855870000000  0.5750680000000 1.0
C      1  0.5249150000000  0.4779670000000  0.5173170000000 1.0
C      1  0.5522320000000  0.4193150000000  0.5365210000000 1.0
C      1  0.5020400000000  0.5209200000000  0.5237160000000 1.0
C      1  0.5238200000000  0.5369130000000  0.5169920000000 1.0
C      1  0.5937920000000  0.4627860000000  0.4706690000000 1.0
C      1  0.4255930000000  0.4570180000000  0.4358120000000 1.0
C      1  0.4503040000000  0.3998990000000  0.4741510000000 1.0
C      1  0.5720660000000  0.4122800000000  0.5177910000000 1.0
C      1  0.4560670000000  0.5324160000000  0.4201250000000 1.0
C      1  0.5968030000000  0.4711090000000  0.5196230000000 1.0
C      1  0.4521860000000  0.4054360000000  0.5709090000000 1.0
C      1  0.5930320000000  0.5438650000000  0.5151890000000 1.0
C      1  0.5613990000000  0.5285560000000  0.5504100000000 1.0
C      1  0.4667390000000  0.5911170000000  0.4650430000000 1.0
C      1  0.5077440000000  0.5774760000000  0.5737130000000 1.0
C      1  0.4579160000000  0.5499270000000  0.4418030000000 1.0
C      1  0.4757630000000  0.5710640000000  0.4450530000000 1.0
C      1  0.4132710000000  0.4804890000000  0.4489980000000 1.0
C      1  0.4997310000000  0.4986940000000  0.3834430000000 1.0
C      1  0.5868660000000  0.4461620000000  0.5596730000000 1.0
C      1  0.3472400000000  0.5369810000000  0.4730680000000 1.0
C      1  0.5244400000000  0.4154340000000  0.5302620000000 1.0
C      1  0.4679230000000  0.4958480000000  0.4499980000000 1.0
C      1  0.5032970000000  0.4642280000000  0.4172530000000 1.0
C      1  0.4466990000000  0.3893020000000  0.4983070000000 1.0
C      1  0.4870670000000  0.4392570000000  0.6294870000000 1.0
C      1  0.4610620000000  0.5432970000000  0.5164530000000 1.0
C      1  0.5167840000000  0.4037500000000  0.5053950000000 1.0
C      1  0.5255560000000  0.5144810000000  0.4218340000000 1.0
C      1  0.4705500000000  0.4534680000000  0.5245630000000 1.0
C      1  0.5422380000000  0.5840870000000  0.5091660000000 1.0
C      1  0.5184680000000  0.5157050000000  0.5760160000000 1.0
C      1  0.5248310000000  0.5648190000000  0.5157880000000 1.0
C      1  0.4600180000000  0.4225150000000  0.4613160000000 1.0
C      1  0.5864340000000  0.4972860000000  0.5169140000000 1.0
C      1  0.5763590000000  0.5459260000000  0.4682220000000 1.0
C      1  0.5008690000000  0.4926280000000  0.5189720000000 1.0
C      1  0.5270100000000  0.4500300000000  0.4258350000000 1.0
C      1  0.5820980000000  0.5592660000000  0.4933600000000 1.0
C      1  0.6178360000000  0.4845150000000  0.5613660000000 1.0
C      1  0.4934600000000  0.4628930000000  0.5812570000000 1.0
C      1  0.5136430000000  0.5415800000000  0.4248880000000 1.0
C      1  0.4573680000000  0.5393740000000  0.3939290000000 1.0
C      1  0.5865610000000  0.5426540000000  0.5441070000000 1.0
C      1  0.4761450000000  0.4793520000000  0.5155380000000 1.0
C      1  0.5597140000000  0.4399470000000  0.5553980000000 1.0
C      1  0.4150530000000  0.4911000000000  0.5256570000000 1.0
C      1  0.4178100000000  0.5739980000000  0.4752440000000 1.0
C      1  0.5524770000000  0.5115990000000  0.4342050000000 1.0
C      1  0.4474050000000  0.5410550000000  0.4667280000000 1.0
C      1  0.6028960000000  0.5182500000000  0.5068900000000 1.0
C      1  0.5403770000000  0.4610700000000  0.5581780000000 1.0
C      1  0.5890660000000  0.4263350000000  0.5025640000000 1.0
C      1  0.3995450000000  0.4813360000000  0.5024200000000 1.0
C      1  0.4337450000000  0.5076070000000  0.5109950000000 1.0
C      1  0.5672830000000  0.5824160000000  0.4995170000000 1.0
C      1  0.4903510000000  0.4509900000000  0.6064520000000 1.0
C      1  0.5080450000000  0.4165640000000  0.4544680000000 1.0
C      1  0.3946400000000  0.5880360000000  0.4711600000000 1.0
C      1  0.4528370000000  0.4487780000000  0.4698800000000 1.0
C      1  0.5384130000000  0.5348520000000  0.5674990000000 1.0
C      1  0.5350580000000  0.4632460000000  0.4958110000000 1.0
C      1  0.4813960000000  0.5827380000000  0.5714390000000 1.0
C      1  0.4480930000000  0.4853060000000  0.5676230000000 1.0
C      1  0.4600200000000  0.4094230000000  0.5450330000000 1.0
C      1  0.4560790000000  0.4937040000000  0.5026840000000 1.0
C      1  0.5445270000000  0.5209600000000  0.5062810000000 1.0
C      1  0.5267380000000  0.4383530000000  0.4515450000000 1.0
C      1  0.4900590000000  0.5112700000000  0.5746040000000 1.0
C      1  0.5109130000000  0.4024350000000  0.4790710000000 1.0
C      1  0.4646930000000  0.5439240000000  0.4888860000000 1.0
C      1  0.4359050000000  0.5326550000000  0.5237100000000 1.0
C      1  0.5133830000000  0.4516880000000  0.5635960000000 1.0
C      1  0.3997380000000  0.5229000000000  0.4730450000000 1.0
C      1  0.5397240000000  0.5180300000000  0.4787510000000 1.0
C      1  0.4499930000000  0.5457800000000  0.5665790000000 1.0
C      1  0.5597850000000  0.5056290000000  0.5292180000000 1.0
C      1  0.5129200000000  0.5153520000000  0.4705470000000 1.0
C      1  0.4752200000000  0.5318150000000  0.5619920000000 1.0
C      1  0.4503380000000  0.3932030000000  0.5243600000000 1.0
C      1  0.5842570000000  0.4730430000000  0.4478420000000 1.0
C      1  0.4822790000000  0.4236710000000  0.4427220000000 1.0
C      1  0.4194530000000  0.5447370000000  0.4715710000000 1.0
C      1  0.6038030000000  0.4647130000000  0.5468380000000 1.0
C      1  0.4958330000000  0.4662620000000  0.4722290000000 1.0
C      1  0.6189960000000  0.5108300000000  0.5667630000000 1.0
C      1  0.3726140000000  0.5310440000000  0.4728920000000 1.0
C      1  0.4783580000000  0.4468530000000  0.4230560000000 1.0
C      1  0.4452820000000  0.5930950000000  0.5112600000000 1.0
C      1  0.4779780000000  0.4302850000000  0.5383080000000 1.0
C      1  0.5202840000000  0.5882860000000  0.4432960000000 1.0
C      1  0.4694070000000  0.4710670000000  0.4641490000000 1.0
C      1  0.4558770000000  0.5743370000000  0.5613340000000 1.0
C      1  0.4866790000000  0.6111340000000  0.4691210000000 1.0
C      1  0.5295400000000  0.5616980000000  0.5716870000000 1.0
C      1  0.4501680000000  0.5065950000000  0.4299360000000 1.0
C      1  0.4897790000000  0.5121590000000  0.4579050000000 1.0
C      1  0.4810300000000  0.5349780000000  0.5342690000000 1.0
C      1  0.5117660000000  0.6091390000000  0.4586410000000 1.0
C      1  0.4227190000000  0.5010100000000  0.4313820000000 1.0
C      1  0.5953160000000  0.4532680000000  0.4972350000000 1.0
C      1  0.4301570000000  0.5294940000000  0.5524860000000 1.0
END
