TITL C-612604-1799-230 2.16790425818871e-05 125000 -1219.29608257899 0 0 198 (C1) n - 1
REM
REM in /home/nfs/bkarasulu/CARBON/AIRSS/Generating-Clusters/TERSOFF/Only-C1/FIRE-HFTN
REM
REM
REM
REM
REM
REM ./C.cell (11c1c37f851c82e70ff6c80c92926a4b)
REM AIRSS Version 0.9.1 bugfix July 2018 build 013d7b7c2542+ Fri, 06 Jul 2018 19:26:36 +0100
REM compiler GCC version 9.2.1 20190827 (Red Hat 9.2.1-1)
REM options -cpp -mtune=generic -march=x86-64 -g -O0 -fpre-include=/usr/include/finclude/math-vector-fortran.h
REM seed -841662937 -185673966 50123561 28861973 1976521748 579107971 -348685645 -596214444 1730551913 -769679830 552227914 1401847035 -160254213 -1259102091 -386079093 1325949505 -557439596 -865237791 -405939550 -1639365351 1710908139 561039819 -416679032 1565815140 -300247445 604542509 2110732046 1276365923 -916737345 1842446588 -272131341 -132508331 -1030881791
REM
CELL 1.54180   50.00000   50.00000   50.00000   90.00000   90.00000   90.00000
LATT -1
SFAC C  
C      1  0.5633420000000  0.4176250000000  0.4153400000000 1.0
C      1  0.5449680000000  0.4780190000000  0.5727260000000 1.0
C      1  0.5937650000000  0.6116830000000  0.4488730000000 1.0
C      1  0.4928710000000  0.4906890000000  0.5364220000000 1.0
C      1  0.5142870000000  0.5973550000000  0.5052930000000 1.0
C      1  0.5184280000000  0.5786180000000  0.4352930000000 1.0
C      1  0.4863710000000  0.3874810000000  0.5698870000000 1.0
C      1  0.6022420000000  0.5860970000000  0.5112820000000 1.0
C      1  0.5780490000000  0.5141080000000  0.6073630000000 1.0
C      1  0.5308350000000  0.3986630000000  0.4541530000000 1.0
C      1  0.4614480000000  0.5271540000000  0.4375000000000 1.0
C      1  0.5318290000000  0.4030910000000  0.4834790000000 1.0
C      1  0.3895810000000  0.5170690000000  0.4978770000000 1.0
C      1  0.3823380000000  0.4943840000000  0.4542960000000 1.0
C      1  0.6007630000000  0.6113980000000  0.4990070000000 1.0
C      1  0.5214100000000  0.5347390000000  0.4196940000000 1.0
C      1  0.4778660000000  0.5487750000000  0.5188620000000 1.0
C      1  0.4155270000000  0.5021400000000  0.4130820000000 1.0
C      1  0.5305190000000  0.5119290000000  0.5048970000000 1.0
C      1  0.4638780000000  0.4460310000000  0.5436760000000 1.0
C      1  0.4145070000000  0.5765710000000  0.5377300000000 1.0
C      1  0.4107220000000  0.4829630000000  0.5749730000000 1.0
C      1  0.5086220000000  0.4939890000000  0.4642200000000 1.0
C      1  0.4756060000000  0.4752510000000  0.5794970000000 1.0
C      1  0.6185080000000  0.5669510000000  0.4975150000000 1.0
C      1  0.5772670000000  0.4982990000000  0.4753110000000 1.0
C      1  0.4407480000000  0.4370630000000  0.4205030000000 1.0
C      1  0.5340320000000  0.4849710000000  0.4484580000000 1.0
C      1  0.4798870000000  0.5543790000000  0.5469980000000 1.0
C      1  0.5809120000000  0.5256530000000  0.4651080000000 1.0
C      1  0.5956560000000  0.5137390000000  0.5844040000000 1.0
C      1  0.4873310000000  0.4707040000000  0.6059740000000 1.0
C      1  0.4125660000000  0.3771410000000  0.4962620000000 1.0
C      1  0.4235800000000  0.5518320000000  0.4020980000000 1.0
C      1  0.5603210000000  0.4928870000000  0.6156970000000 1.0
C      1  0.4937400000000  0.5065900000000  0.3621130000000 1.0
C      1  0.4889340000000  0.5746920000000  0.6061170000000 1.0
C      1  0.4210990000000  0.5597760000000  0.4514940000000 1.0
C      1  0.4670250000000  0.4500710000000  0.6158760000000 1.0
C      1  0.4701510000000  0.4023980000000  0.4750030000000 1.0
C      1  0.3587540000000  0.5067250000000  0.4460270000000 1.0
C      1  0.4419630000000  0.5829750000000  0.5311410000000 1.0
C      1  0.4446190000000  0.5109710000000  0.6098300000000 1.0
C      1  0.5235720000000  0.6081600000000  0.5520100000000 1.0
C      1  0.6151460000000  0.5141170000000  0.5262950000000 1.0
C      1  0.4402420000000  0.4625130000000  0.6164500000000 1.0
C      1  0.4604870000000  0.5758550000000  0.4316210000000 1.0
C      1  0.4425050000000  0.5157750000000  0.5629340000000 1.0
C      1  0.4400800000000  0.3879490000000  0.4405210000000 1.0
C      1  0.5309450000000  0.5382820000000  0.5811370000000 1.0
C      1  0.4424740000000  0.5151820000000  0.4556360000000 1.0
C      1  0.4898060000000  0.5385220000000  0.4927700000000 1.0
C      1  0.4516830000000  0.4722440000000  0.4868400000000 1.0
C      1  0.5358880000000  0.4872280000000  0.6000840000000 1.0
C      1  0.5871830000000  0.4304710000000  0.4123780000000 1.0
C      1  0.4170640000000  0.5049170000000  0.5535250000000 1.0
C      1  0.4067980000000  0.5291500000000  0.4082390000000 1.0
C      1  0.5228500000000  0.5708550000000  0.5135410000000 1.0
C      1  0.5667900000000  0.5546090000000  0.5136210000000 1.0
C      1  0.5650040000000  0.5492410000000  0.4565750000000 1.0
C      1  0.5084260000000  0.4895660000000  0.6109150000000 1.0
C      1  0.4202150000000  0.4893600000000  0.5276840000000 1.0
C      1  0.4649790000000  0.4761630000000  0.4429910000000 1.0
C      1  0.5544180000000  0.5274020000000  0.3857010000000 1.0
C      1  0.4699950000000  0.6008820000000  0.4426110000000 1.0
C      1  0.4631760000000  0.4499730000000  0.4333650000000 1.0
C      1  0.5706440000000  0.5294880000000  0.5252400000000 1.0
C      1  0.4400040000000  0.3964640000000  0.5755600000000 1.0
C      1  0.4773820000000  0.5522190000000  0.4429220000000 1.0
C      1  0.5189400000000  0.5377270000000  0.5553890000000 1.0
C      1  0.3996110000000  0.4856580000000  0.4318870000000 1.0
C      1  0.4965240000000  0.3659800000000  0.5224120000000 1.0
C      1  0.4949100000000  0.5140860000000  0.6180500000000 1.0
C      1  0.3965190000000  0.4724110000000  0.5280240000000 1.0
C      1  0.5013970000000  0.4810400000000  0.3747680000000 1.0
C      1  0.4862820000000  0.4413770000000  0.4170530000000 1.0
C      1  0.3864280000000  0.4685810000000  0.5010860000000 1.0
C      1  0.5501720000000  0.4151390000000  0.4403080000000 1.0
C      1  0.3894840000000  0.4431810000000  0.4897170000000 1.0
C      1  0.5270790000000  0.4714840000000  0.4225420000000 1.0
C      1  0.4684520000000  0.4485050000000  0.5714970000000 1.0
C      1  0.5500510000000  0.4464970000000  0.5020400000000 1.0
C      1  0.4127620000000  0.5305790000000  0.4893360000000 1.0
C      1  0.5806710000000  0.5760690000000  0.5270180000000 1.0
C      1  0.4332120000000  0.5663130000000  0.4255850000000 1.0
C      1  0.4042930000000  0.4222490000000  0.4828100000000 1.0
C      1  0.5131010000000  0.3912300000000  0.5768650000000 1.0
C      1  0.5758620000000  0.5580730000000  0.5730540000000 1.0
C      1  0.4406630000000  0.4826970000000  0.5102570000000 1.0
C      1  0.6025920000000  0.4867670000000  0.5746740000000 1.0
C      1  0.4544680000000  0.3831390000000  0.5335140000000 1.0
C      1  0.4636850000000  0.5080890000000  0.3584320000000 1.0
C      1  0.6088250000000  0.5320350000000  0.4589240000000 1.0
C      1  0.5449490000000  0.4937930000000  0.5488300000000 1.0
C      1  0.4948190000000  0.3653250000000  0.4953920000000 1.0
C      1  0.5823990000000  0.4531240000000  0.5489530000000 1.0
C      1  0.5587270000000  0.4527170000000  0.4751120000000 1.0
C      1  0.5668120000000  0.4293550000000  0.4600300000000 1.0
C      1  0.5880290000000  0.4661400000000  0.5917130000000 1.0
C      1  0.5093690000000  0.5169700000000  0.4858210000000 1.0
C      1  0.5496470000000  0.5101410000000  0.5258800000000 1.0
C      1  0.4473960000000  0.4873650000000  0.4623960000000 1.0
C      1  0.4289500000000  0.4857370000000  0.6019430000000 1.0
C      1  0.5455490000000  0.5639460000000  0.4713130000000 1.0
C      1  0.4742980000000  0.4414280000000  0.3897810000000 1.0
C      1  0.5029210000000  0.5285610000000  0.3779400000000 1.0
C      1  0.5572400000000  0.4796000000000  0.4649030000000 1.0
C      1  0.4132550000000  0.5529340000000  0.5541450000000 1.0
C      1  0.4387630000000  0.5439620000000  0.5660050000000 1.0
C      1  0.5218710000000  0.4801190000000  0.3951910000000 1.0
C      1  0.3991510000000  0.4620590000000  0.5561820000000 1.0
C      1  0.5314560000000  0.4118100000000  0.5723820000000 1.0
C      1  0.6072560000000  0.4875100000000  0.5192390000000 1.0
C      1  0.5225160000000  0.4329340000000  0.5560240000000 1.0
C      1  0.5284540000000  0.5844140000000  0.4607240000000 1.0
C      1  0.4538850000000  0.4864470000000  0.3770720000000 1.0
C      1  0.4884820000000  0.4920660000000  0.4420100000000 1.0
C      1  0.6152970000000  0.4552720000000  0.4490830000000 1.0
C      1  0.4212620000000  0.5327490000000  0.4625530000000 1.0
C      1  0.3815480000000  0.5244170000000  0.5243840000000 1.0
C      1  0.5781820000000  0.4698600000000  0.6182590000000 1.0
C      1  0.4754820000000  0.4545390000000  0.4857220000000 1.0
C      1  0.4389550000000  0.4014190000000  0.5473610000000 1.0
C      1  0.4633570000000  0.4982320000000  0.5692690000000 1.0
C      1  0.5535980000000  0.5506250000000  0.5893410000000 1.0
C      1  0.4514550000000  0.5620390000000  0.5119060000000 1.0
C      1  0.4564740000000  0.6041040000000  0.5420750000000 1.0
C      1  0.4616880000000  0.5191660000000  0.4105610000000 1.0
C      1  0.5952370000000  0.5286700000000  0.5393950000000 1.0
C      1  0.5936020000000  0.5359420000000  0.5666090000000 1.0
C      1  0.5204070000000  0.6448350000000  0.5184980000000 1.0
C      1  0.5111460000000  0.4214980000000  0.4930610000000 1.0
C      1  0.5401720000000  0.5846510000000  0.5534420000000 1.0
C      1  0.4686660000000  0.4298540000000  0.5937430000000 1.0
C      1  0.4150430000000  0.4390830000000  0.5531200000000 1.0
C      1  0.5273070000000  0.5305160000000  0.3923400000000 1.0
C      1  0.5766460000000  0.5656180000000  0.4362420000000 1.0
C      1  0.5228830000000  0.4421040000000  0.5087920000000 1.0
C      1  0.4427720000000  0.4985220000000  0.4012500000000 1.0
C      1  0.5052150000000  0.5539820000000  0.4317790000000 1.0
C      1  0.4871380000000  0.6089880000000  0.4624350000000 1.0
C      1  0.4804800000000  0.3767850000000  0.5430340000000 1.0
C      1  0.6015000000000  0.4749450000000  0.5455600000000 1.0
C      1  0.5668660000000  0.4586030000000  0.5726840000000 1.0
C      1  0.5980470000000  0.6202850000000  0.4738470000000 1.0
C      1  0.6214940000000  0.5488990000000  0.4777370000000 1.0
C      1  0.5867630000000  0.5903800000000  0.4342870000000 1.0
C      1  0.5994050000000  0.4844100000000  0.4907280000000 1.0
C      1  0.5689360000000  0.5788240000000  0.5535950000000 1.0
C      1  0.5212580000000  0.6700140000000  0.5118410000000 1.0
C      1  0.5783080000000  0.4013030000000  0.5961010000000 1.0
C      1  0.4355550000000  0.5497640000000  0.3759330000000 1.0
C      1  0.3847500000000  0.4921520000000  0.4837900000000 1.0
C      1  0.5801810000000  0.5246120000000  0.3927230000000 1.0
C      1  0.4205560000000  0.3994890000000  0.4825280000000 1.0
C      1  0.4987480000000  0.4708850000000  0.4814660000000 1.0
C      1  0.5639420000000  0.4236970000000  0.5141070000000 1.0
C      1  0.5124020000000  0.4468460000000  0.4252460000000 1.0
C      1  0.4475700000000  0.4306810000000  0.3943480000000 1.0
C      1  0.5191980000000  0.6177990000000  0.5248850000000 1.0
C      1  0.5243100000000  0.5625460000000  0.5410760000000 1.0
C      1  0.5076370000000  0.3825660000000  0.4503580000000 1.0
C      1  0.4277140000000  0.5783280000000  0.4726160000000 1.0
C      1  0.6142540000000  0.4671140000000  0.4732680000000 1.0
C      1  0.4760230000000  0.4667860000000  0.3775980000000 1.0
C      1  0.4874680000000  0.4618580000000  0.5339870000000 1.0
C      1  0.6057570000000  0.4439310000000  0.4266160000000 1.0
C      1  0.4828990000000  0.4259940000000  0.4853680000000 1.0
C      1  0.5589240000000  0.4021410000000  0.4957700000000 1.0
C      1  0.4759300000000  0.6143590000000  0.5571940000000 1.0
C      1  0.4797500000000  0.5340330000000  0.3943400000000 1.0
C      1  0.4640760000000  0.5549430000000  0.5705490000000 1.0
C      1  0.5008820000000  0.6094960000000  0.5696290000000 1.0
C      1  0.4734540000000  0.5527530000000  0.5974840000000 1.0
C      1  0.4700070000000  0.5269980000000  0.6108760000000 1.0
C      1  0.5444480000000  0.5608100000000  0.4986110000000 1.0
C      1  0.3982980000000  0.5285330000000  0.5472900000000 1.0
C      1  0.5104070000000  0.6003130000000  0.4769580000000 1.0
C      1  0.5566330000000  0.4093310000000  0.5840250000000 1.0
C      1  0.4071070000000  0.5880360000000  0.4898800000000 1.0
C      1  0.4435890000000  0.3980850000000  0.4658720000000 1.0
C      1  0.3983790000000  0.5848520000000  0.5156150000000 1.0
C      1  0.4481030000000  0.5323780000000  0.3588340000000 1.0
C      1  0.4885330000000  0.3799140000000  0.4717580000000 1.0
C      1  0.3960360000000  0.4591580000000  0.4245810000000 1.0
C      1  0.5789540000000  0.4075010000000  0.4753140000000 1.0
C      1  0.5001210000000  0.5963440000000  0.5946250000000 1.0
C      1  0.6020220000000  0.5241710000000  0.4083360000000 1.0
C      1  0.4392520000000  0.4295960000000  0.5414640000000 1.0
C      1  0.4660910000000  0.4022040000000  0.5858000000000 1.0
C      1  0.4311780000000  0.5399990000000  0.5083440000000 1.0
C      1  0.5116130000000  0.4463940000000  0.5338510000000 1.0
C      1  0.5038790000000  0.5141520000000  0.5461180000000 1.0
C      1  0.5837470000000  0.4557130000000  0.6406410000000 1.0
C      1  0.6150610000000  0.5271390000000  0.4317530000000 1.0
C      1  0.5810140000000  0.4294760000000  0.5348140000000 1.0
C      1  0.4762300000000  0.5556020000000  0.4727840000000 1.0
C      1  0.4539340000000  0.5718040000000  0.4836070000000 1.0
END
