TITL C-612603-7354-339 -0.000280995824250732 125000 -663.995343696102 0 0 108 (C1) n - 1
REM
REM in /home/nfs/bkarasulu/CARBON/AIRSS/Generating-Clusters/TERSOFF/Only-C1/FIRE-HFTN
REM
REM
REM
REM
REM
REM ./C.cell (11c1c37f851c82e70ff6c80c92926a4b)
REM AIRSS Version 0.9.1 bugfix July 2018 build 013d7b7c2542+ Fri, 06 Jul 2018 19:26:36 +0100
REM compiler GCC version 9.2.1 20190827 (Red Hat 9.2.1-1)
REM options -cpp -mtune=generic -march=x86-64 -g -O0 -fpre-include=/usr/include/finclude/math-vector-fortran.h
REM seed 918156803 292136473 -1999574870 842029129 -68082419 1942316605 89224376 265065710 -306946196 1282737408 939807462 -1662033752 1877267221 1964454645 -1471011218 461191978 159436229 -1378968486 -628821089 228970859 2016602640 934584879 -1219391651 1014909600 110243311 -1078332852 1463036356 -290783937 -1816586453 1963068289 -1966436548 2008644275 1639347587
REM
CELL 1.54180   50.00000   50.00000   50.00000   90.00000   90.00000   90.00000
LATT -1
SFAC C  
C      1  0.4019420000000  0.5102910000000  0.5100980000000 1.0
C      1  0.5241780000000  0.4951310000000  0.4705410000000 1.0
C      1  0.4696420000000  0.4468270000000  0.4140160000000 1.0
C      1  0.5241200000000  0.4569470000000  0.4201580000000 1.0
C      1  0.4931720000000  0.4969290000000  0.4079830000000 1.0
C      1  0.4521900000000  0.4564350000000  0.5475640000000 1.0
C      1  0.5231630000000  0.5343980000000  0.5650390000000 1.0
C      1  0.5280640000000  0.4383420000000  0.5127740000000 1.0
C      1  0.5660140000000  0.5598590000000  0.5198350000000 1.0
C      1  0.4951480000000  0.4362990000000  0.4522150000000 1.0
C      1  0.5079130000000  0.5925800000000  0.5282370000000 1.0
C      1  0.5384940000000  0.4278620000000  0.5371620000000 1.0
C      1  0.5005630000000  0.5405510000000  0.5502370000000 1.0
C      1  0.5350660000000  0.5278190000000  0.4121710000000 1.0
C      1  0.5329490000000  0.5505300000000  0.4837040000000 1.0
C      1  0.5437350000000  0.4746970000000  0.4799210000000 1.0
C      1  0.5661790000000  0.4286080000000  0.5407950000000 1.0
C      1  0.4569610000000  0.4099720000000  0.5001630000000 1.0
C      1  0.5224880000000  0.5026320000000  0.4090830000000 1.0
C      1  0.5173190000000  0.5746900000000  0.4791420000000 1.0
C      1  0.4498380000000  0.5089910000000  0.4291440000000 1.0
C      1  0.4497460000000  0.4836030000000  0.5392420000000 1.0
C      1  0.4637210000000  0.5865420000000  0.5118150000000 1.0
C      1  0.5337940000000  0.4345400000000  0.4061290000000 1.0
C      1  0.5596420000000  0.5861450000000  0.5303060000000 1.0
C      1  0.5036280000000  0.4289640000000  0.5006860000000 1.0
C      1  0.5452070000000  0.5561880000000  0.5666090000000 1.0
C      1  0.4469530000000  0.5911650000000  0.5348780000000 1.0
C      1  0.5613940000000  0.4798430000000  0.4352940000000 1.0
C      1  0.5178870000000  0.5792680000000  0.6016350000000 1.0
C      1  0.4200770000000  0.4188340000000  0.5574690000000 1.0
C      1  0.4736310000000  0.4390600000000  0.5387700000000 1.0
C      1  0.4307740000000  0.4433160000000  0.5604380000000 1.0
C      1  0.4801370000000  0.4705990000000  0.4041490000000 1.0
C      1  0.4719230000000  0.5882500000000  0.4655320000000 1.0
C      1  0.4772740000000  0.4272250000000  0.5122510000000 1.0
C      1  0.5587850000000  0.4242210000000  0.4077770000000 1.0
C      1  0.5602640000000  0.5526410000000  0.4930460000000 1.0
C      1  0.5647950000000  0.5434120000000  0.5447470000000 1.0
C      1  0.4481300000000  0.4077330000000  0.4725040000000 1.0
C      1  0.6089250000000  0.5040500000000  0.4951340000000 1.0
C      1  0.5264890000000  0.5131940000000  0.5836870000000 1.0
C      1  0.4776440000000  0.5238030000000  0.5424370000000 1.0
C      1  0.5889750000000  0.4411600000000  0.5350460000000 1.0
C      1  0.5004910000000  0.5654090000000  0.5349900000000 1.0
C      1  0.5483280000000  0.4734230000000  0.6414430000000 1.0
C      1  0.4923390000000  0.5864760000000  0.5968600000000 1.0
C      1  0.4783610000000  0.5999130000000  0.4913640000000 1.0
C      1  0.4647310000000  0.4036080000000  0.4492360000000 1.0
C      1  0.4235830000000  0.5330010000000  0.4618570000000 1.0
C      1  0.4732160000000  0.4280860000000  0.4358900000000 1.0
C      1  0.4721510000000  0.4926640000000  0.4964130000000 1.0
C      1  0.5411680000000  0.5632440000000  0.5965190000000 1.0
C      1  0.6102060000000  0.4817470000000  0.5095560000000 1.0
C      1  0.3982470000000  0.5370770000000  0.5107790000000 1.0
C      1  0.5262640000000  0.5231510000000  0.4765200000000 1.0
C      1  0.4707810000000  0.5355810000000  0.5166410000000 1.0
C      1  0.5397400000000  0.5152190000000  0.6087320000000 1.0
C      1  0.5064120000000  0.4225460000000  0.4736440000000 1.0
C      1  0.4347590000000  0.5260910000000  0.5619060000000 1.0
C      1  0.4252680000000  0.3988910000000  0.5402590000000 1.0
C      1  0.5543800000000  0.5404620000000  0.4260140000000 1.0
C      1  0.5471090000000  0.5850170000000  0.5549510000000 1.0
C      1  0.5074720000000  0.4590470000000  0.4430130000000 1.0
C      1  0.5479250000000  0.5418970000000  0.6141700000000 1.0
C      1  0.4913950000000  0.6110540000000  0.5431250000000 1.0
C      1  0.5391790000000  0.4807390000000  0.4171460000000 1.0
C      1  0.4307580000000  0.5306110000000  0.4336140000000 1.0
C      1  0.4461500000000  0.5760380000000  0.4657100000000 1.0
C      1  0.4811430000000  0.5337160000000  0.4679740000000 1.0
C      1  0.4764810000000  0.5158630000000  0.4217350000000 1.0
C      1  0.4979500000000  0.5780990000000  0.4570780000000 1.0
C      1  0.5363010000000  0.4648250000000  0.5057060000000 1.0
C      1  0.4462150000000  0.4869900000000  0.5108810000000 1.0
C      1  0.4210610000000  0.4105680000000  0.4678330000000 1.0
C      1  0.5754610000000  0.4276240000000  0.4289340000000 1.0
C      1  0.5992470000000  0.5252900000000  0.4823830000000 1.0
C      1  0.5108490000000  0.3810460000000  0.4541220000000 1.0
C      1  0.4708010000000  0.5931710000000  0.5818590000000 1.0
C      1  0.4840410000000  0.3822770000000  0.4482380000000 1.0
C      1  0.4231490000000  0.4967310000000  0.4974530000000 1.0
C      1  0.4258980000000  0.5505210000000  0.5540700000000 1.0
C      1  0.5658730000000  0.4345340000000  0.4550060000000 1.0
C      1  0.5605340000000  0.4631920000000  0.4593960000000 1.0
C      1  0.5714020000000  0.5442340000000  0.4464450000000 1.0
C      1  0.5010840000000  0.4821580000000  0.4582840000000 1.0
C      1  0.4770360000000  0.5622100000000  0.5178850000000 1.0
C      1  0.5441820000000  0.4938030000000  0.6257370000000 1.0
C      1  0.4932260000000  0.4313550000000  0.5577530000000 1.0
C      1  0.5516400000000  0.4126650000000  0.4667610000000 1.0
C      1  0.5790250000000  0.5425920000000  0.4737590000000 1.0
C      1  0.4660960000000  0.6019370000000  0.5552110000000 1.0
C      1  0.4283770000000  0.5051410000000  0.4709360000000 1.0
C      1  0.4949460000000  0.4866790000000  0.5142230000000 1.0
C      1  0.4870450000000  0.5330290000000  0.4416070000000 1.0
C      1  0.5192800000000  0.4247010000000  0.5574540000000 1.0
C      1  0.6037350000000  0.4601040000000  0.5235870000000 1.0
C      1  0.5207870000000  0.4834980000000  0.5202020000000 1.0
C      1  0.4555950000000  0.5087220000000  0.5529600000000 1.0
C      1  0.4409850000000  0.3956960000000  0.5188160000000 1.0
C      1  0.4280030000000  0.5572580000000  0.4779840000000 1.0
C      1  0.5252450000000  0.4025070000000  0.4661610000000 1.0
C      1  0.4490950000000  0.4923410000000  0.4537660000000 1.0
C      1  0.4172450000000  0.5582940000000  0.5061790000000 1.0
C      1  0.4736960000000  0.5225050000000  0.4926360000000 1.0
C      1  0.5073970000000  0.5951350000000  0.4990490000000 1.0
C      1  0.4735530000000  0.4842780000000  0.4675320000000 1.0
C      1  0.4269730000000  0.5695720000000  0.5324940000000 1.0
END
