TITL C-612605-9286-654 0.000266665918743305 125000 -550.321607565694 0 0 92 (C1) n - 1
REM
REM in /home/nfs/bkarasulu/CARBON/AIRSS/Generating-Clusters/TERSOFF/Only-C1/FIRE-HFTN
REM
REM
REM
REM
REM
REM ./C.cell (11c1c37f851c82e70ff6c80c92926a4b)
REM AIRSS Version 0.9.1 bugfix July 2018 build 013d7b7c2542+ Fri, 06 Jul 2018 19:26:36 +0100
REM compiler GCC version 9.2.1 20190827 (Red Hat 9.2.1-1)
REM options -cpp -mtune=generic -march=x86-64 -g -O0 -fpre-include=/usr/include/finclude/math-vector-fortran.h
REM seed 1462224087 -252457461 1968148856 -546573296 -1820133314 -136764979 2049417484 676998557 192227618 197518419 659775495 -546328387 855147020 643958253 1025636613 419728965 -2082298647 -110655811 -1849982336 -405507109 382240764 1857118573 1369915172 -1130270962 1298972706 1976697961 -21419990 -1828096541 -626321174 -869959475 -1096166022 -509409960 727140445
REM
CELL 1.54180   50.00000   50.00000   50.00000   90.00000   90.00000   90.00000
LATT -1
SFAC C  
C      1  0.3972390000000  0.4945680000000  0.5532200000000 1.0
C      1  0.4766640000000  0.4689030000000  0.4214080000000 1.0
C      1  0.5870840000000  0.4807130000000  0.4926330000000 1.0
C      1  0.5326320000000  0.4428150000000  0.5150790000000 1.0
C      1  0.4643810000000  0.5418130000000  0.4189180000000 1.0
C      1  0.4863560000000  0.4262360000000  0.5291650000000 1.0
C      1  0.4758360000000  0.4153320000000  0.5057830000000 1.0
C      1  0.4295530000000  0.4621350000000  0.5507500000000 1.0
C      1  0.5287050000000  0.5776190000000  0.4619570000000 1.0
C      1  0.5768900000000  0.4261310000000  0.5290850000000 1.0
C      1  0.4565200000000  0.4550430000000  0.5521570000000 1.0
C      1  0.5356080000000  0.5760060000000  0.5149680000000 1.0
C      1  0.5595260000000  0.4524890000000  0.5747410000000 1.0
C      1  0.5375030000000  0.4401430000000  0.5839710000000 1.0
C      1  0.4455100000000  0.5497000000000  0.4365860000000 1.0
C      1  0.4714450000000  0.4451660000000  0.4373250000000 1.0
C      1  0.3930720000000  0.4801400000000  0.5298970000000 1.0
C      1  0.4950300000000  0.4867260000000  0.4738940000000 1.0
C      1  0.5212880000000  0.4792700000000  0.4632450000000 1.0
C      1  0.5232510000000  0.4346200000000  0.4345430000000 1.0
C      1  0.4882150000000  0.5230180000000  0.5760150000000 1.0
C      1  0.5083250000000  0.4446980000000  0.5291950000000 1.0
C      1  0.4687750000000  0.5017060000000  0.5691670000000 1.0
C      1  0.4396300000000  0.5709240000000  0.4843590000000 1.0
C      1  0.5269360000000  0.4894560000000  0.4120930000000 1.0
C      1  0.4915070000000  0.5767450000000  0.5378260000000 1.0
C      1  0.4487990000000  0.4704300000000  0.4857920000000 1.0
C      1  0.5663030000000  0.5415470000000  0.4566500000000 1.0
C      1  0.4679210000000  0.5803120000000  0.5253050000000 1.0
C      1  0.5281670000000  0.5033870000000  0.5679950000000 1.0
C      1  0.5328700000000  0.5502250000000  0.5594290000000 1.0
C      1  0.5748140000000  0.5613150000000  0.5319230000000 1.0
C      1  0.5764210000000  0.4941260000000  0.5545730000000 1.0
C      1  0.4716630000000  0.4307920000000  0.5537330000000 1.0
C      1  0.4484360000000  0.5660140000000  0.5108130000000 1.0
C      1  0.5424810000000  0.4652940000000  0.5011410000000 1.0
C      1  0.5339740000000  0.5287430000000  0.5054760000000 1.0
C      1  0.5448820000000  0.5969220000000  0.4548940000000 1.0
C      1  0.5174860000000  0.4920620000000  0.5446170000000 1.0
C      1  0.4085300000000  0.4948420000000  0.4325740000000 1.0
C      1  0.4217420000000  0.4862850000000  0.5662190000000 1.0
C      1  0.5624400000000  0.5677940000000  0.5064520000000 1.0
C      1  0.5172370000000  0.5293400000000  0.5739040000000 1.0
C      1  0.5071710000000  0.4165460000000  0.4483720000000 1.0
C      1  0.5553410000000  0.5118660000000  0.5138000000000 1.0
C      1  0.4290130000000  0.4579190000000  0.5014010000000 1.0
C      1  0.5692670000000  0.5563560000000  0.4802060000000 1.0
C      1  0.5125210000000  0.4303190000000  0.5857890000000 1.0
C      1  0.4557320000000  0.5166120000000  0.5084560000000 1.0
C      1  0.4832250000000  0.5934820000000  0.4288900000000 1.0
C      1  0.4737490000000  0.4790070000000  0.5474710000000 1.0
C      1  0.5885060000000  0.4514140000000  0.5345770000000 1.0
C      1  0.5321700000000  0.5168500000000  0.4199790000000 1.0
C      1  0.4147820000000  0.4614530000000  0.5252860000000 1.0
C      1  0.4413000000000  0.4926930000000  0.4683380000000 1.0
C      1  0.4343160000000  0.4918520000000  0.4409750000000 1.0
C      1  0.5035360000000  0.5647790000000  0.4633910000000 1.0
C      1  0.4372110000000  0.5619930000000  0.4590580000000 1.0
C      1  0.4766330000000  0.4763370000000  0.4953870000000 1.0
C      1  0.5025140000000  0.5364260000000  0.4688000000000 1.0
C      1  0.5166920000000  0.5615960000000  0.5351400000000 1.0
C      1  0.4748690000000  0.4960450000000  0.5206310000000 1.0
C      1  0.5031210000000  0.4707840000000  0.4085450000000 1.0
C      1  0.5121450000000  0.5350580000000  0.5216750000000 1.0
C      1  0.5610780000000  0.5430090000000  0.5498700000000 1.0
C      1  0.5768600000000  0.4659380000000  0.5566800000000 1.0
C      1  0.4566770000000  0.5148340000000  0.4791760000000 1.0
C      1  0.5514970000000  0.4225060000000  0.5205350000000 1.0
C      1  0.4354770000000  0.5155470000000  0.6030470000000 1.0
C      1  0.5588760000000  0.4901560000000  0.4925300000000 1.0
C      1  0.4836960000000  0.5825840000000  0.4538080000000 1.0
C      1  0.5342500000000  0.4581660000000  0.4470660000000 1.0
C      1  0.4416640000000  0.5014370000000  0.5798000000000 1.0
C      1  0.5986970000000  0.4658220000000  0.5122480000000 1.0
C      1  0.4806320000000  0.4244130000000  0.4544480000000 1.0
C      1  0.5135350000000  0.5360950000000  0.4108800000000 1.0
C      1  0.4297770000000  0.5289940000000  0.6246290000000 1.0
C      1  0.4873830000000  0.4256430000000  0.5770040000000 1.0
C      1  0.5415920000000  0.5024860000000  0.4673200000000 1.0
C      1  0.4902740000000  0.5791040000000  0.4068850000000 1.0
C      1  0.5011080000000  0.5100830000000  0.5276800000000 1.0
C      1  0.4709650000000  0.4168380000000  0.4795550000000 1.0
C      1  0.5469760000000  0.4724280000000  0.4250000000000 1.0
C      1  0.5028890000000  0.4677980000000  0.5453920000000 1.0
C      1  0.4445260000000  0.5394390000000  0.5197370000000 1.0
C      1  0.4893990000000  0.5506430000000  0.4084960000000 1.0
C      1  0.5657080000000  0.5157690000000  0.5402910000000 1.0
C      1  0.5516570000000  0.5191610000000  0.4429490000000 1.0
C      1  0.4555250000000  0.4873050000000  0.4226620000000 1.0
C      1  0.5262550000000  0.5250260000000  0.4795720000000 1.0
C      1  0.4837190000000  0.5147310000000  0.4687630000000 1.0
C      1  0.5138420000000  0.4431120000000  0.4083450000000 1.0
END
