TITL C-612605-9286-1054 2215.74947288065 125000 -1107.58197497159 0 0 182 (C1) n - 1
REM
REM in /home/nfs/bkarasulu/CARBON/AIRSS/Generating-Clusters/TERSOFF/Only-C1/FIRE-HFTN
REM
REM
REM
REM
REM
REM ./C.cell (11c1c37f851c82e70ff6c80c92926a4b)
REM AIRSS Version 0.9.1 bugfix July 2018 build 013d7b7c2542+ Fri, 06 Jul 2018 19:26:36 +0100
REM compiler GCC version 9.2.1 20190827 (Red Hat 9.2.1-1)
REM options -cpp -mtune=generic -march=x86-64 -g -O0 -fpre-include=/usr/include/finclude/math-vector-fortran.h
REM seed -893670921 -1349644603 -1833817295 -1838121302 -211108933 -357409119 1728702357 431771087 1526510539 -2124913544 18856584 648977002 310733669 324445246 1325577541 -1416784554 1315269504 1609459613 993932366 1482172072 451791968 659049785 -1625678692 -1636396157 -264829199 -1879329573 662435635 105387808 -1745649857 2029515952 -62288301 -2041852823 1019474150
REM
CELL 1.54180   50.00000   50.00000   50.00000   90.00000   90.00000   90.00000
LATT -1
SFAC C  
C      1  0.4816450000000  0.5768690000000  0.5038550000000 1.0
C      1  0.3882650000000  0.4614730000000  0.4589790000000 1.0
C      1  0.5330640000000  0.4255270000000  0.4310540000000 1.0
C      1  0.4907040000000  0.4032050000000  0.4195910000000 1.0
C      1  0.4650870000000  0.6066650000000  0.4504890000000 1.0
C      1  0.4342730000000  0.5905800000000  0.5384240000000 1.0
C      1  0.4792750000000  0.4912460000000  0.4023710000000 1.0
C      1  0.5474680000000  0.5950660000000  0.5666120000000 1.0
C      1  0.5150620000000  0.6111900000000  0.4548190000000 1.0
C      1  0.5313700000000  0.5001430000000  0.4206340000000 1.0
C      1  0.5519110000000  0.5026270000000  0.4395570000000 1.0
C      1  0.4852020000000  0.5336140000000  0.4676770000000 1.0
C      1  0.4588740000000  0.4438550000000  0.4824550000000 1.0
C      1  0.4789690000000  0.6130220000000  0.5458920000000 1.0
C      1  0.5964600000000  0.4995450000000  0.4401210000000 1.0
C      1  0.4278780000000  0.5436020000000  0.5375210000000 1.0
C      1  0.5907450000000  0.4870430000000  0.5194050000000 1.0
C      1  0.4327670000000  0.4115340000000  0.4525250000000 1.0
C      1  0.5094370000000  0.4369960000000  0.3875200000000 1.0
C      1  0.5476030000000  0.5240140000000  0.4796220000000 1.0
C      1  0.4151230000000  0.5372960000000  0.4270650000000 1.0
C      1  0.4834160000000  0.4376540000000  0.3748140000000 1.0
C      1  0.4625210000000  0.4276960000000  0.5687300000000 1.0
C      1  0.4385720000000  0.4278110000000  0.5505470000000 1.0
C      1  0.4434910000000  0.5102640000000  0.4722430000000 1.0
C      1  0.5293830000000  0.4892720000000  0.3928630000000 1.0
C      1  0.5685830000000  0.5349300000000  0.4089130000000 1.0
C      1  0.5685380000000  0.4984990000000  0.6187390000000 1.0
C      1  0.4549120000000  0.4856340000000  0.4644940000000 1.0
C      1  0.4865080000000  0.4999580000000  0.3755360000000 1.0
C      1  0.5082110000000  0.4624790000000  0.4342190000000 1.0
C      1  0.5513580000000  0.4974590000000  0.4683710000000 1.0
C      1  0.4214700000000  0.5598200000000  0.4407580000000 1.0
C      1  0.5420610000000  0.4256960000000  0.5913270000000 1.0
C      1  0.5235990000000  0.4457320000000  0.5004790000000 1.0
C      1  0.4424970000000  0.4658980000000  0.5247880000000 1.0
C      1  0.5192010000000  0.5949490000000  0.5638590000000 1.0
C      1  0.4572010000000  0.3959950000000  0.4584630000000 1.0
C      1  0.6070770000000  0.4997310000000  0.4675510000000 1.0
C      1  0.5224650000000  0.5125160000000  0.5574610000000 1.0
C      1  0.5568970000000  0.4482000000000  0.5470880000000 1.0
C      1  0.5305800000000  0.3957920000000  0.4699320000000 1.0
C      1  0.4138180000000  0.5689940000000  0.5311570000000 1.0
C      1  0.5210990000000  0.6227860000000  0.5194330000000 1.0
C      1  0.3863640000000  0.5089150000000  0.4530610000000 1.0
C      1  0.4984360000000  0.5525300000000  0.3929730000000 1.0
C      1  0.4268080000000  0.4853890000000  0.3867340000000 1.0
C      1  0.4886510000000  0.4673590000000  0.4138740000000 1.0
C      1  0.4836860000000  0.4797930000000  0.5449080000000 1.0
C      1  0.4310500000000  0.5704330000000  0.4653240000000 1.0
C      1  0.4996960000000  0.4788860000000  0.6144200000000 1.0
C      1  0.5897720000000  0.5043790000000  0.6039190000000 1.0
C      1  0.5204690000000  0.5364820000000  0.3837100000000 1.0
C      1  0.4538060000000  0.4446220000000  0.5906720000000 1.0
C      1  0.5196340000000  0.5524380000000  0.5938260000000 1.0
C      1  0.5135160000000  0.5282650000000  0.6092570000000 1.0
C      1  0.5056840000000  0.3856580000000  0.4607700000000 1.0
C      1  0.5385570000000  0.4214380000000  0.4595000000000 1.0
C      1  0.4394460000000  0.5396350000000  0.5085970000000 1.0
C      1  0.6124730000000  0.5055720000000  0.5875650000000 1.0
C      1  0.4062510000000  0.5103210000000  0.4306840000000 1.0
C      1  0.4243500000000  0.5558000000000  0.4890940000000 1.0
C      1  0.5424830000000  0.5596070000000  0.5111610000000 1.0
C      1  0.4158170000000  0.4970570000000  0.5836610000000 1.0
C      1  0.5124670000000  0.4315390000000  0.5917690000000 1.0
C      1  0.5436890000000  0.4873110000000  0.6245310000000 1.0
C      1  0.5475160000000  0.5414890000000  0.3927370000000 1.0
C      1  0.5030970000000  0.5740140000000  0.5788080000000 1.0
C      1  0.4975760000000  0.4769280000000  0.5682940000000 1.0
C      1  0.5580400000000  0.4709460000000  0.4821120000000 1.0
C      1  0.5404600000000  0.6113790000000  0.5004410000000 1.0
C      1  0.4817060000000  0.5568300000000  0.4160420000000 1.0
C      1  0.4418360000000  0.4614050000000  0.4684230000000 1.0
C      1  0.5010380000000  0.4296330000000  0.4965320000000 1.0
C      1  0.3843170000000  0.4698380000000  0.5071240000000 1.0
C      1  0.4171370000000  0.4849730000000  0.4143800000000 1.0
C      1  0.5450050000000  0.3866300000000  0.4922030000000 1.0
C      1  0.5868250000000  0.5671260000000  0.5587140000000 1.0
C      1  0.5891560000000  0.5891240000000  0.5101240000000 1.0
C      1  0.4828490000000  0.3933660000000  0.4448760000000 1.0
C      1  0.6098320000000  0.5093400000000  0.5594120000000 1.0
C      1  0.4816040000000  0.5119970000000  0.4203600000000 1.0
C      1  0.6016720000000  0.5211940000000  0.4883230000000 1.0
C      1  0.4736580000000  0.5741460000000  0.5733320000000 1.0
C      1  0.5420690000000  0.4457690000000  0.4779110000000 1.0
C      1  0.5639360000000  0.4613920000000  0.4258120000000 1.0
C      1  0.4414900000000  0.6052450000000  0.5146890000000 1.0
C      1  0.4570660000000  0.4725490000000  0.5907680000000 1.0
C      1  0.4214970000000  0.4565990000000  0.4229390000000 1.0
C      1  0.4916110000000  0.6002690000000  0.4420410000000 1.0
C      1  0.6098090000000  0.5354030000000  0.5491950000000 1.0
C      1  0.4996360000000  0.5751570000000  0.4824090000000 1.0
C      1  0.5062080000000  0.4109940000000  0.5420970000000 1.0
C      1  0.3980460000000  0.5523050000000  0.4975790000000 1.0
C      1  0.5395460000000  0.4585490000000  0.6253350000000 1.0
C      1  0.4222450000000  0.4475300000000  0.5347240000000 1.0
C      1  0.5073470000000  0.6109820000000  0.5427330000000 1.0
C      1  0.5363640000000  0.4540870000000  0.4291370000000 1.0
C      1  0.4719440000000  0.3930350000000  0.5085220000000 1.0
C      1  0.5973290000000  0.4239520000000  0.4917860000000 1.0
C      1  0.4423670000000  0.4911720000000  0.5755300000000 1.0
C      1  0.5745090000000  0.4676630000000  0.5070600000000 1.0
C      1  0.4497620000000  0.5918210000000  0.4693270000000 1.0
C      1  0.5882930000000  0.4731150000000  0.4297830000000 1.0
C      1  0.5466850000000  0.5752680000000  0.4674590000000 1.0
C      1  0.5844310000000  0.5126280000000  0.5103750000000 1.0
C      1  0.4651940000000  0.4946480000000  0.3580740000000 1.0
C      1  0.6111450000000  0.5472810000000  0.4967210000000 1.0
C      1  0.6130380000000  0.5508960000000  0.5262030000000 1.0
C      1  0.4836890000000  0.4799990000000  0.5922500000000 1.0
C      1  0.4581220000000  0.4484160000000  0.5096920000000 1.0
C      1  0.5753540000000  0.5169310000000  0.4299320000000 1.0
C      1  0.5338850000000  0.4025770000000  0.5366690000000 1.0
C      1  0.3735760000000  0.4832470000000  0.4527750000000 1.0
C      1  0.5350900000000  0.6016190000000  0.4731130000000 1.0
C      1  0.6081450000000  0.4862090000000  0.5420660000000 1.0
C      1  0.5645320000000  0.5242590000000  0.5265960000000 1.0
C      1  0.4134030000000  0.4122240000000  0.4744820000000 1.0
C      1  0.5182640000000  0.5012420000000  0.6188550000000 1.0
C      1  0.4591820000000  0.4493370000000  0.3703810000000 1.0
C      1  0.5118840000000  0.4525730000000  0.6151200000000 1.0
C      1  0.6007070000000  0.5732710000000  0.4882450000000 1.0
C      1  0.5674830000000  0.6068600000000  0.5086080000000 1.0
C      1  0.3850110000000  0.5219690000000  0.4808820000000 1.0
C      1  0.4074200000000  0.5075210000000  0.5157650000000 1.0
C      1  0.4477750000000  0.5343830000000  0.5572130000000 1.0
C      1  0.5131340000000  0.4183480000000  0.4105240000000 1.0
C      1  0.5454330000000  0.5234020000000  0.5453480000000 1.0
C      1  0.4109160000000  0.5186370000000  0.6007780000000 1.0
C      1  0.6240000000000  0.4643550000000  0.5467360000000 1.0
C      1  0.4586730000000  0.5507760000000  0.5771200000000 1.0
C      1  0.5139780000000  0.5087740000000  0.3767260000000 1.0
C      1  0.4586610000000  0.5305640000000  0.4560040000000 1.0
C      1  0.4590770000000  0.5931890000000  0.4966140000000 1.0
C      1  0.4982240000000  0.4830080000000  0.5207880000000 1.0
C      1  0.4587400000000  0.3871190000000  0.4857960000000 1.0
C      1  0.5213860000000  0.4663090000000  0.5197760000000 1.0
C      1  0.5760250000000  0.4193900000000  0.5111330000000 1.0
C      1  0.5245880000000  0.4842710000000  0.5637230000000 1.0
C      1  0.3998880000000  0.4456120000000  0.5153410000000 1.0
C      1  0.4963560000000  0.5085190000000  0.5074260000000 1.0
C      1  0.5540870000000  0.4003080000000  0.5153570000000 1.0
C      1  0.4139820000000  0.4594980000000  0.4667310000000 1.0
C      1  0.5260660000000  0.4612250000000  0.3850220000000 1.0
C      1  0.4599720000000  0.5932710000000  0.5555190000000 1.0
C      1  0.4354040000000  0.5101020000000  0.5032640000000 1.0
C      1  0.4856610000000  0.4396940000000  0.4745690000000 1.0
C      1  0.3946910000000  0.4801000000000  0.5768100000000 1.0
C      1  0.4963090000000  0.4619830000000  0.4597960000000 1.0
C      1  0.4055290000000  0.5381500000000  0.6171920000000 1.0
C      1  0.4943760000000  0.5587690000000  0.5224900000000 1.0
C      1  0.4935790000000  0.5095570000000  0.4798090000000 1.0
C      1  0.5483340000000  0.5552240000000  0.5896110000000 1.0
C      1  0.4655360000000  0.5343930000000  0.4270870000000 1.0
C      1  0.4933800000000  0.4222260000000  0.5677530000000 1.0
C      1  0.5710800000000  0.4444440000000  0.5233820000000 1.0
C      1  0.4922580000000  0.5306910000000  0.5252200000000 1.0
C      1  0.5634800000000  0.5725700000000  0.5731970000000 1.0
C      1  0.5365770000000  0.4673080000000  0.5444440000000 1.0
C      1  0.5148950000000  0.6494590000000  0.5147480000000 1.0
C      1  0.4593410000000  0.5068020000000  0.5539950000000 1.0
C      1  0.6148270000000  0.4725240000000  0.4761460000000 1.0
C      1  0.5568540000000  0.4300680000000  0.5681020000000 1.0
C      1  0.6374410000000  0.5033920000000  0.5986290000000 1.0
C      1  0.6104840000000  0.4458910000000  0.4813770000000 1.0
C      1  0.4934990000000  0.5721200000000  0.4366310000000 1.0
C      1  0.5543070000000  0.4363570000000  0.6152330000000 1.0
C      1  0.5971340000000  0.5751480000000  0.5339500000000 1.0
C      1  0.3731120000000  0.4657170000000  0.5741920000000 1.0
C      1  0.4053920000000  0.5237740000000  0.5385420000000 1.0
C      1  0.4950710000000  0.5211250000000  0.5512740000000 1.0
C      1  0.5082250000000  0.5136780000000  0.4292170000000 1.0
C      1  0.4976160000000  0.5578250000000  0.4610620000000 1.0
C      1  0.4835990000000  0.4860750000000  0.4670610000000 1.0
C      1  0.4288060000000  0.4314470000000  0.4315830000000 1.0
C      1  0.4021320000000  0.4236520000000  0.4965180000000 1.0
C      1  0.3862140000000  0.4985360000000  0.5000000000000 1.0
C      1  0.4482650000000  0.4925630000000  0.5233920000000 1.0
C      1  0.4915840000000  0.4114720000000  0.5168660000000 1.0
C      1  0.5474520000000  0.5521520000000  0.4844270000000 1.0
C      1  0.4465830000000  0.4751950000000  0.3683050000000 1.0
C      1  0.5216310000000  0.5656360000000  0.5266060000000 1.0
END
