TITL C-612603-7354-915 206474.945059981 125000 -1205.20615639276 0 0 200 (C1) n - 1
REM
REM in /home/nfs/bkarasulu/CARBON/AIRSS/Generating-Clusters/TERSOFF/Only-C1/FIRE-HFTN
REM
REM
REM
REM
REM
REM ./C.cell (11c1c37f851c82e70ff6c80c92926a4b)
REM AIRSS Version 0.9.1 bugfix July 2018 build 013d7b7c2542+ Fri, 06 Jul 2018 19:26:36 +0100
REM compiler GCC version 9.2.1 20190827 (Red Hat 9.2.1-1)
REM options -cpp -mtune=generic -march=x86-64 -g -O0 -fpre-include=/usr/include/finclude/math-vector-fortran.h
REM seed 465424574 -1468498952 241867850 1313518385 1380593229 -80966468 1163808884 1729199567 553118526 -170988086 -1145617979 956848145 413226764 162949490 868776479 -1166565229 540530908 1307730066 1558550983 -681417529 893734252 1387318105 -1133497080 -2081526063 1078263396 -1651052818 1249475747 -1803061529 1565750905 -839158093 579030836 698895758 458124802
REM
CELL 1.54180   50.00000   50.00000   50.00000   90.00000   90.00000   90.00000
LATT -1
SFAC C  
C      1  0.4765910000000  0.4777890000000  0.4697310000000 1.0
C      1  0.3722970000000  0.4928310000000  0.5368000000000 1.0
C      1  0.5628180000000  0.5337390000000  0.4966300000000 1.0
C      1  0.5543490000000  0.5942660000000  0.5706440000000 1.0
C      1  0.4152050000000  0.5716110000000  0.5741870000000 1.0
C      1  0.4887960000000  0.4823810000000  0.6613260000000 1.0
C      1  0.5562460000000  0.4918180000000  0.4087160000000 1.0
C      1  0.4265520000000  0.4444760000000  0.4809870000000 1.0
C      1  0.4537930000000  0.5254210000000  0.4628020000000 1.0
C      1  0.5069240000000  0.4698910000000  0.4271530000000 1.0
C      1  0.4684690000000  0.4331360000000  0.5243450000000 1.0
C      1  0.4724790000000  0.5554180000000  0.4025180000000 1.0
C      1  0.3700910000000  0.4954490000000  0.5093790000000 1.0
C      1  0.5572840000000  0.4827270000000  0.5291140000000 1.0
C      1  0.4756760000000  0.4328390000000  0.4443640000000 1.0
C      1  0.4512320000000  0.6124930000000  0.4706350000000 1.0
C      1  0.4885870000000  0.5896240000000  0.4490900000000 1.0
C      1  0.5196720000000  0.5728200000000  0.5036580000000 1.0
C      1  0.4530070000000  0.4086700000000  0.4823500000000 1.0
C      1  0.5594990000000  0.5858620000000  0.4661010000000 1.0
C      1  0.4280310000000  0.4572940000000  0.5068720000000 1.0
C      1  0.4251240000000  0.4532020000000  0.5596630000000 1.0
C      1  0.4201210000000  0.5846860000000  0.4915810000000 1.0
C      1  0.4635360000000  0.5148730000000  0.5134750000000 1.0
C      1  0.6015860000000  0.5299220000000  0.4497900000000 1.0
C      1  0.4855730000000  0.5882450000000  0.5784490000000 1.0
C      1  0.4509360000000  0.5033580000000  0.5584470000000 1.0
C      1  0.5263450000000  0.4883410000000  0.4807570000000 1.0
C      1  0.5289840000000  0.4659260000000  0.6320420000000 1.0
C      1  0.5529950000000  0.4862500000000  0.4377400000000 1.0
C      1  0.4133430000000  0.4801260000000  0.5066060000000 1.0
C      1  0.5114640000000  0.4300320000000  0.4045880000000 1.0
C      1  0.5021700000000  0.3826320000000  0.5184680000000 1.0
C      1  0.4633020000000  0.6345180000000  0.5091530000000 1.0
C      1  0.5312870000000  0.5391540000000  0.4219790000000 1.0
C      1  0.5685460000000  0.5168750000000  0.4046220000000 1.0
C      1  0.5057730000000  0.5787770000000  0.5967800000000 1.0
C      1  0.5941980000000  0.4456860000000  0.5309480000000 1.0
C      1  0.5102690000000  0.5139240000000  0.5770680000000 1.0
C      1  0.5315710000000  0.5784410000000  0.3964000000000 1.0
C      1  0.5506190000000  0.4402330000000  0.4372120000000 1.0
C      1  0.6132520000000  0.4775980000000  0.4434740000000 1.0
C      1  0.5471030000000  0.5735480000000  0.5143870000000 1.0
C      1  0.5715800000000  0.4957000000000  0.4590900000000 1.0
C      1  0.5543550000000  0.6075740000000  0.5439310000000 1.0
C      1  0.4129180000000  0.4847370000000  0.5703720000000 1.0
C      1  0.5781210000000  0.5790770000000  0.5769440000000 1.0
C      1  0.4709180000000  0.5854680000000  0.5125320000000 1.0
C      1  0.5779850000000  0.4867680000000  0.5102460000000 1.0
C      1  0.5708630000000  0.5536640000000  0.5183840000000 1.0
C      1  0.4452250000000  0.5352860000000  0.5974000000000 1.0
C      1  0.5012290000000  0.4202680000000  0.4788770000000 1.0
C      1  0.3969930000000  0.4997650000000  0.5497500000000 1.0
C      1  0.5605100000000  0.5126180000000  0.5919860000000 1.0
C      1  0.4855390000000  0.4716630000000  0.4954730000000 1.0
C      1  0.4960160000000  0.5409690000000  0.3891040000000 1.0
C      1  0.4737940000000  0.5056130000000  0.4610680000000 1.0
C      1  0.5081980000000  0.5056930000000  0.5490940000000 1.0
C      1  0.4534740000000  0.4110560000000  0.5110700000000 1.0
C      1  0.4803480000000  0.3747070000000  0.4595200000000 1.0
C      1  0.5459320000000  0.5930700000000  0.4140760000000 1.0
C      1  0.5592070000000  0.4854790000000  0.6002700000000 1.0
C      1  0.5822330000000  0.5517020000000  0.5704650000000 1.0
C      1  0.4788810000000  0.5441840000000  0.5563370000000 1.0
C      1  0.5331260000000  0.4619700000000  0.4805990000000 1.0
C      1  0.4295340000000  0.5307880000000  0.4786400000000 1.0
C      1  0.4961220000000  0.5473610000000  0.5323380000000 1.0
C      1  0.4706230000000  0.4981060000000  0.3735690000000 1.0
C      1  0.4978560000000  0.3909620000000  0.5478600000000 1.0
C      1  0.5028080000000  0.4508360000000  0.5688600000000 1.0
C      1  0.3965450000000  0.5870370000000  0.5314390000000 1.0
C      1  0.3875910000000  0.5551010000000  0.4921540000000 1.0
C      1  0.5135030000000  0.5283470000000  0.4410040000000 1.0
C      1  0.4905310000000  0.4851660000000  0.5393330000000 1.0
C      1  0.3953450000000  0.5362460000000  0.5141590000000 1.0
C      1  0.4939100000000  0.4169760000000  0.4257600000000 1.0
C      1  0.4977110000000  0.6102420000000  0.4698640000000 1.0
C      1  0.4351730000000  0.6310860000000  0.5081440000000 1.0
C      1  0.4917980000000  0.5107770000000  0.4388780000000 1.0
C      1  0.4470710000000  0.5390830000000  0.4017340000000 1.0
C      1  0.5713350000000  0.4168530000000  0.5643150000000 1.0
C      1  0.4453810000000  0.5752090000000  0.5371870000000 1.0
C      1  0.4193430000000  0.4736400000000  0.4421130000000 1.0
C      1  0.5889770000000  0.4409660000000  0.5598390000000 1.0
C      1  0.4958660000000  0.3693290000000  0.4850510000000 1.0
C      1  0.4203530000000  0.5387840000000  0.4167140000000 1.0
C      1  0.5567820000000  0.5943990000000  0.4386400000000 1.0
C      1  0.5376470000000  0.4773850000000  0.3904080000000 1.0
C      1  0.4338540000000  0.5047170000000  0.5810730000000 1.0
C      1  0.5138710000000  0.4429770000000  0.4745300000000 1.0
C      1  0.5651250000000  0.5566310000000  0.4687170000000 1.0
C      1  0.6057120000000  0.4610000000000  0.4214670000000 1.0
C      1  0.4809740000000  0.5790780000000  0.4212480000000 1.0
C      1  0.5093990000000  0.5599300000000  0.4788530000000 1.0
C      1  0.5544060000000  0.4323880000000  0.5077340000000 1.0
C      1  0.4417430000000  0.5218250000000  0.5359800000000 1.0
C      1  0.5497710000000  0.6069650000000  0.4856840000000 1.0
C      1  0.4625700000000  0.4685130000000  0.3768580000000 1.0
C      1  0.3894860000000  0.3973670000000  0.5506370000000 1.0
C      1  0.5222320000000  0.4015150000000  0.5634400000000 1.0
C      1  0.5421780000000  0.4378190000000  0.5951540000000 1.0
C      1  0.4524780000000  0.5489600000000  0.5457440000000 1.0
C      1  0.4562580000000  0.4932160000000  0.4148810000000 1.0
C      1  0.5564750000000  0.4465770000000  0.4838120000000 1.0
C      1  0.4749740000000  0.5387290000000  0.6038290000000 1.0
C      1  0.4984290000000  0.5771690000000  0.5256650000000 1.0
C      1  0.4355540000000  0.4607560000000  0.4595060000000 1.0
C      1  0.3641250000000  0.3914960000000  0.5518850000000 1.0
C      1  0.4155610000000  0.4062720000000  0.5474440000000 1.0
C      1  0.4113180000000  0.5126880000000  0.4235380000000 1.0
C      1  0.4300640000000  0.4198020000000  0.4371770000000 1.0
C      1  0.4812990000000  0.5659310000000  0.4684440000000 1.0
C      1  0.5445680000000  0.4626190000000  0.6088930000000 1.0
C      1  0.4541940000000  0.5122220000000  0.3928310000000 1.0
C      1  0.6166200000000  0.5552490000000  0.4917600000000 1.0
C      1  0.4977250000000  0.4440330000000  0.5185030000000 1.0
C      1  0.5419900000000  0.3821880000000  0.4911510000000 1.0
C      1  0.6180590000000  0.4660870000000  0.4914170000000 1.0
C      1  0.4635750000000  0.4581110000000  0.4538510000000 1.0
C      1  0.3930490000000  0.5560080000000  0.4613150000000 1.0
C      1  0.5268430000000  0.3956670000000  0.5117590000000 1.0
C      1  0.4191810000000  0.5821260000000  0.5477510000000 1.0
C      1  0.3985170000000  0.5075120000000  0.4478680000000 1.0
C      1  0.5238810000000  0.3694530000000  0.4733810000000 1.0
C      1  0.4721410000000  0.3964080000000  0.5605690000000 1.0
C      1  0.5727940000000  0.5051360000000  0.4879920000000 1.0
C      1  0.5992900000000  0.4673850000000  0.5124410000000 1.0
C      1  0.4059890000000  0.5130820000000  0.4742170000000 1.0
C      1  0.4811670000000  0.4922750000000  0.5126780000000 1.0
C      1  0.4973010000000  0.3884220000000  0.4374790000000 1.0
C      1  0.5374030000000  0.5228160000000  0.5791380000000 1.0
C      1  0.3950510000000  0.5806560000000  0.5041480000000 1.0
C      1  0.4759210000000  0.4166660000000  0.4688060000000 1.0
C      1  0.4372160000000  0.5633590000000  0.5900550000000 1.0
C      1  0.5006450000000  0.5582760000000  0.6426220000000 1.0
C      1  0.6546240000000  0.4589260000000  0.4607430000000 1.0
C      1  0.5208020000000  0.5524000000000  0.3990720000000 1.0
C      1  0.4131400000000  0.5579630000000  0.4382100000000 1.0
C      1  0.4852040000000  0.4883480000000  0.4220360000000 1.0
C      1  0.5678410000000  0.5448470000000  0.5467770000000 1.0
C      1  0.5079470000000  0.4608380000000  0.5414140000000 1.0
C      1  0.4541670000000  0.4141160000000  0.5753510000000 1.0
C      1  0.4881070000000  0.5309770000000  0.5797460000000 1.0
C      1  0.4292100000000  0.4895250000000  0.4221480000000 1.0
C      1  0.5320440000000  0.5879320000000  0.5885290000000 1.0
C      1  0.3944080000000  0.4962380000000  0.4942560000000 1.0
C      1  0.5279720000000  0.4234560000000  0.5143840000000 1.0
C      1  0.6295680000000  0.5190140000000  0.6158910000000 1.0
C      1  0.5603030000000  0.4385380000000  0.4099700000000 1.0
C      1  0.4938120000000  0.5588590000000  0.6155650000000 1.0
C      1  0.5234000000000  0.3775650000000  0.4453260000000 1.0
C      1  0.5753750000000  0.4027120000000  0.5393030000000 1.0
C      1  0.5097420000000  0.4733420000000  0.6487020000000 1.0
C      1  0.5089350000000  0.5556700000000  0.6671900000000 1.0
C      1  0.4590390000000  0.5827410000000  0.5875470000000 1.0
C      1  0.5358100000000  0.4470810000000  0.3950770000000 1.0
C      1  0.4638970000000  0.4795740000000  0.5504920000000 1.0
C      1  0.5789010000000  0.4079360000000  0.4636740000000 1.0
C      1  0.5225220000000  0.5149170000000  0.4856340000000 1.0
C      1  0.5243310000000  0.6177530000000  0.4770900000000 1.0
C      1  0.4671050000000  0.4294430000000  0.5951790000000 1.0
C      1  0.4111640000000  0.5211330000000  0.5337720000000 1.0
C      1  0.4958160000000  0.5922470000000  0.5519280000000 1.0
C      1  0.5539980000000  0.6015830000000  0.5148590000000 1.0
C      1  0.4279870000000  0.6112670000000  0.4876010000000 1.0
C      1  0.5364540000000  0.4689790000000  0.5384370000000 1.0
C      1  0.5421280000000  0.5359550000000  0.5536670000000 1.0
C      1  0.4610390000000  0.5515040000000  0.4515200000000 1.0
C      1  0.4383660000000  0.4319240000000  0.4126200000000 1.0
C      1  0.6029100000000  0.4033740000000  0.4515850000000 1.0
C      1  0.5193380000000  0.4948010000000  0.3768230000000 1.0
C      1  0.4503000000000  0.4481140000000  0.3925900000000 1.0
C      1  0.5599100000000  0.5368720000000  0.4229550000000 1.0
C      1  0.4476390000000  0.4564280000000  0.5358000000000 1.0
C      1  0.4390290000000  0.5685250000000  0.4440020000000 1.0
C      1  0.4296740000000  0.4181030000000  0.4681170000000 1.0
C      1  0.5207090000000  0.5293520000000  0.5336960000000 1.0
C      1  0.5348190000000  0.5251640000000  0.5082370000000 1.0
C      1  0.5644230000000  0.4322110000000  0.4604630000000 1.0
C      1  0.5874720000000  0.4463980000000  0.4076580000000 1.0
C      1  0.4318660000000  0.3995460000000  0.5253930000000 1.0
C      1  0.5984220000000  0.5013490000000  0.4485900000000 1.0
C      1  0.5447450000000  0.4173620000000  0.5753790000000 1.0
C      1  0.4658400000000  0.5631610000000  0.4942400000000 1.0
C      1  0.5838140000000  0.5299640000000  0.5897990000000 1.0
C      1  0.4883320000000  0.4451010000000  0.5905130000000 1.0
C      1  0.4772600000000  0.5392330000000  0.5090050000000 1.0
C      1  0.4283660000000  0.4242510000000  0.5657250000000 1.0
C      1  0.6289490000000  0.4673190000000  0.4652670000000 1.0
C      1  0.5987370000000  0.5614730000000  0.5109710000000 1.0
C      1  0.6069690000000  0.5253600000000  0.6045680000000 1.0
C      1  0.5761470000000  0.5438750000000  0.4454950000000 1.0
C      1  0.6190630000000  0.5425760000000  0.4680870000000 1.0
C      1  0.4965900000000  0.5125120000000  0.3762290000000 1.0
C      1  0.5178480000000  0.5354170000000  0.4675680000000 1.0
C      1  0.5781880000000  0.4236390000000  0.5197360000000 1.0
C      1  0.5335390000000  0.4645990000000  0.4374630000000 1.0
C      1  0.4356710000000  0.5594430000000  0.4893670000000 1.0
C      1  0.4752490000000  0.6135920000000  0.4905610000000 1.0
C      1  0.5671020000000  0.3888970000000  0.4808590000000 1.0
END
