TITL C-612603-7354-132 0.0593209141357336 125000 -431.112968113887 0 0 71 (C1) n - 1
REM
REM in /home/nfs/bkarasulu/CARBON/AIRSS/Generating-Clusters/TERSOFF/Only-C1/FIRE-HFTN
REM
REM
REM
REM
REM
REM ./C.cell (11c1c37f851c82e70ff6c80c92926a4b)
REM AIRSS Version 0.9.1 bugfix July 2018 build 013d7b7c2542+ Fri, 06 Jul 2018 19:26:36 +0100
REM compiler GCC version 9.2.1 20190827 (Red Hat 9.2.1-1)
REM options -cpp -mtune=generic -march=x86-64 -g -O0 -fpre-include=/usr/include/finclude/math-vector-fortran.h
REM seed 1872333824 -1761322078 227389135 1520023649 1097996929 -55295677 1253046968 447976188 717868504 -595070746 -1361220943 -77422705 -225467013 723515567 -593702258 -153059870 63835298 -932036477 -904051908 267256897 -1082950001 -131679444 1297787510 1570133253 99739980 1606021215 1278854868 -1935856147 1537583303 -1751839296 -334064074 -1812737070 -161130226
REM
CELL 1.54180   50.00000   50.00000   50.00000   90.00000   90.00000   90.00000
LATT -1
SFAC C  
C      1  0.5983090000000  0.5132660000000  0.5594310000000 1.0
C      1  0.4725480000000  0.5592760000000  0.4026420000000 1.0
C      1  0.4787070000000  0.4783640000000  0.5839530000000 1.0
C      1  0.6021780000000  0.5128000000000  0.5326970000000 1.0
C      1  0.4702610000000  0.5709740000000  0.4297270000000 1.0
C      1  0.4562120000000  0.4783560000000  0.4464420000000 1.0
C      1  0.5955270000000  0.4904620000000  0.4890040000000 1.0
C      1  0.4625240000000  0.5078960000000  0.4038440000000 1.0
C      1  0.5273690000000  0.5122810000000  0.5675900000000 1.0
C      1  0.5008370000000  0.4351240000000  0.5269260000000 1.0
C      1  0.5406220000000  0.4573750000000  0.5424400000000 1.0
C      1  0.4603410000000  0.5049600000000  0.4860030000000 1.0
C      1  0.5557290000000  0.4140560000000  0.4936860000000 1.0
C      1  0.5055270000000  0.4770440000000  0.4555070000000 1.0
C      1  0.3961630000000  0.5430500000000  0.4628350000000 1.0
C      1  0.5578650000000  0.4354460000000  0.5389780000000 1.0
C      1  0.4584500000000  0.5783430000000  0.3859240000000 1.0
C      1  0.4896930000000  0.5703400000000  0.4496320000000 1.0
C      1  0.4425920000000  0.4911420000000  0.4684100000000 1.0
C      1  0.5259730000000  0.5443540000000  0.5130250000000 1.0
C      1  0.5297780000000  0.5384740000000  0.5797730000000 1.0
C      1  0.3863140000000  0.5150030000000  0.5010970000000 1.0
C      1  0.5056960000000  0.4255320000000  0.4339670000000 1.0
C      1  0.5079390000000  0.5686390000000  0.4689360000000 1.0
C      1  0.4593050000000  0.4450610000000  0.6546760000000 1.0
C      1  0.4063610000000  0.5666850000000  0.4561660000000 1.0
C      1  0.5516390000000  0.4834330000000  0.5405330000000 1.0
C      1  0.5962420000000  0.4688820000000  0.4733950000000 1.0
C      1  0.5514620000000  0.4979290000000  0.5649990000000 1.0
C      1  0.3969570000000  0.5180230000000  0.4752830000000 1.0
C      1  0.4667940000000  0.5010400000000  0.5138760000000 1.0
C      1  0.5580440000000  0.5011450000000  0.5182410000000 1.0
C      1  0.5054090000000  0.4992490000000  0.4730940000000 1.0
C      1  0.4727560000000  0.5318350000000  0.3982910000000 1.0
C      1  0.5113130000000  0.5520160000000  0.5376350000000 1.0
C      1  0.4800950000000  0.4632160000000  0.4506550000000 1.0
C      1  0.5767780000000  0.5062890000000  0.5742320000000 1.0
C      1  0.5493680000000  0.4853320000000  0.4343490000000 1.0
C      1  0.4430440000000  0.5951230000000  0.4016670000000 1.0
C      1  0.5648400000000  0.4177130000000  0.5201870000000 1.0
C      1  0.4655250000000  0.4558380000000  0.6317680000000 1.0
C      1  0.4533540000000  0.4894310000000  0.4207190000000 1.0
C      1  0.5277790000000  0.4111830000000  0.4913390000000 1.0
C      1  0.4957370000000  0.4963420000000  0.5211670000000 1.0
C      1  0.5856840000000  0.5035410000000  0.5116420000000 1.0
C      1  0.4679690000000  0.5041090000000  0.5777190000000 1.0
C      1  0.4157060000000  0.4986700000000  0.4672120000000 1.0
C      1  0.5123080000000  0.4523120000000  0.5462750000000 1.0
C      1  0.4652440000000  0.5228840000000  0.5561050000000 1.0
C      1  0.5336430000000  0.5425740000000  0.6064010000000 1.0
C      1  0.5287990000000  0.4679990000000  0.4413780000000 1.0
C      1  0.5216950000000  0.5605990000000  0.4902950000000 1.0
C      1  0.5266290000000  0.5594000000000  0.5606130000000 1.0
C      1  0.5659560000000  0.5036920000000  0.4261610000000 1.0
C      1  0.4460810000000  0.5879970000000  0.4296400000000 1.0
C      1  0.5148950000000  0.4995450000000  0.4996420000000 1.0
C      1  0.5877180000000  0.4444450000000  0.4670000000000 1.0
C      1  0.4904610000000  0.5337100000000  0.5470870000000 1.0
C      1  0.5361910000000  0.5167930000000  0.5081100000000 1.0
C      1  0.5067750000000  0.4200300000000  0.5055840000000 1.0
C      1  0.4500140000000  0.5121410000000  0.5344440000000 1.0
C      1  0.4223050000000  0.5107860000000  0.5355010000000 1.0
C      1  0.4824160000000  0.4359150000000  0.4433300000000 1.0
C      1  0.3979110000000  0.5120450000000  0.5249940000000 1.0
C      1  0.4961140000000  0.4638350000000  0.5665890000000 1.0
C      1  0.4823520000000  0.5156430000000  0.4713610000000 1.0
C      1  0.4247260000000  0.5835390000000  0.4468520000000 1.0
C      1  0.5062660000000  0.5082170000000  0.5468470000000 1.0
C      1  0.5723230000000  0.4235270000000  0.4732300000000 1.0
C      1  0.5280140000000  0.4409410000000  0.4327640000000 1.0
C      1  0.4718480000000  0.4667900000000  0.6084870000000 1.0
END
