TITL C-612606-7351-191 207.334407976372 125000 -1096.32980363212 0 0 180 (C1) n - 1
REM
REM in /home/nfs/bkarasulu/CARBON/AIRSS/Generating-Clusters/TERSOFF/Only-C1/FIRE-HFTN
REM
REM
REM
REM
REM
REM ./C.cell (11c1c37f851c82e70ff6c80c92926a4b)
REM AIRSS Version 0.9.1 bugfix July 2018 build 013d7b7c2542+ Fri, 06 Jul 2018 19:26:36 +0100
REM compiler GCC version 9.2.1 20190827 (Red Hat 9.2.1-1)
REM options -cpp -mtune=generic -march=x86-64 -g -O0 -fpre-include=/usr/include/finclude/math-vector-fortran.h
REM seed -1179779054 244849962 932562613 -286790766 -292135615 445083738 1052456191 1449326684 -2036225006 771008391 -1836523358 -1366012173 137369330 -1201982475 1839966120 1074127890 -1301528358 1578281646 963928238 68536200 -1932466121 1465562890 -1973995617 35306409 -41516043 271736208 -1245628519 -1387941086 1943509093 1154284067 248454328 416590462 -28908971
REM
CELL 1.54180   50.00000   50.00000   50.00000   90.00000   90.00000   90.00000
LATT -1
SFAC C  
C      1  0.6067730000000  0.5595490000000  0.4759400000000 1.0
C      1  0.4814920000000  0.5492080000000  0.4658610000000 1.0
C      1  0.4494080000000  0.5149540000000  0.4382260000000 1.0
C      1  0.5447130000000  0.4098090000000  0.5254460000000 1.0
C      1  0.4378740000000  0.4951680000000  0.6065140000000 1.0
C      1  0.5194040000000  0.5002980000000  0.5002080000000 1.0
C      1  0.5462650000000  0.4662930000000  0.5414290000000 1.0
C      1  0.5219150000000  0.3947240000000  0.5139500000000 1.0
C      1  0.4204680000000  0.4134480000000  0.5285400000000 1.0
C      1  0.6265530000000  0.4524730000000  0.4842470000000 1.0
C      1  0.5676130000000  0.4703300000000  0.4521860000000 1.0
C      1  0.5277600000000  0.4532560000000  0.4917290000000 1.0
C      1  0.5259180000000  0.4509620000000  0.6091690000000 1.0
C      1  0.5981160000000  0.5566240000000  0.4480390000000 1.0
C      1  0.5024030000000  0.5275060000000  0.3829020000000 1.0
C      1  0.5557380000000  0.6190410000000  0.4550760000000 1.0
C      1  0.5640950000000  0.4430850000000  0.4615940000000 1.0
C      1  0.6052730000000  0.4365780000000  0.4860180000000 1.0
C      1  0.5315640000000  0.5065070000000  0.4394620000000 1.0
C      1  0.4419660000000  0.4090370000000  0.4565830000000 1.0
C      1  0.5051410000000  0.4849650000000  0.5866850000000 1.0
C      1  0.5528740000000  0.5324700000000  0.5262560000000 1.0
C      1  0.5137720000000  0.4320940000000  0.3551210000000 1.0
C      1  0.5731010000000  0.5179690000000  0.4183800000000 1.0
C      1  0.4455580000000  0.5732020000000  0.4000120000000 1.0
C      1  0.5501150000000  0.5898150000000  0.5508960000000 1.0
C      1  0.4262740000000  0.5188640000000  0.5432190000000 1.0
C      1  0.4646550000000  0.5904620000000  0.5265500000000 1.0
C      1  0.5747350000000  0.5847270000000  0.5089850000000 1.0
C      1  0.4570140000000  0.5408470000000  0.5840600000000 1.0
C      1  0.3675020000000  0.5032830000000  0.5747860000000 1.0
C      1  0.5009350000000  0.5621260000000  0.6130690000000 1.0
C      1  0.4179480000000  0.5230370000000  0.4951450000000 1.0
C      1  0.4319760000000  0.4550640000000  0.4723020000000 1.0
C      1  0.5419760000000  0.5607920000000  0.4692370000000 1.0
C      1  0.5438840000000  0.5203490000000  0.4168580000000 1.0
C      1  0.4956460000000  0.3562460000000  0.5337610000000 1.0
C      1  0.5775400000000  0.4318090000000  0.4847200000000 1.0
C      1  0.4631470000000  0.4393250000000  0.5120920000000 1.0
C      1  0.5811710000000  0.4912350000000  0.4098260000000 1.0
C      1  0.4567390000000  0.5886610000000  0.4237120000000 1.0
C      1  0.4885860000000  0.3955190000000  0.4748790000000 1.0
C      1  0.4406690000000  0.4213300000000  0.5090600000000 1.0
C      1  0.3785280000000  0.5348120000000  0.5128920000000 1.0
C      1  0.4653180000000  0.5473510000000  0.5584450000000 1.0
C      1  0.3995770000000  0.4342410000000  0.5376690000000 1.0
C      1  0.4165500000000  0.4498530000000  0.5581820000000 1.0
C      1  0.5179440000000  0.4145700000000  0.3346460000000 1.0
C      1  0.5069790000000  0.4357150000000  0.4938960000000 1.0
C      1  0.4425380000000  0.4331340000000  0.5778150000000 1.0
C      1  0.4576790000000  0.4724590000000  0.6095950000000 1.0
C      1  0.5658800000000  0.4781820000000  0.3896550000000 1.0
C      1  0.5146000000000  0.5033810000000  0.5645120000000 1.0
C      1  0.5251790000000  0.4615050000000  0.4112420000000 1.0
C      1  0.5080950000000  0.3808240000000  0.5348420000000 1.0
C      1  0.4880940000000  0.4366850000000  0.3657760000000 1.0
C      1  0.4251560000000  0.5075440000000  0.5176750000000 1.0
C      1  0.4458900000000  0.5844380000000  0.4511040000000 1.0
C      1  0.6454110000000  0.5012750000000  0.4807350000000 1.0
C      1  0.5101190000000  0.3986450000000  0.5576080000000 1.0
C      1  0.5891120000000  0.5083730000000  0.5472410000000 1.0
C      1  0.5629990000000  0.5457900000000  0.4808530000000 1.0
C      1  0.4846720000000  0.5490930000000  0.4932020000000 1.0
C      1  0.3909350000000  0.5108380000000  0.5892540000000 1.0
C      1  0.5894340000000  0.4485790000000  0.5393800000000 1.0
C      1  0.4798310000000  0.5266040000000  0.5094760000000 1.0
C      1  0.5321560000000  0.5223160000000  0.5128190000000 1.0
C      1  0.4464550000000  0.5862190000000  0.5031970000000 1.0
C      1  0.4934980000000  0.5774320000000  0.5918570000000 1.0
C      1  0.5403500000000  0.5687660000000  0.4424500000000 1.0
C      1  0.4608770000000  0.4547390000000  0.5365690000000 1.0
C      1  0.4654130000000  0.5649440000000  0.3803710000000 1.0
C      1  0.6401080000000  0.4752330000000  0.4818070000000 1.0
C      1  0.4344440000000  0.5391860000000  0.4324800000000 1.0
C      1  0.5520170000000  0.4540690000000  0.5952000000000 1.0
C      1  0.5332080000000  0.6151080000000  0.5173490000000 1.0
C      1  0.4740730000000  0.4543760000000  0.3825790000000 1.0
C      1  0.4851130000000  0.4106400000000  0.5672740000000 1.0
C      1  0.4797140000000  0.5134060000000  0.4360740000000 1.0
C      1  0.5612520000000  0.4843970000000  0.5917690000000 1.0
C      1  0.4154040000000  0.4655010000000  0.4926260000000 1.0
C      1  0.3943500000000  0.4840380000000  0.4841580000000 1.0
C      1  0.3537250000000  0.4352530000000  0.4198920000000 1.0
C      1  0.6330160000000  0.5538430000000  0.4844220000000 1.0
C      1  0.5376360000000  0.4145470000000  0.5557760000000 1.0
C      1  0.4792160000000  0.6127480000000  0.4742180000000 1.0
C      1  0.5695060000000  0.5482930000000  0.5677200000000 1.0
C      1  0.3807290000000  0.4545560000000  0.5232760000000 1.0
C      1  0.5652010000000  0.4797770000000  0.5027680000000 1.0
C      1  0.3697200000000  0.5077200000000  0.5218470000000 1.0
C      1  0.4434240000000  0.5046030000000  0.5595730000000 1.0
C      1  0.4255850000000  0.4789560000000  0.5161190000000 1.0
C      1  0.4823570000000  0.3338690000000  0.5324380000000 1.0
C      1  0.4359560000000  0.4992410000000  0.4574040000000 1.0
C      1  0.5816860000000  0.4924590000000  0.5710160000000 1.0
C      1  0.6490000000000  0.5740550000000  0.4951410000000 1.0
C      1  0.5994010000000  0.5048090000000  0.5199400000000 1.0
C      1  0.5761840000000  0.6045820000000  0.4446330000000 1.0
C      1  0.4837460000000  0.4744960000000  0.6250800000000 1.0
C      1  0.5043130000000  0.4689290000000  0.4289300000000 1.0
C      1  0.4854210000000  0.5859010000000  0.4220120000000 1.0
C      1  0.5566300000000  0.4320390000000  0.5734320000000 1.0
C      1  0.5039640000000  0.4962810000000  0.4367350000000 1.0
C      1  0.5740140000000  0.5325410000000  0.5451820000000 1.0
C      1  0.5304690000000  0.5737950000000  0.5633270000000 1.0
C      1  0.4687270000000  0.4936500000000  0.5601800000000 1.0
C      1  0.4246130000000  0.4316740000000  0.4575590000000 1.0
C      1  0.5699730000000  0.4643410000000  0.5264170000000 1.0
C      1  0.4747550000000  0.4789560000000  0.4848680000000 1.0
C      1  0.4808220000000  0.4486590000000  0.4882040000000 1.0
C      1  0.4887060000000  0.5048590000000  0.3734950000000 1.0
C      1  0.5304290000000  0.6245770000000  0.4630610000000 1.0
C      1  0.5831530000000  0.4339360000000  0.5615160000000 1.0
C      1  0.5836100000000  0.5630020000000  0.4927710000000 1.0
C      1  0.4503230000000  0.4774540000000  0.4680810000000 1.0
C      1  0.4899080000000  0.5957000000000  0.5414210000000 1.0
C      1  0.4907410000000  0.5577140000000  0.4183180000000 1.0
C      1  0.5130190000000  0.5407540000000  0.6245490000000 1.0
C      1  0.4894250000000  0.5104210000000  0.5526140000000 1.0
C      1  0.5348820000000  0.4466230000000  0.3668080000000 1.0
C      1  0.4947710000000  0.4349430000000  0.5778790000000 1.0
C      1  0.4356740000000  0.3978950000000  0.5485060000000 1.0
C      1  0.5079830000000  0.6135600000000  0.5275510000000 1.0
C      1  0.5085150000000  0.4568290000000  0.5866260000000 1.0
C      1  0.4058950000000  0.4665320000000  0.5797460000000 1.0
C      1  0.5000070000000  0.4957900000000  0.6131990000000 1.0
C      1  0.4116770000000  0.5061640000000  0.4726390000000 1.0
C      1  0.4680360000000  0.4467670000000  0.4092910000000 1.0
C      1  0.4700960000000  0.4659740000000  0.5612930000000 1.0
C      1  0.4116560000000  0.5391190000000  0.5563050000000 1.0
C      1  0.5495580000000  0.4256160000000  0.4460000000000 1.0
C      1  0.4900210000000  0.5007970000000  0.4981060000000 1.0
C      1  0.4755600000000  0.4817330000000  0.3757730000000 1.0
C      1  0.4325430000000  0.5591590000000  0.4528990000000 1.0
C      1  0.5041170000000  0.6219330000000  0.4689850000000 1.0
C      1  0.5416340000000  0.5497180000000  0.5737220000000 1.0
C      1  0.4213090000000  0.5703950000000  0.5050190000000 1.0
C      1  0.4335850000000  0.4638730000000  0.5378030000000 1.0
C      1  0.3769340000000  0.4329120000000  0.4315310000000 1.0
C      1  0.4777340000000  0.4385400000000  0.4583570000000 1.0
C      1  0.4698470000000  0.4106420000000  0.4597520000000 1.0
C      1  0.4826010000000  0.4512520000000  0.4333090000000 1.0
C      1  0.5285110000000  0.5256210000000  0.3938830000000 1.0
C      1  0.5530810000000  0.4961910000000  0.4570760000000 1.0
C      1  0.5554370000000  0.5987160000000  0.5246530000000 1.0
C      1  0.4038880000000  0.5468640000000  0.5027620000000 1.0
C      1  0.5058290000000  0.4542760000000  0.6311130000000 1.0
C      1  0.5072570000000  0.4070600000000  0.4932160000000 1.0
C      1  0.5211430000000  0.5135700000000  0.6206980000000 1.0
C      1  0.3606570000000  0.5050110000000  0.5487320000000 1.0
C      1  0.4290970000000  0.5509550000000  0.4074160000000 1.0
C      1  0.6632240000000  0.5933590000000  0.5053480000000 1.0
C      1  0.4580010000000  0.4551490000000  0.5858610000000 1.0
C      1  0.5091920000000  0.6002410000000  0.4196240000000 1.0
C      1  0.5027920000000  0.5824310000000  0.5652700000000 1.0
C      1  0.5036920000000  0.5675300000000  0.5017490000000 1.0
C      1  0.5831330000000  0.5013050000000  0.4958280000000 1.0
C      1  0.5641980000000  0.4182950000000  0.5063410000000 1.0
C      1  0.5323010000000  0.5233650000000  0.5778820000000 1.0
C      1  0.5425660000000  0.4620750000000  0.3888960000000 1.0
C      1  0.5894910000000  0.5818980000000  0.4376260000000 1.0
C      1  0.5724170000000  0.5183240000000  0.4698690000000 1.0
C      1  0.5433280000000  0.5081230000000  0.6011980000000 1.0
C      1  0.3765790000000  0.4821850000000  0.5082390000000 1.0
C      1  0.4559470000000  0.5959470000000  0.4762220000000 1.0
C      1  0.6429380000000  0.5277110000000  0.4820130000000 1.0
C      1  0.4874550000000  0.5500360000000  0.3909040000000 1.0
C      1  0.5857710000000  0.5299060000000  0.4425670000000 1.0
C      1  0.4871300000000  0.5408350000000  0.4401630000000 1.0
C      1  0.4004280000000  0.4310920000000  0.4436350000000 1.0
C      1  0.5289970000000  0.4849750000000  0.5474810000000 1.0
C      1  0.4105080000000  0.4901040000000  0.5953120000000 1.0
C      1  0.5373830000000  0.4787940000000  0.4952710000000 1.0
C      1  0.4486020000000  0.5219840000000  0.6021220000000 1.0
C      1  0.5873510000000  0.4740730000000  0.4316870000000 1.0
C      1  0.5324130000000  0.5873400000000  0.4247320000000 1.0
C      1  0.5254200000000  0.5733190000000  0.4877100000000 1.0
C      1  0.4002990000000  0.5362530000000  0.5807690000000 1.0
C      1  0.4794680000000  0.5321410000000  0.5379160000000 1.0
C      1  0.4551200000000  0.4098840000000  0.5661810000000 1.0
END
