TITL C-612606-7351-239 0.000417718885851096 125000 -321.642966134582 0 0 53 (C1) n - 1
REM
REM in /home/nfs/bkarasulu/CARBON/AIRSS/Generating-Clusters/TERSOFF/Only-C1/FIRE-HFTN
REM
REM
REM
REM
REM
REM ./C.cell (11c1c37f851c82e70ff6c80c92926a4b)
REM AIRSS Version 0.9.1 bugfix July 2018 build 013d7b7c2542+ Fri, 06 Jul 2018 19:26:36 +0100
REM compiler GCC version 9.2.1 20190827 (Red Hat 9.2.1-1)
REM options -cpp -mtune=generic -march=x86-64 -g -O0 -fpre-include=/usr/include/finclude/math-vector-fortran.h
REM seed -1395453483 -344838604 1299130466 -957435868 1514621207 1058436392 171151667 -2010408672 1376811013 -1087997109 -1993529651 555227623 373713334 140829755 1843161136 -237896454 -936190938 -1564299190 307913564 -1407776193 -1501191616 -1867996737 -403918011 -1323854289 270785506 1111307086 847845923 1283703663 -636339703 267808865 -1438542355 871720251 632586384
REM
CELL 1.54180   50.00000   50.00000   50.00000   90.00000   90.00000   90.00000
LATT -1
SFAC C  
C      1  0.5093560000000  0.4755080000000  0.4522800000000 1.0
C      1  0.4644120000000  0.4667700000000  0.4583750000000 1.0
C      1  0.4793060000000  0.5558500000000  0.5042930000000 1.0
C      1  0.5209720000000  0.4255410000000  0.4569530000000 1.0
C      1  0.4825400000000  0.4877490000000  0.4488560000000 1.0
C      1  0.5665020000000  0.5498040000000  0.5266800000000 1.0
C      1  0.4818800000000  0.5611590000000  0.4399460000000 1.0
C      1  0.5334480000000  0.4050330000000  0.5037780000000 1.0
C      1  0.5178530000000  0.5796980000000  0.5336530000000 1.0
C      1  0.5075960000000  0.4346240000000  0.5338240000000 1.0
C      1  0.4719550000000  0.4469230000000  0.5026750000000 1.0
C      1  0.5364990000000  0.5840100000000  0.5144670000000 1.0
C      1  0.5174590000000  0.5086220000000  0.5573410000000 1.0
C      1  0.5376400000000  0.4891780000000  0.5609770000000 1.0
C      1  0.5539860000000  0.4737690000000  0.4718890000000 1.0
C      1  0.5649650000000  0.4684770000000  0.5224850000000 1.0
C      1  0.5532340000000  0.5403300000000  0.5482130000000 1.0
C      1  0.4858350000000  0.5375990000000  0.4551670000000 1.0
C      1  0.4713060000000  0.5845740000000  0.4484990000000 1.0
C      1  0.4332410000000  0.4647680000000  0.5304420000000 1.0
C      1  0.5554830000000  0.4754190000000  0.5464720000000 1.0
C      1  0.4731680000000  0.5198250000000  0.5377000000000 1.0
C      1  0.4466620000000  0.5112100000000  0.5313500000000 1.0
C      1  0.4663570000000  0.5799520000000  0.4972830000000 1.0
C      1  0.4639220000000  0.5922590000000  0.4733410000000 1.0
C      1  0.5643380000000  0.4679380000000  0.4958060000000 1.0
C      1  0.4990860000000  0.4819140000000  0.5222020000000 1.0
C      1  0.4442430000000  0.5154250000000  0.4577830000000 1.0
C      1  0.5071510000000  0.5552560000000  0.5434740000000 1.0
C      1  0.5307180000000  0.4135160000000  0.4052460000000 1.0
C      1  0.4781080000000  0.4475330000000  0.4749980000000 1.0
C      1  0.5239810000000  0.4146890000000  0.5268370000000 1.0
C      1  0.4155350000000  0.4940240000000  0.5948600000000 1.0
C      1  0.4315500000000  0.5189730000000  0.4811100000000 1.0
C      1  0.4938400000000  0.5005230000000  0.5430660000000 1.0
C      1  0.4244510000000  0.4914400000000  0.5705090000000 1.0
C      1  0.4345060000000  0.4890330000000  0.5446660000000 1.0
C      1  0.4458620000000  0.4488460000000  0.5129930000000 1.0
C      1  0.4341040000000  0.5197790000000  0.5076510000000 1.0
C      1  0.5406540000000  0.5145920000000  0.4510180000000 1.0
C      1  0.5349770000000  0.4874970000000  0.4559270000000 1.0
C      1  0.5316150000000  0.4099770000000  0.4776550000000 1.0
C      1  0.5049880000000  0.4480360000000  0.4629970000000 1.0
C      1  0.5125310000000  0.4927740000000  0.5009860000000 1.0
C      1  0.4913460000000  0.5421350000000  0.4826010000000 1.0
C      1  0.5496550000000  0.5379590000000  0.4603300000000 1.0
C      1  0.4715170000000  0.5137400000000  0.4497780000000 1.0
C      1  0.5561720000000  0.5557030000000  0.4791670000000 1.0
C      1  0.4923900000000  0.4544820000000  0.5213390000000 1.0
C      1  0.5260310000000  0.4187780000000  0.4303360000000 1.0
C      1  0.4834020000000  0.5456770000000  0.5304990000000 1.0
C      1  0.5558980000000  0.5653520000000  0.5054440000000 1.0
C      1  0.5257750000000  0.5357560000000  0.5537830000000 1.0
END
