TITL C-612601-4209-138 -21.1997863403054 125000 -627.14480928016 0 0 105 (C1) n - 1
REM
REM in /home/nfs/bkarasulu/CARBON/AIRSS/Generating-Clusters/TERSOFF/Only-C1/FIRE-HFTN
REM
REM
REM
REM
REM
REM ./C.cell (11c1c37f851c82e70ff6c80c92926a4b)
REM AIRSS Version 0.9.1 bugfix July 2018 build 013d7b7c2542+ Fri, 06 Jul 2018 19:26:36 +0100
REM compiler GCC version 9.2.1 20190827 (Red Hat 9.2.1-1)
REM options -cpp -mtune=generic -march=x86-64 -g -O0 -fpre-include=/usr/include/finclude/math-vector-fortran.h
REM seed -1394227813 -1065022761 1759081905 824076887 -563674212 188961177 1216659620 1806200744 -888953708 -2006272806 -1844117081 1846067150 1762934169 782394766 -1284539232 1829777985 -502633279 2139449750 -1622833469 -442365736 101044045 -1139346335 1322903348 -1255255521 830165824 -2012395539 -1027286999 1538287780 -1484426864 158731428 -304744042 498506462 -599275378
REM
CELL 1.54180   50.00000   50.00000   50.00000   90.00000   90.00000   90.00000
LATT -1
SFAC C  
C      1  0.4712170000000  0.4486720000000  0.4356380000000 1.0
C      1  0.5559420000000  0.5623010000000  0.5549380000000 1.0
C      1  0.4854390000000  0.4957110000000  0.5246330000000 1.0
C      1  0.4825290000000  0.5191150000000  0.3967960000000 1.0
C      1  0.5738930000000  0.4877870000000  0.4118720000000 1.0
C      1  0.5502090000000  0.4842580000000  0.4000130000000 1.0
C      1  0.4111370000000  0.4840610000000  0.4515380000000 1.0
C      1  0.4549170000000  0.4104340000000  0.5486780000000 1.0
C      1  0.5549710000000  0.4674120000000  0.5712330000000 1.0
C      1  0.5432290000000  0.5063220000000  0.5954280000000 1.0
C      1  0.5190760000000  0.4286780000000  0.5783870000000 1.0
C      1  0.4668700000000  0.5597300000000  0.4278280000000 1.0
C      1  0.5587160000000  0.4956910000000  0.5732950000000 1.0
C      1  0.5215990000000  0.5237620000000  0.5256180000000 1.0
C      1  0.5477720000000  0.4802850000000  0.5201920000000 1.0
C      1  0.5350470000000  0.4892850000000  0.4788450000000 1.0
C      1  0.5744800000000  0.4675670000000  0.4730200000000 1.0
C      1  0.4435880000000  0.4349430000000  0.5393810000000 1.0
C      1  0.5143510000000  0.5417270000000  0.6081490000000 1.0
C      1  0.4201810000000  0.5296190000000  0.5453780000000 1.0
C      1  0.4809700000000  0.5686520000000  0.5459430000000 1.0
C      1  0.4861110000000  0.4458000000000  0.5332000000000 1.0
C      1  0.5091470000000  0.5721940000000  0.5476910000000 1.0
C      1  0.5016740000000  0.4247450000000  0.5244450000000 1.0
C      1  0.5924690000000  0.5002410000000  0.5312530000000 1.0
C      1  0.4960810000000  0.4481040000000  0.4216240000000 1.0
C      1  0.5903610000000  0.4893190000000  0.4329850000000 1.0
C      1  0.4169030000000  0.4834470000000  0.5198790000000 1.0
C      1  0.4906600000000  0.5068110000000  0.5859630000000 1.0
C      1  0.5195230000000  0.4659330000000  0.4731840000000 1.0
C      1  0.5897520000000  0.4889760000000  0.4612530000000 1.0
C      1  0.4443340000000  0.4550000000000  0.5598740000000 1.0
C      1  0.4981480000000  0.4712410000000  0.4043880000000 1.0
C      1  0.5247080000000  0.5152570000000  0.4752500000000 1.0
C      1  0.4680430000000  0.5035350000000  0.5449720000000 1.0
C      1  0.5571520000000  0.5070110000000  0.6200070000000 1.0
C      1  0.4242820000000  0.4754160000000  0.4253630000000 1.0
C      1  0.5396730000000  0.4457520000000  0.5759190000000 1.0
C      1  0.5466640000000  0.5449080000000  0.4485680000000 1.0
C      1  0.4971980000000  0.5192110000000  0.5124940000000 1.0
C      1  0.5576240000000  0.4787360000000  0.4935480000000 1.0
C      1  0.4939030000000  0.5521520000000  0.4672470000000 1.0
C      1  0.5630100000000  0.4469550000000  0.4557670000000 1.0
C      1  0.4753200000000  0.4901550000000  0.4014250000000 1.0
C      1  0.4776270000000  0.4819180000000  0.5910350000000 1.0
C      1  0.4456810000000  0.4911360000000  0.4108400000000 1.0
C      1  0.5909750000000  0.5165360000000  0.5060920000000 1.0
C      1  0.4714180000000  0.4687770000000  0.4551470000000 1.0
C      1  0.4642780000000  0.5366740000000  0.4110650000000 1.0
C      1  0.5212710000000  0.5733550000000  0.4978460000000 1.0
C      1  0.4577250000000  0.5867550000000  0.5001640000000 1.0
C      1  0.4848570000000  0.5356740000000  0.4921880000000 1.0
C      1  0.4405730000000  0.4406520000000  0.5103900000000 1.0
C      1  0.4144000000000  0.4671440000000  0.4746620000000 1.0
C      1  0.4236090000000  0.4628440000000  0.5014560000000 1.0
C      1  0.4702190000000  0.5658010000000  0.4557760000000 1.0
C      1  0.4349760000000  0.5473440000000  0.4850410000000 1.0
C      1  0.5231750000000  0.5632550000000  0.5948250000000 1.0
C      1  0.4662190000000  0.5479350000000  0.5598850000000 1.0
C      1  0.5413560000000  0.5061810000000  0.5290960000000 1.0
C      1  0.5194420000000  0.5517780000000  0.4503440000000 1.0
C      1  0.4111200000000  0.5132250000000  0.4567720000000 1.0
C      1  0.4254830000000  0.4473830000000  0.4208580000000 1.0
C      1  0.5293320000000  0.5642190000000  0.5676990000000 1.0
C      1  0.5703350000000  0.5076810000000  0.6424760000000 1.0
C      1  0.5249740000000  0.4359310000000  0.5121540000000 1.0
C      1  0.4485210000000  0.4347200000000  0.4269340000000 1.0
C      1  0.4571060000000  0.5283260000000  0.4869490000000 1.0
C      1  0.5524830000000  0.5831400000000  0.5344650000000 1.0
C      1  0.4674730000000  0.5830710000000  0.5251180000000 1.0
C      1  0.4141270000000  0.5065700000000  0.5330820000000 1.0
C      1  0.5420650000000  0.4358560000000  0.4418140000000 1.0
C      1  0.5785920000000  0.5406080000000  0.5170100000000 1.0
C      1  0.5698570000000  0.5335540000000  0.4592470000000 1.0
C      1  0.5718060000000  0.5398420000000  0.5461380000000 1.0
C      1  0.5020860000000  0.5280220000000  0.3800720000000 1.0
C      1  0.4742690000000  0.3991670000000  0.5662410000000 1.0
C      1  0.4584110000000  0.4663570000000  0.5799750000000 1.0
C      1  0.5138740000000  0.4307910000000  0.4372940000000 1.0
C      1  0.5335670000000  0.5471900000000  0.4910730000000 1.0
C      1  0.5867000000000  0.5144050000000  0.4755590000000 1.0
C      1  0.4564330000000  0.5122180000000  0.4639710000000 1.0
C      1  0.4711950000000  0.3732320000000  0.5745620000000 1.0
C      1  0.5025060000000  0.5092840000000  0.4576560000000 1.0
C      1  0.5229360000000  0.4415650000000  0.4847580000000 1.0
C      1  0.5242920000000  0.4787180000000  0.3967020000000 1.0
C      1  0.4967280000000  0.4140620000000  0.5753830000000 1.0
C      1  0.4978050000000  0.4155410000000  0.4569900000000 1.0
C      1  0.5163350000000  0.5939220000000  0.4794080000000 1.0
C      1  0.4498190000000  0.5716280000000  0.4771870000000 1.0
C      1  0.4097710000000  0.5341620000000  0.4773960000000 1.0
C      1  0.4990060000000  0.4711850000000  0.5294100000000 1.0
C      1  0.5763030000000  0.5113010000000  0.5550680000000 1.0
C      1  0.5139950000000  0.6156170000000  0.4651370000000 1.0
C      1  0.4573070000000  0.4264020000000  0.4913020000000 1.0
C      1  0.4365870000000  0.5196290000000  0.4455110000000 1.0
C      1  0.4778410000000  0.4956900000000  0.4584320000000 1.0
C      1  0.5270740000000  0.4622790000000  0.5255170000000 1.0
C      1  0.4769980000000  0.4167020000000  0.4749890000000 1.0
C      1  0.5602370000000  0.5509260000000  0.4991320000000 1.0
C      1  0.5250410000000  0.5816560000000  0.5247990000000 1.0
C      1  0.5156680000000  0.5157220000000  0.5967850000000 1.0
C      1  0.4428770000000  0.5192140000000  0.4186680000000 1.0
C      1  0.4378920000000  0.5469960000000  0.5558950000000 1.0
C      1  0.4765030000000  0.5216260000000  0.5654560000000 1.0
END
