TITL C-612604-1799-716 0.475650340379602 125000 -1049.06913704047 0 0 173 (C1) n - 1
REM
REM in /home/nfs/bkarasulu/CARBON/AIRSS/Generating-Clusters/TERSOFF/Only-C1/FIRE-HFTN
REM
REM
REM
REM
REM
REM ./C.cell (11c1c37f851c82e70ff6c80c92926a4b)
REM AIRSS Version 0.9.1 bugfix July 2018 build 013d7b7c2542+ Fri, 06 Jul 2018 19:26:36 +0100
REM compiler GCC version 9.2.1 20190827 (Red Hat 9.2.1-1)
REM options -cpp -mtune=generic -march=x86-64 -g -O0 -fpre-include=/usr/include/finclude/math-vector-fortran.h
REM seed -1955045493 1322622108 -611886629 -21128635 1690171882 -500962881 210449682 822501721 -1977894881 558921848 1651380367 -1630934064 531522958 1675924465 1434091417 1601896937 -1799604726 -1479257931 1351961714 1977061272 1096751569 1350930725 -1782993582 51982348 468899123 -1235319265 -1136405255 1509474501 -740004729 -556841987 469582837 -269001188 1995419732
REM
CELL 1.54180   50.00000   50.00000   50.00000   90.00000   90.00000   90.00000
LATT -1
SFAC C  
C      1  0.5019620000000  0.6246780000000  0.5000910000000 1.0
C      1  0.5682150000000  0.4761760000000  0.4081450000000 1.0
C      1  0.4700310000000  0.5010220000000  0.4332310000000 1.0
C      1  0.5840230000000  0.5384080000000  0.5391050000000 1.0
C      1  0.4528990000000  0.5899960000000  0.5442560000000 1.0
C      1  0.4285190000000  0.5512200000000  0.3981950000000 1.0
C      1  0.4019710000000  0.5054460000000  0.5693370000000 1.0
C      1  0.5382960000000  0.3952140000000  0.4385800000000 1.0
C      1  0.3998740000000  0.4669740000000  0.4409370000000 1.0
C      1  0.5406640000000  0.5731290000000  0.4836150000000 1.0
C      1  0.4344940000000  0.4470100000000  0.3604160000000 1.0
C      1  0.6313440000000  0.4605010000000  0.5315500000000 1.0
C      1  0.5420760000000  0.5274100000000  0.6943230000000 1.0
C      1  0.5920800000000  0.4672710000000  0.4200060000000 1.0
C      1  0.4042960000000  0.4844940000000  0.4193130000000 1.0
C      1  0.4169370000000  0.4440830000000  0.4497500000000 1.0
C      1  0.5461110000000  0.4965910000000  0.5326860000000 1.0
C      1  0.5941920000000  0.3836590000000  0.5576630000000 1.0
C      1  0.4447630000000  0.4155220000000  0.5098220000000 1.0
C      1  0.4068560000000  0.5805770000000  0.4515890000000 1.0
C      1  0.5260290000000  0.5445100000000  0.5790990000000 1.0
C      1  0.4843030000000  0.4402590000000  0.4118350000000 1.0
C      1  0.5027290000000  0.5120340000000  0.3975700000000 1.0
C      1  0.6013420000000  0.5126760000000  0.4393660000000 1.0
C      1  0.4271840000000  0.5213690000000  0.5722720000000 1.0
C      1  0.5276710000000  0.6048070000000  0.5352360000000 1.0
C      1  0.5243770000000  0.4945080000000  0.5557310000000 1.0
C      1  0.4642470000000  0.4355620000000  0.5107660000000 1.0
C      1  0.4004460000000  0.5544000000000  0.4606110000000 1.0
C      1  0.6136850000000  0.4607020000000  0.5103140000000 1.0
C      1  0.5335020000000  0.5433700000000  0.6287620000000 1.0
C      1  0.4438540000000  0.5326880000000  0.4592050000000 1.0
C      1  0.5199490000000  0.5560510000000  0.3864930000000 1.0
C      1  0.5253270000000  0.6224770000000  0.5152410000000 1.0
C      1  0.5613490000000  0.5148650000000  0.6779350000000 1.0
C      1  0.4702420000000  0.5510820000000  0.4979810000000 1.0
C      1  0.4332350000000  0.4864940000000  0.4899950000000 1.0
C      1  0.5272070000000  0.4574090000000  0.4263040000000 1.0
C      1  0.4913970000000  0.4353520000000  0.5141040000000 1.0
C      1  0.4161290000000  0.5634780000000  0.5458450000000 1.0
C      1  0.5027420000000  0.4438350000000  0.4666660000000 1.0
C      1  0.4983920000000  0.6153850000000  0.4720480000000 1.0
C      1  0.4966390000000  0.4941960000000  0.4213370000000 1.0
C      1  0.4691760000000  0.6076140000000  0.4705650000000 1.0
C      1  0.5479560000000  0.4551650000000  0.4758950000000 1.0
C      1  0.5599750000000  0.5319190000000  0.6288870000000 1.0
C      1  0.5944320000000  0.4167400000000  0.5228180000000 1.0
C      1  0.5609160000000  0.5679180000000  0.5029800000000 1.0
C      1  0.5024930000000  0.4249580000000  0.5383780000000 1.0
C      1  0.4097200000000  0.4369240000000  0.4779890000000 1.0
C      1  0.4195570000000  0.4267320000000  0.5041310000000 1.0
C      1  0.5086110000000  0.5600210000000  0.5274540000000 1.0
C      1  0.4302410000000  0.5876840000000  0.4366150000000 1.0
C      1  0.5444320000000  0.4425040000000  0.3833400000000 1.0
C      1  0.5061750000000  0.4462230000000  0.5568240000000 1.0
C      1  0.5400760000000  0.5231290000000  0.7211130000000 1.0
C      1  0.3733450000000  0.5963120000000  0.5466210000000 1.0
C      1  0.4725670000000  0.4056930000000  0.4586190000000 1.0
C      1  0.4435720000000  0.5463990000000  0.5802780000000 1.0
C      1  0.4226360000000  0.5434860000000  0.5008040000000 1.0
C      1  0.5312260000000  0.3859330000000  0.4873950000000 1.0
C      1  0.5240690000000  0.5317090000000  0.3986760000000 1.0
C      1  0.5028190000000  0.4745460000000  0.5532460000000 1.0
C      1  0.3498120000000  0.5369590000000  0.4990470000000 1.0
C      1  0.4657460000000  0.5273070000000  0.4425950000000 1.0
C      1  0.5671630000000  0.5170210000000  0.6518180000000 1.0
C      1  0.5134690000000  0.5236520000000  0.5602370000000 1.0
C      1  0.6288490000000  0.5058950000000  0.4979740000000 1.0
C      1  0.3867890000000  0.4556340000000  0.4856810000000 1.0
C      1  0.4816100000000  0.4863870000000  0.5103970000000 1.0
C      1  0.4848970000000  0.5474000000000  0.4401920000000 1.0
C      1  0.4423910000000  0.5919290000000  0.5159150000000 1.0
C      1  0.6460340000000  0.5254830000000  0.4981000000000 1.0
C      1  0.5230830000000  0.5509500000000  0.6539550000000 1.0
C      1  0.3995960000000  0.4787490000000  0.5565030000000 1.0
C      1  0.5250890000000  0.5448510000000  0.6800180000000 1.0
C      1  0.4870500000000  0.4635860000000  0.6238940000000 1.0
C      1  0.5058920000000  0.4968210000000  0.5019010000000 1.0
C      1  0.4546030000000  0.5162150000000  0.3783830000000 1.0
C      1  0.5495810000000  0.5271110000000  0.4113070000000 1.0
C      1  0.5794610000000  0.5369110000000  0.6094670000000 1.0
C      1  0.4658450000000  0.5083940000000  0.5487120000000 1.0
C      1  0.5292680000000  0.5133380000000  0.5118700000000 1.0
C      1  0.5004270000000  0.4640480000000  0.4167200000000 1.0
C      1  0.3792440000000  0.4770230000000  0.5347320000000 1.0
C      1  0.5599600000000  0.5815190000000  0.5694220000000 1.0
C      1  0.5756680000000  0.5838540000000  0.5472390000000 1.0
C      1  0.5977920000000  0.4278630000000  0.4760080000000 1.0
C      1  0.5635450000000  0.4736750000000  0.4916710000000 1.0
C      1  0.5687390000000  0.5151290000000  0.5381770000000 1.0
C      1  0.5177490000000  0.5339490000000  0.5317600000000 1.0
C      1  0.5617810000000  0.5425960000000  0.4330350000000 1.0
C      1  0.5554170000000  0.5701870000000  0.4385510000000 1.0
C      1  0.5713470000000  0.5171830000000  0.4769730000000 1.0
C      1  0.5166540000000  0.5446780000000  0.6061630000000 1.0
C      1  0.5497710000000  0.3963520000000  0.4669140000000 1.0
C      1  0.6116580000000  0.4429420000000  0.4554910000000 1.0
C      1  0.4812610000000  0.5138670000000  0.3792000000000 1.0
C      1  0.4371470000000  0.4358850000000  0.4314940000000 1.0
C      1  0.5791910000000  0.4174870000000  0.4342780000000 1.0
C      1  0.5627660000000  0.5032860000000  0.4037170000000 1.0
C      1  0.5469930000000  0.4575940000000  0.4060470000000 1.0
C      1  0.5832420000000  0.4929120000000  0.4866320000000 1.0
C      1  0.6087040000000  0.4864530000000  0.4977180000000 1.0
C      1  0.4385780000000  0.5183060000000  0.5442940000000 1.0
C      1  0.6237810000000  0.4688580000000  0.4529520000000 1.0
C      1  0.5794530000000  0.5270470000000  0.4508090000000 1.0
C      1  0.6092670000000  0.4861070000000  0.4347190000000 1.0
C      1  0.4518240000000  0.4451130000000  0.5892820000000 1.0
C      1  0.3936480000000  0.5799760000000  0.5465350000000 1.0
C      1  0.5262550000000  0.5159900000000  0.4632490000000 1.0
C      1  0.4175100000000  0.5347050000000  0.4488540000000 1.0
C      1  0.6019110000000  0.4352480000000  0.5030260000000 1.0
C      1  0.4808070000000  0.3834560000000  0.5268190000000 1.0
C      1  0.4882330000000  0.5461460000000  0.6077210000000 1.0
C      1  0.4783400000000  0.4322520000000  0.4591960000000 1.0
C      1  0.5050090000000  0.4769330000000  0.6372770000000 1.0
C      1  0.4831400000000  0.5237220000000  0.5659320000000 1.0
C      1  0.5200480000000  0.5794320000000  0.5446070000000 1.0
C      1  0.5024170000000  0.5597260000000  0.4558050000000 1.0
C      1  0.4186190000000  0.5377540000000  0.5295040000000 1.0
C      1  0.3812870000000  0.5211400000000  0.5560220000000 1.0
C      1  0.5280200000000  0.4533360000000  0.4543960000000 1.0
C      1  0.5758320000000  0.5634680000000  0.5271110000000 1.0
C      1  0.5306240000000  0.3890970000000  0.5164330000000 1.0
C      1  0.5586820000000  0.4038340000000  0.4205410000000 1.0
C      1  0.5131580000000  0.5641690000000  0.4814210000000 1.0
C      1  0.5072010000000  0.3756400000000  0.4755560000000 1.0
C      1  0.4690370000000  0.4520710000000  0.6082110000000 1.0
C      1  0.3854340000000  0.4583620000000  0.5139590000000 1.0
C      1  0.4557400000000  0.3904950000000  0.5181660000000 1.0
C      1  0.3810900000000  0.4712930000000  0.4624450000000 1.0
C      1  0.4522220000000  0.6005450000000  0.4491350000000 1.0
C      1  0.4794150000000  0.4854740000000  0.5386960000000 1.0
C      1  0.5091680000000  0.4375600000000  0.4934400000000 1.0
C      1  0.5472260000000  0.4454430000000  0.5230180000000 1.0
C      1  0.3882420000000  0.5299110000000  0.5299200000000 1.0
C      1  0.5562520000000  0.4719930000000  0.5203060000000 1.0
C      1  0.4324440000000  0.5739700000000  0.4118900000000 1.0
C      1  0.3762490000000  0.5383180000000  0.5050310000000 1.0
C      1  0.4581040000000  0.6078470000000  0.4975780000000 1.0
C      1  0.4554870000000  0.4393650000000  0.4096530000000 1.0
C      1  0.4467150000000  0.5416450000000  0.4863380000000 1.0
C      1  0.4075310000000  0.4421860000000  0.5259170000000 1.0
C      1  0.5436110000000  0.5195950000000  0.4852600000000 1.0
C      1  0.5762690000000  0.4112240000000  0.4639530000000 1.0
C      1  0.4345730000000  0.4452880000000  0.5691590000000 1.0
C      1  0.5814590000000  0.3962550000000  0.5369890000000 1.0
C      1  0.3969330000000  0.5481660000000  0.4878600000000 1.0
C      1  0.5435300000000  0.5874370000000  0.4582280000000 1.0
C      1  0.4525950000000  0.4813940000000  0.4397250000000 1.0
C      1  0.5105020000000  0.3962230000000  0.4322820000000 1.0
C      1  0.5959900000000  0.5386390000000  0.5886690000000 1.0
C      1  0.5955070000000  0.4404070000000  0.4304080000000 1.0
C      1  0.4708950000000  0.5395820000000  0.5865850000000 1.0
C      1  0.5062180000000  0.3964830000000  0.5313400000000 1.0
C      1  0.4586800000000  0.4844890000000  0.4950090000000 1.0
C      1  0.4985390000000  0.4150160000000  0.4141620000000 1.0
C      1  0.4934100000000  0.3872640000000  0.4537740000000 1.0
C      1  0.6003310000000  0.5399350000000  0.5622730000000 1.0
C      1  0.4955350000000  0.5619080000000  0.5029960000000 1.0
C      1  0.4399680000000  0.5694560000000  0.5609960000000 1.0
C      1  0.4780580000000  0.6204510000000  0.5157560000000 1.0
C      1  0.5553450000000  0.3888020000000  0.5298550000000 1.0
C      1  0.4732640000000  0.6107720000000  0.5429020000000 1.0
C      1  0.5344240000000  0.5694510000000  0.5674920000000 1.0
C      1  0.4445570000000  0.4423150000000  0.3839910000000 1.0
C      1  0.5154330000000  0.5026600000000  0.4433360000000 1.0
C      1  0.5220390000000  0.6075640000000  0.4568420000000 1.0
C      1  0.5368090000000  0.4378760000000  0.4977740000000 1.0
C      1  0.4141820000000  0.5037510000000  0.4033000000000 1.0
C      1  0.4153840000000  0.4544200000000  0.5513370000000 1.0
C      1  0.4310990000000  0.5236700000000  0.3921210000000 1.0
END
