TITL C-612605-9286-811 -9.86128986302726e-05 125000 -462.58078718409 0 0 76 (C1) n - 1
REM
REM in /home/nfs/bkarasulu/CARBON/AIRSS/Generating-Clusters/TERSOFF/Only-C1/FIRE-HFTN
REM
REM
REM
REM
REM
REM ./C.cell (11c1c37f851c82e70ff6c80c92926a4b)
REM AIRSS Version 0.9.1 bugfix July 2018 build 013d7b7c2542+ Fri, 06 Jul 2018 19:26:36 +0100
REM compiler GCC version 9.2.1 20190827 (Red Hat 9.2.1-1)
REM options -cpp -mtune=generic -march=x86-64 -g -O0 -fpre-include=/usr/include/finclude/math-vector-fortran.h
REM seed 229778888 -1387400180 732655414 -1905636882 -550196879 2076154976 709108349 1474675772 -99827485 980858385 860588770 -536797142 592395967 -1544238895 -1918476818 -1848306913 -2019274233 31915962 1190229637 1504011756 665348190 384130579 -721755982 -388310917 -1490436273 -598892901 -349321086 1777715514 -1139095451 1717050351 1397453407 143540791 -394886186
REM
CELL 1.54180   50.00000   50.00000   50.00000   90.00000   90.00000   90.00000
LATT -1
SFAC C  
C      1  0.4495980000000  0.5353600000000  0.4903770000000 1.0
C      1  0.5245180000000  0.5874130000000  0.5404090000000 1.0
C      1  0.5092550000000  0.5493990000000  0.4282790000000 1.0
C      1  0.5187090000000  0.4643470000000  0.5913070000000 1.0
C      1  0.5503090000000  0.4578940000000  0.5567200000000 1.0
C      1  0.5140650000000  0.4567780000000  0.4114270000000 1.0
C      1  0.4639360000000  0.5591710000000  0.4836590000000 1.0
C      1  0.5082590000000  0.4094960000000  0.4239080000000 1.0
C      1  0.4685060000000  0.5151660000000  0.4145230000000 1.0
C      1  0.5040640000000  0.4895940000000  0.4851850000000 1.0
C      1  0.4505170000000  0.5381050000000  0.5425820000000 1.0
C      1  0.5365700000000  0.5456240000000  0.4211390000000 1.0
C      1  0.4985750000000  0.4348220000000  0.4214070000000 1.0
C      1  0.4747340000000  0.5654890000000  0.4585740000000 1.0
C      1  0.5321490000000  0.5927120000000  0.5151840000000 1.0
C      1  0.4789770000000  0.5694160000000  0.5055900000000 1.0
C      1  0.5300850000000  0.5904860000000  0.4884980000000 1.0
C      1  0.5402430000000  0.4623390000000  0.4192850000000 1.0
C      1  0.5538830000000  0.4571400000000  0.5058370000000 1.0
C      1  0.4357940000000  0.4556770000000  0.5642400000000 1.0
C      1  0.4237510000000  0.4495470000000  0.4909180000000 1.0
C      1  0.4907410000000  0.5058500000000  0.5943910000000 1.0
C      1  0.4995870000000  0.5519380000000  0.5134440000000 1.0
C      1  0.4414620000000  0.4411710000000  0.5406410000000 1.0
C      1  0.5085550000000  0.5754410000000  0.5584210000000 1.0
C      1  0.4548820000000  0.5126940000000  0.4744180000000 1.0
C      1  0.4892310000000  0.5341230000000  0.4153630000000 1.0
C      1  0.4422000000000  0.5332550000000  0.5175710000000 1.0
C      1  0.5487940000000  0.5323170000000  0.3702320000000 1.0
C      1  0.4979440000000  0.4679420000000  0.5363140000000 1.0
C      1  0.4699970000000  0.4621640000000  0.5991390000000 1.0
C      1  0.4800080000000  0.4147470000000  0.5587670000000 1.0
C      1  0.5622710000000  0.5208820000000  0.5610470000000 1.0
C      1  0.5175150000000  0.4354610000000  0.5831670000000 1.0
C      1  0.5429800000000  0.5398180000000  0.3945020000000 1.0
C      1  0.4945470000000  0.4779900000000  0.5981440000000 1.0
C      1  0.5735140000000  0.5699200000000  0.4407670000000 1.0
C      1  0.4453740000000  0.5001890000000  0.5831130000000 1.0
C      1  0.5723990000000  0.5318580000000  0.5107000000000 1.0
C      1  0.5639440000000  0.5253900000000  0.4571590000000 1.0
C      1  0.5379660000000  0.4544740000000  0.4839410000000 1.0
C      1  0.5015360000000  0.5669250000000  0.4494350000000 1.0
C      1  0.5455050000000  0.4678130000000  0.5306440000000 1.0
C      1  0.5572680000000  0.4783910000000  0.4319510000000 1.0
C      1  0.5578300000000  0.5474300000000  0.4401090000000 1.0
C      1  0.4725060000000  0.5933570000000  0.5168810000000 1.0
C      1  0.5397330000000  0.4322700000000  0.5650950000000 1.0
C      1  0.4921110000000  0.4226020000000  0.5831810000000 1.0
C      1  0.4442210000000  0.5200430000000  0.4284550000000 1.0
C      1  0.4400930000000  0.4759500000000  0.4472330000000 1.0
C      1  0.4741170000000  0.4343250000000  0.6018290000000 1.0
C      1  0.5418980000000  0.4764020000000  0.5783560000000 1.0
C      1  0.4594870000000  0.4675520000000  0.4277750000000 1.0
C      1  0.4982800000000  0.4778140000000  0.4007940000000 1.0
C      1  0.4398700000000  0.5044340000000  0.4518030000000 1.0
C      1  0.4719940000000  0.4420930000000  0.4283760000000 1.0
C      1  0.4685400000000  0.5394130000000  0.5643650000000 1.0
C      1  0.4884440000000  0.5593940000000  0.5660690000000 1.0
C      1  0.5208330000000  0.4827980000000  0.5288240000000 1.0
C      1  0.4855080000000  0.4462490000000  0.5228990000000 1.0
C      1  0.4678580000000  0.5176450000000  0.5824760000000 1.0
C      1  0.5697810000000  0.5300360000000  0.5371540000000 1.0
C      1  0.5519490000000  0.5024320000000  0.5773920000000 1.0
C      1  0.4680390000000  0.4305500000000  0.5385320000000 1.0
C      1  0.5196490000000  0.5817450000000  0.4653700000000 1.0
C      1  0.4267040000000  0.4437840000000  0.5168400000000 1.0
C      1  0.5645910000000  0.4996480000000  0.4461140000000 1.0
C      1  0.5104260000000  0.4615520000000  0.4821710000000 1.0
C      1  0.4284300000000  0.4591050000000  0.4664200000000 1.0
C      1  0.5696450000000  0.5294990000000  0.4843280000000 1.0
C      1  0.4803910000000  0.5008630000000  0.4760010000000 1.0
C      1  0.4921150000000  0.4441010000000  0.4954770000000 1.0
C      1  0.5157480000000  0.5018220000000  0.5084530000000 1.0
C      1  0.5131740000000  0.5291150000000  0.5130690000000 1.0
C      1  0.4473350000000  0.4719550000000  0.5842130000000 1.0
C      1  0.4739860000000  0.4872920000000  0.4116280000000 1.0
END
