TITL C-612604-1799-966 -0.100587472699916 125000 -933.396757640082 0 0 151 (C1) n - 1
REM
REM in /home/nfs/bkarasulu/CARBON/AIRSS/Generating-Clusters/TERSOFF/Only-C1/FIRE-HFTN
REM
REM
REM
REM
REM
REM ./C.cell (11c1c37f851c82e70ff6c80c92926a4b)
REM AIRSS Version 0.9.1 bugfix July 2018 build 013d7b7c2542+ Fri, 06 Jul 2018 19:26:36 +0100
REM compiler GCC version 9.2.1 20190827 (Red Hat 9.2.1-1)
REM options -cpp -mtune=generic -march=x86-64 -g -O0 -fpre-include=/usr/include/finclude/math-vector-fortran.h
REM seed -129090013 1947910870 -94051230 -1351626167 -1687415751 771301768 159045728 2053248906 -1741318903 -374576419 1684130860 -48384576 1597839937 1042202360 -655727698 -1124284157 -1302234884 -1510013353 -513808464 1023091606 1359695646 -1834758636 -1449797776 -329092143 1426855241 -468398946 1062898028 1394859495 -832102203 1753311232 1523454073 -1042864032 -1200386030
REM
CELL 1.54180   50.00000   50.00000   50.00000   90.00000   90.00000   90.00000
LATT -1
SFAC C  
C      1  0.4573520000000  0.5760800000000  0.4545530000000 1.0
C      1  0.5563810000000  0.6095240000000  0.6121450000000 1.0
C      1  0.5823010000000  0.5428020000000  0.5848730000000 1.0
C      1  0.5594020000000  0.4187610000000  0.5268040000000 1.0
C      1  0.5193110000000  0.4950640000000  0.4323970000000 1.0
C      1  0.4014760000000  0.4347260000000  0.5205980000000 1.0
C      1  0.4706090000000  0.5446580000000  0.5207330000000 1.0
C      1  0.4850440000000  0.4585820000000  0.5890840000000 1.0
C      1  0.4996120000000  0.4967320000000  0.5633540000000 1.0
C      1  0.4321260000000  0.5720750000000  0.4391350000000 1.0
C      1  0.5647030000000  0.5891360000000  0.5948910000000 1.0
C      1  0.5636360000000  0.5355740000000  0.4449470000000 1.0
C      1  0.5381610000000  0.4031140000000  0.5660270000000 1.0
C      1  0.4139660000000  0.5375980000000  0.3994990000000 1.0
C      1  0.5963660000000  0.4369550000000  0.5577370000000 1.0
C      1  0.5435980000000  0.5071050000000  0.5559900000000 1.0
C      1  0.4339240000000  0.4546330000000  0.4263950000000 1.0
C      1  0.3801630000000  0.4461330000000  0.4340670000000 1.0
C      1  0.6050740000000  0.5539270000000  0.5114130000000 1.0
C      1  0.4863390000000  0.5197420000000  0.5600890000000 1.0
C      1  0.4757390000000  0.5929140000000  0.5265330000000 1.0
C      1  0.4640720000000  0.4801110000000  0.5862000000000 1.0
C      1  0.5420160000000  0.5445740000000  0.4926820000000 1.0
C      1  0.5006640000000  0.5798420000000  0.5683750000000 1.0
C      1  0.6094940000000  0.5158340000000  0.4744700000000 1.0
C      1  0.4526000000000  0.4824630000000  0.5594430000000 1.0
C      1  0.4764520000000  0.5831090000000  0.5536700000000 1.0
C      1  0.5136100000000  0.4665050000000  0.5977350000000 1.0
C      1  0.4807200000000  0.4657350000000  0.4947910000000 1.0
C      1  0.5929130000000  0.3988540000000  0.4803980000000 1.0
C      1  0.4516770000000  0.4676360000000  0.4913320000000 1.0
C      1  0.4794180000000  0.5597860000000  0.4480400000000 1.0
C      1  0.4004260000000  0.5255720000000  0.5228020000000 1.0
C      1  0.4082720000000  0.5807280000000  0.4524770000000 1.0
C      1  0.5401240000000  0.5258450000000  0.5359240000000 1.0
C      1  0.4912580000000  0.4484080000000  0.4737270000000 1.0
C      1  0.4538990000000  0.5184860000000  0.4106960000000 1.0
C      1  0.5065830000000  0.6014260000000  0.4891620000000 1.0
C      1  0.5438690000000  0.4737880000000  0.4952870000000 1.0
C      1  0.5478980000000  0.4918630000000  0.4356680000000 1.0
C      1  0.5667360000000  0.4081570000000  0.4782630000000 1.0
C      1  0.3875410000000  0.5298840000000  0.4983290000000 1.0
C      1  0.5716070000000  0.5689310000000  0.5772900000000 1.0
C      1  0.4741890000000  0.5609860000000  0.3889300000000 1.0
C      1  0.4429580000000  0.5136340000000  0.4996180000000 1.0
C      1  0.3935600000000  0.4619650000000  0.4535560000000 1.0
C      1  0.5372520000000  0.5189010000000  0.6041960000000 1.0
C      1  0.5019310000000  0.4741750000000  0.4239750000000 1.0
C      1  0.5391930000000  0.5715490000000  0.5068190000000 1.0
C      1  0.3872750000000  0.4503280000000  0.5042910000000 1.0
C      1  0.5292210000000  0.4972100000000  0.4881030000000 1.0
C      1  0.5111170000000  0.4502740000000  0.5294520000000 1.0
C      1  0.5836750000000  0.5950890000000  0.4839160000000 1.0
C      1  0.4604730000000  0.4479150000000  0.4343360000000 1.0
C      1  0.4524900000000  0.5275290000000  0.5977300000000 1.0
C      1  0.5178300000000  0.4952130000000  0.6085230000000 1.0
C      1  0.5883520000000  0.4936300000000  0.5543970000000 1.0
C      1  0.4438080000000  0.4199900000000  0.5015640000000 1.0
C      1  0.4661240000000  0.5302070000000  0.4970090000000 1.0
C      1  0.4752250000000  0.4627750000000  0.3599390000000 1.0
C      1  0.4545030000000  0.5701590000000  0.5666840000000 1.0
C      1  0.5591800000000  0.6063400000000  0.6391920000000 1.0
C      1  0.5139470000000  0.5282510000000  0.5246140000000 1.0
C      1  0.4960980000000  0.4253080000000  0.4134910000000 1.0
C      1  0.3882990000000  0.5621820000000  0.4585380000000 1.0
C      1  0.4178750000000  0.4674340000000  0.3827530000000 1.0
C      1  0.4819150000000  0.4097770000000  0.5302010000000 1.0
C      1  0.5530110000000  0.5764160000000  0.5312550000000 1.0
C      1  0.4799610000000  0.5960980000000  0.4979640000000 1.0
C      1  0.4655580000000  0.4388400000000  0.4608320000000 1.0
C      1  0.4876840000000  0.4398420000000  0.3664000000000 1.0
C      1  0.3920360000000  0.4378650000000  0.4110650000000 1.0
C      1  0.6146370000000  0.4018270000000  0.4956160000000 1.0
C      1  0.5811480000000  0.5133590000000  0.5117820000000 1.0
C      1  0.5101900000000  0.5226270000000  0.4342030000000 1.0
C      1  0.5244360000000  0.4871520000000  0.5559500000000 1.0
C      1  0.4194570000000  0.4713480000000  0.4453280000000 1.0
C      1  0.4783970000000  0.4333530000000  0.5757880000000 1.0
C      1  0.5549840000000  0.4740190000000  0.5218230000000 1.0
C      1  0.5449410000000  0.3966600000000  0.5397150000000 1.0
C      1  0.4678190000000  0.4691130000000  0.5400290000000 1.0
C      1  0.4343370000000  0.5005420000000  0.5476150000000 1.0
C      1  0.3820440000000  0.5429840000000  0.4758870000000 1.0
C      1  0.5454390000000  0.6323830000000  0.6017820000000 1.0
C      1  0.3853010000000  0.4615340000000  0.4802040000000 1.0
C      1  0.5583330000000  0.6044430000000  0.4802800000000 1.0
C      1  0.5027870000000  0.4086600000000  0.4365530000000 1.0
C      1  0.5524380000000  0.5478280000000  0.4657230000000 1.0
C      1  0.5348020000000  0.4482030000000  0.5901290000000 1.0
C      1  0.4336430000000  0.4899680000000  0.3767740000000 1.0
C      1  0.6042080000000  0.4470430000000  0.5819390000000 1.0
C      1  0.6155170000000  0.4272670000000  0.5396900000000 1.0
C      1  0.4482760000000  0.5503160000000  0.5839400000000 1.0
C      1  0.4263300000000  0.4225410000000  0.5242220000000 1.0
C      1  0.5181770000000  0.4396200000000  0.4700710000000 1.0
C      1  0.4577370000000  0.4829560000000  0.3633760000000 1.0
C      1  0.5069900000000  0.4225850000000  0.5285030000000 1.0
C      1  0.4409510000000  0.4918240000000  0.4823340000000 1.0
C      1  0.4914070000000  0.5043820000000  0.6175090000000 1.0
C      1  0.6002990000000  0.5767920000000  0.4949030000000 1.0
C      1  0.5562850000000  0.4255540000000  0.4988230000000 1.0
C      1  0.5213970000000  0.5565720000000  0.3947010000000 1.0
C      1  0.4347240000000  0.4931540000000  0.4549350000000 1.0
C      1  0.5397200000000  0.4470310000000  0.4871860000000 1.0
C      1  0.4308610000000  0.5134960000000  0.3927330000000 1.0
C      1  0.5983460000000  0.5563930000000  0.5398940000000 1.0
C      1  0.5791040000000  0.4892130000000  0.5272220000000 1.0
C      1  0.5249620000000  0.4186500000000  0.4514360000000 1.0
C      1  0.5687630000000  0.4336370000000  0.5515320000000 1.0
C      1  0.4926770000000  0.5354770000000  0.4533760000000 1.0
C      1  0.5703620000000  0.5082240000000  0.4425060000000 1.0
C      1  0.5136260000000  0.5648670000000  0.5866170000000 1.0
C      1  0.4781660000000  0.3921410000000  0.4806720000000 1.0
C      1  0.5322020000000  0.4664370000000  0.5387580000000 1.0
C      1  0.5666590000000  0.5015020000000  0.5710060000000 1.0
C      1  0.4853380000000  0.4512310000000  0.4210210000000 1.0
C      1  0.4963370000000  0.4226220000000  0.3854190000000 1.0
C      1  0.6029060000000  0.5270330000000  0.4997230000000 1.0
C      1  0.4350030000000  0.6090560000000  0.4815650000000 1.0
C      1  0.4667900000000  0.4176940000000  0.5542050000000 1.0
C      1  0.4587250000000  0.5937200000000  0.4781810000000 1.0
C      1  0.4679360000000  0.4039570000000  0.5049290000000 1.0
C      1  0.4904660000000  0.5280070000000  0.4806960000000 1.0
C      1  0.4387540000000  0.4181940000000  0.5493290000000 1.0
C      1  0.4904430000000  0.5351350000000  0.5375780000000 1.0
C      1  0.4172120000000  0.4487800000000  0.4036830000000 1.0
C      1  0.4315380000000  0.5572760000000  0.4144370000000 1.0
C      1  0.5236940000000  0.5442710000000  0.6006420000000 1.0
C      1  0.5746340000000  0.5719250000000  0.5486290000000 1.0
C      1  0.4856250000000  0.3934000000000  0.4542740000000 1.0
C      1  0.6228610000000  0.4135860000000  0.5180870000000 1.0
C      1  0.5225730000000  0.5396820000000  0.4153120000000 1.0
C      1  0.4995690000000  0.5662730000000  0.3825230000000 1.0
C      1  0.4456940000000  0.4406340000000  0.4821050000000 1.0
C      1  0.5586920000000  0.5298400000000  0.5141100000000 1.0
C      1  0.4579080000000  0.5470710000000  0.4065270000000 1.0
C      1  0.5168710000000  0.5250970000000  0.4947040000000 1.0
C      1  0.5483100000000  0.4295700000000  0.5734170000000 1.0
C      1  0.5496590000000  0.4057240000000  0.4558400000000 1.0
C      1  0.5651390000000  0.5198110000000  0.5931610000000 1.0
C      1  0.4666650000000  0.5035120000000  0.6032230000000 1.0
C      1  0.4117520000000  0.6036790000000  0.4687460000000 1.0
C      1  0.4263200000000  0.5136630000000  0.5235140000000 1.0
C      1  0.4880900000000  0.4646560000000  0.5215540000000 1.0
C      1  0.6104840000000  0.5109900000000  0.5583610000000 1.0
C      1  0.5954550000000  0.5030190000000  0.4548570000000 1.0
C      1  0.4507030000000  0.5071110000000  0.4362750000000 1.0
C      1  0.5337680000000  0.5943420000000  0.4905400000000 1.0
C      1  0.3882230000000  0.5333240000000  0.5460780000000 1.0
C      1  0.6033260000000  0.5381720000000  0.5630290000000 1.0
C      1  0.3877830000000  0.5410090000000  0.3932920000000 1.0
END
