TITL C-612601-4209-65 98.2747468197497 125000 -714.269316920591 0 0 116 (C1) n - 1
REM
REM in /home/nfs/bkarasulu/CARBON/AIRSS/Generating-Clusters/TERSOFF/Only-C1/FIRE-HFTN
REM
REM
REM
REM
REM
REM ./C.cell (11c1c37f851c82e70ff6c80c92926a4b)
REM AIRSS Version 0.9.1 bugfix July 2018 build 013d7b7c2542+ Fri, 06 Jul 2018 19:26:36 +0100
REM compiler GCC version 9.2.1 20190827 (Red Hat 9.2.1-1)
REM options -cpp -mtune=generic -march=x86-64 -g -O0 -fpre-include=/usr/include/finclude/math-vector-fortran.h
REM seed 1572791303 -1927548655 697731368 -795204796 -468312103 -1179638778 1430007831 407122684 -194807728 -1230690726 -627537763 423552866 -2078455408 1285846335 1885231900 930574944 -1279028256 1753751374 -256400592 -294541830 579768655 21677264 -646600410 -525420985 -1897840820 1110084630 2120825528 -1748730067 -1816338623 48370804 -618319655 1990059178 946744550
REM
CELL 1.54180   50.00000   50.00000   50.00000   90.00000   90.00000   90.00000
LATT -1
SFAC C  
C      1  0.3745520000000  0.4521980000000  0.4757660000000 1.0
C      1  0.5383920000000  0.5386510000000  0.4799180000000 1.0
C      1  0.5538970000000  0.5043700000000  0.4183490000000 1.0
C      1  0.7142790000000  0.4985890000000  0.5598030000000 1.0
C      1  0.5313950000000  0.4670060000000  0.4428460000000 1.0
C      1  0.4155120000000  0.4551280000000  0.4315440000000 1.0
C      1  0.4047120000000  0.5518580000000  0.4769250000000 1.0
C      1  0.5022680000000  0.4115610000000  0.4193730000000 1.0
C      1  0.5434260000000  0.4855550000000  0.5284350000000 1.0
C      1  0.4265710000000  0.5561870000000  0.5613740000000 1.0
C      1  0.5415250000000  0.4155860000000  0.5336600000000 1.0
C      1  0.5584420000000  0.5698930000000  0.5690150000000 1.0
C      1  0.5244600000000  0.4177440000000  0.5105640000000 1.0
C      1  0.5367100000000  0.4805920000000  0.5009530000000 1.0
C      1  0.3902200000000  0.4752700000000  0.5343630000000 1.0
C      1  0.4554310000000  0.5553860000000  0.5653100000000 1.0
C      1  0.4000690000000  0.4137420000000  0.4899220000000 1.0
C      1  0.4228230000000  0.4955900000000  0.4052770000000 1.0
C      1  0.4684610000000  0.4838820000000  0.5014930000000 1.0
C      1  0.5577810000000  0.4980240000000  0.5929750000000 1.0
C      1  0.4833400000000  0.5019020000000  0.4155370000000 1.0
C      1  0.5124260000000  0.5415930000000  0.4090650000000 1.0
C      1  0.4339650000000  0.5139680000000  0.4706050000000 1.0
C      1  0.5172950000000  0.4022710000000  0.4395570000000 1.0
C      1  0.4826400000000  0.4748850000000  0.4571980000000 1.0
C      1  0.3964690000000  0.4515630000000  0.5449880000000 1.0
C      1  0.4709490000000  0.4935910000000  0.4392720000000 1.0
C      1  0.5813090000000  0.4225420000000  0.4729320000000 1.0
C      1  0.6631310000000  0.4986720000000  0.5737140000000 1.0
C      1  0.4297180000000  0.5635030000000  0.4691620000000 1.0
C      1  0.5301770000000  0.4791310000000  0.5527150000000 1.0
C      1  0.3948610000000  0.5582500000000  0.5037000000000 1.0
C      1  0.5856360000000  0.4981200000000  0.5909280000000 1.0
C      1  0.6064090000000  0.5511530000000  0.4373450000000 1.0
C      1  0.5198150000000  0.4372050000000  0.5721380000000 1.0
C      1  0.4885180000000  0.5652840000000  0.6051040000000 1.0
C      1  0.4496360000000  0.5569680000000  0.4902800000000 1.0
C      1  0.4661290000000  0.4359730000000  0.3951950000000 1.0
C      1  0.5450480000000  0.5167520000000  0.6093300000000 1.0
C      1  0.5117740000000  0.4486450000000  0.3897410000000 1.0
C      1  0.4529110000000  0.6040980000000  0.5025830000000 1.0
C      1  0.5859050000000  0.5351090000000  0.4384740000000 1.0
C      1  0.5632650000000  0.5187750000000  0.4411930000000 1.0
C      1  0.4874790000000  0.5452360000000  0.5268770000000 1.0
C      1  0.5710620000000  0.4937060000000  0.5307620000000 1.0
C      1  0.4010050000000  0.4260360000000  0.5383880000000 1.0
C      1  0.5288950000000  0.5358430000000  0.6180990000000 1.0
C      1  0.5453080000000  0.5823880000000  0.5002680000000 1.0
C      1  0.4450430000000  0.5054040000000  0.4455990000000 1.0
C      1  0.3922390000000  0.5907150000000  0.5851290000000 1.0
C      1  0.4854610000000  0.5731010000000  0.5207780000000 1.0
C      1  0.5355950000000  0.4528280000000  0.5906060000000 1.0
C      1  0.5270180000000  0.4012240000000  0.4879730000000 1.0
C      1  0.4525010000000  0.5274960000000  0.4878390000000 1.0
C      1  0.5535390000000  0.5549730000000  0.4971450000000 1.0
C      1  0.5093550000000  0.4420360000000  0.5079510000000 1.0
C      1  0.4422170000000  0.4521450000000  0.4721220000000 1.0
C      1  0.5508180000000  0.4470590000000  0.4461060000000 1.0
C      1  0.5095140000000  0.5408530000000  0.4800440000000 1.0
C      1  0.4315530000000  0.5162210000000  0.4225220000000 1.0
C      1  0.5351910000000  0.4051270000000  0.4612900000000 1.0
C      1  0.4090950000000  0.5736710000000  0.5738520000000 1.0
C      1  0.4643500000000  0.4680920000000  0.4780700000000 1.0
C      1  0.5355410000000  0.4826280000000  0.4195290000000 1.0
C      1  0.4950890000000  0.5295600000000  0.5034640000000 1.0
C      1  0.6887020000000  0.4986310000000  0.5667600000000 1.0
C      1  0.5179580000000  0.4623230000000  0.4897330000000 1.0
C      1  0.4188680000000  0.5358040000000  0.5419420000000 1.0
C      1  0.5575330000000  0.4227890000000  0.4580250000000 1.0
C      1  0.5512210000000  0.5667180000000  0.5424340000000 1.0
C      1  0.5156230000000  0.5536490000000  0.4329170000000 1.0
C      1  0.4720730000000  0.5614150000000  0.4482320000000 1.0
C      1  0.4974270000000  0.5203830000000  0.4023550000000 1.0
C      1  0.5673850000000  0.4269960000000  0.5324810000000 1.0
C      1  0.4731810000000  0.4694200000000  0.5249220000000 1.0
C      1  0.5293250000000  0.4140310000000  0.5593070000000 1.0
C      1  0.5524120000000  0.4939730000000  0.4818890000000 1.0
C      1  0.5639190000000  0.5114240000000  0.3936820000000 1.0
C      1  0.4949280000000  0.4526680000000  0.5304450000000 1.0
C      1  0.7394360000000  0.4985480000000  0.5529610000000 1.0
C      1  0.5070800000000  0.5891610000000  0.5289210000000 1.0
C      1  0.5349460000000  0.5860380000000  0.5270860000000 1.0
C      1  0.3756320000000  0.6075030000000  0.5961760000000 1.0
C      1  0.4021840000000  0.4106950000000  0.5164660000000 1.0
C      1  0.4673940000000  0.5366970000000  0.5457450000000 1.0
C      1  0.5854650000000  0.4442680000000  0.5192010000000 1.0
C      1  0.3989420000000  0.5359060000000  0.5219960000000 1.0
C      1  0.5620570000000  0.5463060000000  0.5241200000000 1.0
C      1  0.5885110000000  0.4714890000000  0.5273100000000 1.0
C      1  0.5259570000000  0.4703880000000  0.3960050000000 1.0
C      1  0.4931650000000  0.4304250000000  0.4004260000000 1.0
C      1  0.4736980000000  0.5116820000000  0.4976390000000 1.0
C      1  0.5093920000000  0.5537800000000  0.6167780000000 1.0
C      1  0.5693280000000  0.5765180000000  0.5917540000000 1.0
C      1  0.4436930000000  0.5608860000000  0.4440420000000 1.0
C      1  0.5426350000000  0.4786980000000  0.5794740000000 1.0
C      1  0.4448060000000  0.4520530000000  0.3943600000000 1.0
C      1  0.3966230000000  0.4351140000000  0.4720030000000 1.0
C      1  0.3704150000000  0.4740130000000  0.4907060000000 1.0
C      1  0.6118160000000  0.4985570000000  0.5869390000000 1.0
C      1  0.4070730000000  0.5216600000000  0.4777130000000 1.0
C      1  0.5100260000000  0.4677270000000  0.4620810000000 1.0
C      1  0.4696760000000  0.5662790000000  0.5864530000000 1.0
C      1  0.4256860000000  0.4673140000000  0.4082360000000 1.0
C      1  0.6375460000000  0.4986910000000  0.5806120000000 1.0
C      1  0.4324860000000  0.5446680000000  0.4231370000000 1.0
C      1  0.4626450000000  0.5785450000000  0.5043630000000 1.0
C      1  0.5105620000000  0.4574520000000  0.5530980000000 1.0
C      1  0.5745250000000  0.5217570000000  0.5300530000000 1.0
C      1  0.5930190000000  0.4348840000000  0.4937040000000 1.0
C      1  0.3844200000000  0.4885610000000  0.5102750000000 1.0
C      1  0.4186940000000  0.4460570000000  0.4579030000000 1.0
C      1  0.4438840000000  0.5211050000000  0.5381840000000 1.0
C      1  0.3963450000000  0.5129690000000  0.5036660000000 1.0
C      1  0.5512290000000  0.5172050000000  0.4666880000000 1.0
C      1  0.4983350000000  0.5530700000000  0.4555650000000 1.0
END
