TITL C-612600-6631-1001 14.7146277077502 125000 -1101.31882589129 0 0 181 (C1) n - 1
REM
REM in /home/nfs/bkarasulu/CARBON/AIRSS/Generating-Clusters/TERSOFF/Only-C1/FIRE-HFTN
REM
REM
REM
REM
REM
REM ./C.cell (11c1c37f851c82e70ff6c80c92926a4b)
REM AIRSS Version 0.9.1 bugfix July 2018 build 013d7b7c2542+ Fri, 06 Jul 2018 19:26:36 +0100
REM compiler GCC version 9.2.1 20190827 (Red Hat 9.2.1-1)
REM options -cpp -mtune=generic -march=x86-64 -g -O0 -fpre-include=/usr/include/finclude/math-vector-fortran.h
REM seed -742426126 -1700604372 -1897613472 11135655 -485176910 -1662571401 132314210 -381630934 1329350983 305924980 407647459 963906914 -57221337 1845404208 -725125755 513807252 -896922125 -669769708 2052032104 1311211059 -462140435 2020248119 -2097234331 -556557961 267804135 -1053287720 1877929726 1935466745 -2058877895 -1369232241 373927064 722126499 -1009604522
REM
CELL 1.54180   50.00000   50.00000   50.00000   90.00000   90.00000   90.00000
LATT -1
SFAC C  
C      1  0.4898460000000  0.4110760000000  0.5426690000000 1.0
C      1  0.3743240000000  0.5350170000000  0.5101940000000 1.0
C      1  0.5418730000000  0.3757530000000  0.4615530000000 1.0
C      1  0.4435780000000  0.5510260000000  0.4254170000000 1.0
C      1  0.5290630000000  0.6081130000000  0.5128900000000 1.0
C      1  0.5574790000000  0.4909310000000  0.6145170000000 1.0
C      1  0.5073530000000  0.4546140000000  0.5138390000000 1.0
C      1  0.4863150000000  0.4517280000000  0.4911720000000 1.0
C      1  0.5305670000000  0.5388500000000  0.4169870000000 1.0
C      1  0.3923860000000  0.5616040000000  0.5471940000000 1.0
C      1  0.5017090000000  0.4604930000000  0.3789490000000 1.0
C      1  0.4766460000000  0.5152500000000  0.5086730000000 1.0
C      1  0.4853600000000  0.5371230000000  0.4597380000000 1.0
C      1  0.4637570000000  0.5000030000000  0.5514670000000 1.0
C      1  0.4599350000000  0.4022470000000  0.4076610000000 1.0
C      1  0.6021470000000  0.4611500000000  0.5529250000000 1.0
C      1  0.5265890000000  0.5343280000000  0.5413920000000 1.0
C      1  0.5786180000000  0.4979280000000  0.5732860000000 1.0
C      1  0.4920660000000  0.4826280000000  0.3677190000000 1.0
C      1  0.5534200000000  0.4994120000000  0.4586800000000 1.0
C      1  0.5152830000000  0.5609010000000  0.4333090000000 1.0
C      1  0.5145590000000  0.4945320000000  0.4785660000000 1.0
C      1  0.5835620000000  0.5788380000000  0.5194690000000 1.0
C      1  0.3741660000000  0.4998860000000  0.4746680000000 1.0
C      1  0.4805110000000  0.5927330000000  0.4669580000000 1.0
C      1  0.4548770000000  0.5006380000000  0.4691350000000 1.0
C      1  0.4044660000000  0.5027150000000  0.4317330000000 1.0
C      1  0.5035480000000  0.3818290000000  0.4256870000000 1.0
C      1  0.4239740000000  0.5652790000000  0.4421120000000 1.0
C      1  0.6339040000000  0.5328620000000  0.4817450000000 1.0
C      1  0.5594750000000  0.4309940000000  0.5643910000000 1.0
C      1  0.5918200000000  0.5053430000000  0.4147780000000 1.0
C      1  0.4639650000000  0.4349870000000  0.4930920000000 1.0
C      1  0.5670980000000  0.5693600000000  0.4280890000000 1.0
C      1  0.4529290000000  0.5724840000000  0.5307660000000 1.0
C      1  0.4572940000000  0.5247610000000  0.6245200000000 1.0
C      1  0.4839760000000  0.5096400000000  0.5352600000000 1.0
C      1  0.4986140000000  0.4370510000000  0.5357860000000 1.0
C      1  0.4520240000000  0.5886970000000  0.5907390000000 1.0
C      1  0.5755160000000  0.3809190000000  0.5015740000000 1.0
C      1  0.5222420000000  0.3742960000000  0.4433730000000 1.0
C      1  0.5659090000000  0.4409470000000  0.3900490000000 1.0
C      1  0.4070360000000  0.5332230000000  0.4698460000000 1.0
C      1  0.5016670000000  0.4705580000000  0.5882800000000 1.0
C      1  0.5847120000000  0.4701610000000  0.5741810000000 1.0
C      1  0.4821580000000  0.5038360000000  0.6262700000000 1.0
C      1  0.5741900000000  0.6051540000000  0.5304830000000 1.0
C      1  0.5705990000000  0.5027360000000  0.5208140000000 1.0
C      1  0.4300400000000  0.5220580000000  0.6106700000000 1.0
C      1  0.4222440000000  0.5922680000000  0.5002220000000 1.0
C      1  0.5655410000000  0.5099960000000  0.5952430000000 1.0
C      1  0.4029880000000  0.4951650000000  0.5128870000000 1.0
C      1  0.5271190000000  0.4397670000000  0.4707940000000 1.0
C      1  0.4998080000000  0.5116950000000  0.4933870000000 1.0
C      1  0.6037370000000  0.5684290000000  0.5377800000000 1.0
C      1  0.4227820000000  0.4435610000000  0.5466180000000 1.0
C      1  0.5507530000000  0.4318810000000  0.4577530000000 1.0
C      1  0.5009300000000  0.5163460000000  0.6058500000000 1.0
C      1  0.4141860000000  0.4796260000000  0.5860600000000 1.0
C      1  0.4718390000000  0.5312200000000  0.3671090000000 1.0
C      1  0.5299430000000  0.4406100000000  0.4995860000000 1.0
C      1  0.5418790000000  0.4945880000000  0.4330690000000 1.0
C      1  0.5402040000000  0.4350210000000  0.3928450000000 1.0
C      1  0.4311990000000  0.4997820000000  0.4205340000000 1.0
C      1  0.4979140000000  0.4288930000000  0.4164990000000 1.0
C      1  0.4880970000000  0.4018800000000  0.4134850000000 1.0
C      1  0.4255730000000  0.5283230000000  0.4905510000000 1.0
C      1  0.4693300000000  0.4296000000000  0.5829640000000 1.0
C      1  0.4488550000000  0.5842740000000  0.5055130000000 1.0
C      1  0.5161480000000  0.6133370000000  0.4883570000000 1.0
C      1  0.5933120000000  0.4235710000000  0.4869710000000 1.0
C      1  0.5563340000000  0.6176060000000  0.5126580000000 1.0
C      1  0.4642910000000  0.5619550000000  0.4083850000000 1.0
C      1  0.5224410000000  0.5835570000000  0.5265450000000 1.0
C      1  0.5077890000000  0.6002040000000  0.4648940000000 1.0
C      1  0.5692840000000  0.5713100000000  0.4956790000000 1.0
C      1  0.4650780000000  0.5760360000000  0.4836090000000 1.0
C      1  0.5900060000000  0.5279220000000  0.4575080000000 1.0
C      1  0.5035720000000  0.4809440000000  0.4574950000000 1.0
C      1  0.4572340000000  0.4286550000000  0.4462740000000 1.0
C      1  0.5623220000000  0.4527660000000  0.5838650000000 1.0
C      1  0.4959580000000  0.3891030000000  0.5277420000000 1.0
C      1  0.5617590000000  0.5266320000000  0.4623460000000 1.0
C      1  0.3922440000000  0.5480800000000  0.5742130000000 1.0
C      1  0.4481310000000  0.5223250000000  0.4276310000000 1.0
C      1  0.4985050000000  0.5441530000000  0.6106150000000 1.0
C      1  0.6050990000000  0.5874700000000  0.5595860000000 1.0
C      1  0.4672350000000  0.5484910000000  0.4786950000000 1.0
C      1  0.4708950000000  0.5502100000000  0.6150130000000 1.0
C      1  0.4442740000000  0.6134940000000  0.5886950000000 1.0
C      1  0.6122570000000  0.4696980000000  0.4842790000000 1.0
C      1  0.3882100000000  0.5594650000000  0.5171310000000 1.0
C      1  0.6115870000000  0.5416010000000  0.4692970000000 1.0
C      1  0.4473690000000  0.4243690000000  0.4731850000000 1.0
C      1  0.5460100000000  0.5541740000000  0.4978990000000 1.0
C      1  0.4738960000000  0.4719250000000  0.4237940000000 1.0
C      1  0.5299170000000  0.5560550000000  0.5217590000000 1.0
C      1  0.5592230000000  0.5453410000000  0.4142170000000 1.0
C      1  0.3873290000000  0.4869940000000  0.5915100000000 1.0
C      1  0.5678130000000  0.5913700000000  0.4738150000000 1.0
C      1  0.4896150000000  0.5679340000000  0.4194590000000 1.0
C      1  0.3607610000000  0.4753200000000  0.4723920000000 1.0
C      1  0.4914470000000  0.4950860000000  0.4339380000000 1.0
C      1  0.5168910000000  0.4654490000000  0.6127740000000 1.0
C      1  0.3925590000000  0.5125200000000  0.4561800000000 1.0
C      1  0.4817020000000  0.5067590000000  0.3632820000000 1.0
C      1  0.3749540000000  0.4317030000000  0.4956630000000 1.0
C      1  0.5538880000000  0.5355370000000  0.5904040000000 1.0
C      1  0.4084370000000  0.4405610000000  0.4562860000000 1.0
C      1  0.5877410000000  0.5351400000000  0.3769360000000 1.0
C      1  0.4448170000000  0.4234240000000  0.4199330000000 1.0
C      1  0.5997530000000  0.4485060000000  0.5000440000000 1.0
C      1  0.4587600000000  0.5617940000000  0.5921420000000 1.0
C      1  0.5391730000000  0.5418340000000  0.4732900000000 1.0
C      1  0.4715290000000  0.5141240000000  0.4453800000000 1.0
C      1  0.5550050000000  0.4032500000000  0.5678750000000 1.0
C      1  0.4543650000000  0.5235320000000  0.4907230000000 1.0
C      1  0.5747180000000  0.5078260000000  0.5477390000000 1.0
C      1  0.4163930000000  0.4543810000000  0.5723110000000 1.0
C      1  0.4982560000000  0.4789950000000  0.6331680000000 1.0
C      1  0.4178660000000  0.4799420000000  0.4944800000000 1.0
C      1  0.5241450000000  0.4843460000000  0.5257810000000 1.0
C      1  0.4209290000000  0.4642350000000  0.4520410000000 1.0
C      1  0.3694230000000  0.5309780000000  0.5777190000000 1.0
C      1  0.5213370000000  0.5109970000000  0.4215230000000 1.0
C      1  0.6429530000000  0.5096850000000  0.4921130000000 1.0
C      1  0.5588060000000  0.5569590000000  0.6075270000000 1.0
C      1  0.4254900000000  0.5319600000000  0.5366170000000 1.0
C      1  0.5132200000000  0.4414330000000  0.3961450000000 1.0
C      1  0.5667900000000  0.6176320000000  0.4855530000000 1.0
C      1  0.5458490000000  0.4654660000000  0.6066860000000 1.0
C      1  0.5980460000000  0.5040270000000  0.4427070000000 1.0
C      1  0.5494500000000  0.4305080000000  0.5161470000000 1.0
C      1  0.5949730000000  0.4819860000000  0.3996220000000 1.0
C      1  0.5985110000000  0.3988620000000  0.5017120000000 1.0
C      1  0.6034370000000  0.4805580000000  0.4588510000000 1.0
C      1  0.5384210000000  0.5388990000000  0.5669050000000 1.0
C      1  0.5898030000000  0.5122690000000  0.5043290000000 1.0
C      1  0.5669880000000  0.4368790000000  0.5366180000000 1.0
C      1  0.4015450000000  0.5738080000000  0.4932320000000 1.0
C      1  0.5635930000000  0.5776060000000  0.6226900000000 1.0
C      1  0.5555130000000  0.5857450000000  0.4484410000000 1.0
C      1  0.5420580000000  0.4902060000000  0.4828330000000 1.0
C      1  0.5124910000000  0.5083310000000  0.5376550000000 1.0
C      1  0.6343310000000  0.4842580000000  0.4948500000000 1.0
C      1  0.6198000000000  0.5467170000000  0.5359100000000 1.0
C      1  0.5921170000000  0.4493690000000  0.5288700000000 1.0
C      1  0.5002450000000  0.4518970000000  0.4625210000000 1.0
C      1  0.5793440000000  0.5284740000000  0.4023450000000 1.0
C      1  0.4018200000000  0.4238620000000  0.5011030000000 1.0
C      1  0.3687220000000  0.5054750000000  0.5862060000000 1.0
C      1  0.3798510000000  0.5084260000000  0.5021210000000 1.0
C      1  0.5478850000000  0.4894990000000  0.5105240000000 1.0
C      1  0.4104020000000  0.4259330000000  0.5282320000000 1.0
C      1  0.4427150000000  0.4872970000000  0.5381290000000 1.0
C      1  0.4796350000000  0.4541290000000  0.5846130000000 1.0
C      1  0.4340210000000  0.5008010000000  0.5904290000000 1.0
C      1  0.5880120000000  0.6087010000000  0.5551950000000 1.0
C      1  0.4547130000000  0.5430090000000  0.5711050000000 1.0
C      1  0.5643220000000  0.3737800000000  0.5263510000000 1.0
C      1  0.5707840000000  0.4156390000000  0.4693180000000 1.0
C      1  0.5575540000000  0.3822210000000  0.5510260000000 1.0
C      1  0.4116670000000  0.5425530000000  0.5968130000000 1.0
C      1  0.5264220000000  0.5870360000000  0.4462530000000 1.0
C      1  0.4545370000000  0.5137410000000  0.5739330000000 1.0
C      1  0.4461430000000  0.4743840000000  0.4140620000000 1.0
C      1  0.4830200000000  0.4443650000000  0.4383890000000 1.0
C      1  0.4646460000000  0.5523780000000  0.3817790000000 1.0
C      1  0.3607110000000  0.4507320000000  0.4831720000000 1.0
C      1  0.4440680000000  0.5509420000000  0.5461700000000 1.0
C      1  0.4740240000000  0.4095670000000  0.5658100000000 1.0
C      1  0.4062950000000  0.5616200000000  0.4657530000000 1.0
C      1  0.4335510000000  0.4809940000000  0.4710060000000 1.0
C      1  0.4203770000000  0.5046270000000  0.5327850000000 1.0
C      1  0.5047200000000  0.4986040000000  0.5842140000000 1.0
C      1  0.4357470000000  0.4480150000000  0.4075780000000 1.0
C      1  0.4423310000000  0.4598660000000  0.5346220000000 1.0
C      1  0.5130100000000  0.5447820000000  0.4593700000000 1.0
C      1  0.5618600000000  0.3883000000000  0.4766920000000 1.0
C      1  0.5858950000000  0.4583540000000  0.3916310000000 1.0
C      1  0.4187160000000  0.4242320000000  0.4776020000000 1.0
END
