TITL C-612600-6631-202 2495.39146721723 125000 -769.504346201786 0 0 128 (C1) n - 1
REM
REM in /home/nfs/bkarasulu/CARBON/AIRSS/Generating-Clusters/TERSOFF/Only-C1/FIRE-HFTN
REM
REM
REM
REM
REM
REM ./C.cell (11c1c37f851c82e70ff6c80c92926a4b)
REM AIRSS Version 0.9.1 bugfix July 2018 build 013d7b7c2542+ Fri, 06 Jul 2018 19:26:36 +0100
REM compiler GCC version 9.2.1 20190827 (Red Hat 9.2.1-1)
REM options -cpp -mtune=generic -march=x86-64 -g -O0 -fpre-include=/usr/include/finclude/math-vector-fortran.h
REM seed 1841783660 532878362 417066045 -1237331922 -1533879440 -156558598 1579123329 1528933060 1721445609 -23584306 -1589651598 -1457808577 -377343491 1141544437 1022990027 -1907098938 -1916532083 -1536875499 1158664540 1877637165 -1091510280 -1573727299 458375318 163089337 99052794 681561554 2098461402 -2056480256 -1194210978 752108819 -1694646133 -1441097872 529831769
REM
CELL 1.54180   50.00000   50.00000   50.00000   90.00000   90.00000   90.00000
LATT -1
SFAC C  
C      1  0.6350520000000  0.4357760000000  0.4109960000000 1.0
C      1  0.4186930000000  0.3764250000000  0.4455040000000 1.0
C      1  0.4340930000000  0.4084090000000  0.4783560000000 1.0
C      1  0.5433180000000  0.5667880000000  0.4456960000000 1.0
C      1  0.4577750000000  0.5364560000000  0.4255790000000 1.0
C      1  0.4532540000000  0.5601700000000  0.4406680000000 1.0
C      1  0.5221930000000  0.5572330000000  0.4274370000000 1.0
C      1  0.4363270000000  0.5716020000000  0.4611590000000 1.0
C      1  0.4951730000000  0.5558160000000  0.4900730000000 1.0
C      1  0.4220130000000  0.5069480000000  0.5212930000000 1.0
C      1  0.5109210000000  0.4257120000000  0.5330910000000 1.0
C      1  0.4193900000000  0.5360770000000  0.5162300000000 1.0
C      1  0.4411130000000  0.5535260000000  0.5233670000000 1.0
C      1  0.5061720000000  0.4968140000000  0.4546910000000 1.0
C      1  0.5925120000000  0.4952690000000  0.5013690000000 1.0
C      1  0.4987670000000  0.4850560000000  0.6053900000000 1.0
C      1  0.4489150000000  0.4112560000000  0.4305380000000 1.0
C      1  0.5161420000000  0.4889580000000  0.4298390000000 1.0
C      1  0.4959920000000  0.4249790000000  0.4265800000000 1.0
C      1  0.4811720000000  0.4623890000000  0.3985540000000 1.0
C      1  0.6197430000000  0.4451830000000  0.4298740000000 1.0
C      1  0.5736280000000  0.4004840000000  0.5462590000000 1.0
C      1  0.5434100000000  0.4177710000000  0.4912140000000 1.0
C      1  0.5840190000000  0.5510470000000  0.4880480000000 1.0
C      1  0.4916650000000  0.6043370000000  0.5195980000000 1.0
C      1  0.5837860000000  0.4369170000000  0.4612580000000 1.0
C      1  0.5187020000000  0.5011520000000  0.5478260000000 1.0
C      1  0.3878170000000  0.4907870000000  0.4513830000000 1.0
C      1  0.4999690000000  0.4388950000000  0.4505310000000 1.0
C      1  0.5995130000000  0.3609800000000  0.5385980000000 1.0
C      1  0.4517560000000  0.5801510000000  0.4843010000000 1.0
C      1  0.5202400000000  0.4620040000000  0.4244170000000 1.0
C      1  0.4472700000000  0.5799560000000  0.5121240000000 1.0
C      1  0.4210240000000  0.5255970000000  0.4694680000000 1.0
C      1  0.5867160000000  0.5292820000000  0.4675830000000 1.0
C      1  0.5299810000000  0.5478910000000  0.5413300000000 1.0
C      1  0.5374600000000  0.6114730000000  0.5390570000000 1.0
C      1  0.4791730000000  0.5364010000000  0.5024350000000 1.0
C      1  0.4798680000000  0.5322690000000  0.5506470000000 1.0
C      1  0.5130890000000  0.5972500000000  0.5373150000000 1.0
C      1  0.5771910000000  0.5589100000000  0.5727820000000 1.0
C      1  0.5436340000000  0.5886800000000  0.5854540000000 1.0
C      1  0.4334650000000  0.4986770000000  0.5723390000000 1.0
C      1  0.3795710000000  0.4686270000000  0.4637280000000 1.0
C      1  0.5273130000000  0.4864540000000  0.5250420000000 1.0
C      1  0.4913860000000  0.5068650000000  0.5482360000000 1.0
C      1  0.5807770000000  0.5135180000000  0.5202050000000 1.0
C      1  0.4797140000000  0.5748920000000  0.4755600000000 1.0
C      1  0.4590280000000  0.5905390000000  0.5571400000000 1.0
C      1  0.5161330000000  0.5698230000000  0.5414000000000 1.0
C      1  0.4392880000000  0.4687990000000  0.4844520000000 1.0
C      1  0.6031960000000  0.4552950000000  0.4501910000000 1.0
C      1  0.5529390000000  0.4927420000000  0.4604720000000 1.0
C      1  0.4523930000000  0.4768340000000  0.5765870000000 1.0
C      1  0.4563060000000  0.4591020000000  0.4141770000000 1.0
C      1  0.4341340000000  0.3989780000000  0.4516050000000 1.0
C      1  0.4603130000000  0.5029820000000  0.3948320000000 1.0
C      1  0.4647500000000  0.5958460000000  0.5291320000000 1.0
C      1  0.4449880000000  0.5125150000000  0.4799950000000 1.0
C      1  0.5586660000000  0.4212960000000  0.5358600000000 1.0
C      1  0.5603670000000  0.5107470000000  0.5701150000000 1.0
C      1  0.5757640000000  0.5057990000000  0.5466680000000 1.0
C      1  0.5084280000000  0.5346480000000  0.4123600000000 1.0
C      1  0.5355190000000  0.4178890000000  0.5187940000000 1.0
C      1  0.5081920000000  0.5052250000000  0.4076710000000 1.0
C      1  0.5621360000000  0.5967550000000  0.5405840000000 1.0
C      1  0.5482470000000  0.4687310000000  0.5304520000000 1.0
C      1  0.4414070000000  0.4352050000000  0.4172920000000 1.0
C      1  0.4754840000000  0.4855150000000  0.5391930000000 1.0
C      1  0.5275280000000  0.6008130000000  0.4796070000000 1.0
C      1  0.4810210000000  0.4488720000000  0.4684340000000 1.0
C      1  0.5010950000000  0.5771710000000  0.4305310000000 1.0
C      1  0.5217810000000  0.5755940000000  0.5942390000000 1.0
C      1  0.4662450000000  0.5402690000000  0.5270640000000 1.0
C      1  0.5578270000000  0.4723070000000  0.4773610000000 1.0
C      1  0.4340830000000  0.5244500000000  0.5845720000000 1.0
C      1  0.4577750000000  0.4659040000000  0.4623730000000 1.0
C      1  0.5771100000000  0.4718000000000  0.4965860000000 1.0
C      1  0.5730900000000  0.5903300000000  0.5147740000000 1.0
C      1  0.6074540000000  0.4829000000000  0.4576430000000 1.0
C      1  0.4789510000000  0.5738940000000  0.4468650000000 1.0
C      1  0.5028100000000  0.4977630000000  0.6292880000000 1.0
C      1  0.5632190000000  0.4238500000000  0.4734660000000 1.0
C      1  0.5909560000000  0.3754130000000  0.5831470000000 1.0
C      1  0.5672800000000  0.5354750000000  0.5076870000000 1.0
C      1  0.5440800000000  0.5310680000000  0.4898790000000 1.0
C      1  0.4844870000000  0.4393700000000  0.4945500000000 1.0
C      1  0.4196060000000  0.4976290000000  0.5475700000000 1.0
C      1  0.5019340000000  0.5583090000000  0.5890500000000 1.0
C      1  0.4612290000000  0.4397690000000  0.5361960000000 1.0
C      1  0.4085670000000  0.5408980000000  0.4902380000000 1.0
C      1  0.4040340000000  0.5120490000000  0.4516820000000 1.0
C      1  0.4517300000000  0.5075320000000  0.4231160000000 1.0
C      1  0.4723900000000  0.4786090000000  0.5967340000000 1.0
C      1  0.5147200000000  0.4332750000000  0.5604670000000 1.0
C      1  0.5341550000000  0.4981920000000  0.5718650000000 1.0
C      1  0.5214120000000  0.4513370000000  0.5791740000000 1.0
C      1  0.5645850000000  0.5833700000000  0.5665090000000 1.0
C      1  0.4041750000000  0.3555540000000  0.4397770000000 1.0
C      1  0.5117970000000  0.4884110000000  0.5015660000000 1.0
C      1  0.5489070000000  0.5832460000000  0.4699330000000 1.0
C      1  0.5881920000000  0.3787250000000  0.5561090000000 1.0
C      1  0.4858170000000  0.4333760000000  0.5218130000000 1.0
C      1  0.4130040000000  0.5671250000000  0.5945940000000 1.0
C      1  0.4864360000000  0.4910180000000  0.3925810000000 1.0
C      1  0.4381010000000  0.4279680000000  0.5244470000000 1.0
C      1  0.5054180000000  0.6088030000000  0.4939850000000 1.0
C      1  0.5717340000000  0.5776220000000  0.4886120000000 1.0
C      1  0.5212120000000  0.4781770000000  0.5886490000000 1.0
C      1  0.4533180000000  0.4792930000000  0.4357580000000 1.0
C      1  0.4956880000000  0.4983870000000  0.4804020000000 1.0
C      1  0.6018740000000  0.5050450000000  0.4751880000000 1.0
C      1  0.4342560000000  0.5531630000000  0.5844820000000 1.0
C      1  0.5218160000000  0.5477860000000  0.4887080000000 1.0
C      1  0.5575300000000  0.5200070000000  0.4657520000000 1.0
C      1  0.3979080000000  0.4333710000000  0.4969000000000 1.0
C      1  0.4334030000000  0.4926510000000  0.4986950000000 1.0
C      1  0.4805220000000  0.5504710000000  0.5726060000000 1.0
C      1  0.3827340000000  0.4491410000000  0.4816410000000 1.0
C      1  0.5688470000000  0.5348640000000  0.5821230000000 1.0
C      1  0.4232450000000  0.4216950000000  0.5010100000000 1.0
C      1  0.5031360000000  0.4465080000000  0.4077270000000 1.0
C      1  0.5633820000000  0.4486740000000  0.5399920000000 1.0
C      1  0.4728730000000  0.5150020000000  0.4853590000000 1.0
C      1  0.4762580000000  0.4051860000000  0.4258850000000 1.0
C      1  0.4805320000000  0.5419590000000  0.4079740000000 1.0
C      1  0.4570300000000  0.5669820000000  0.5736230000000 1.0
C      1  0.4611560000000  0.4642060000000  0.5514470000000 1.0
END
