TITL C-612607-4507-759 -0.000771740621311602 125000 -916.359134934187 0 0 150 (C1) n - 1
REM
REM in /home/nfs/bkarasulu/CARBON/AIRSS/Generating-Clusters/TERSOFF/Only-C1/FIRE-HFTN
REM
REM
REM
REM
REM
REM ./C.cell (11c1c37f851c82e70ff6c80c92926a4b)
REM AIRSS Version 0.9.1 bugfix July 2018 build 013d7b7c2542+ Fri, 06 Jul 2018 19:26:36 +0100
REM compiler GCC version 9.2.1 20190827 (Red Hat 9.2.1-1)
REM options -cpp -mtune=generic -march=x86-64 -g -O0 -fpre-include=/usr/include/finclude/math-vector-fortran.h
REM seed 1854157905 -704319868 2009502572 437979482 1398096520 151066876 -233122640 -1264499146 224229285 293553389 -570194852 1215009110 1760201724 1594571475 -1951090066 -1396115710 -1197433804 688507489 -271251454 -1038736268 -912464629 -766451128 1861515633 633528376 291074528 -700932052 812348808 -191228508 -1701486804 2030052791 -712857711 -1680351740 -815134845
REM
CELL 1.54180   50.00000   50.00000   50.00000   90.00000   90.00000   90.00000
LATT -1
SFAC C  
C      1  0.4448540000000  0.4847280000000  0.3891440000000 1.0
C      1  0.4568590000000  0.5319520000000  0.5197090000000 1.0
C      1  0.4104690000000  0.4591340000000  0.6080390000000 1.0
C      1  0.5929790000000  0.5004350000000  0.5484410000000 1.0
C      1  0.5342320000000  0.5581660000000  0.4766490000000 1.0
C      1  0.5527800000000  0.6053490000000  0.4694800000000 1.0
C      1  0.4724040000000  0.4106530000000  0.4529790000000 1.0
C      1  0.5092660000000  0.4522460000000  0.5428830000000 1.0
C      1  0.4519660000000  0.4430370000000  0.5226680000000 1.0
C      1  0.4806650000000  0.5480240000000  0.4095290000000 1.0
C      1  0.4973270000000  0.5388670000000  0.5531840000000 1.0
C      1  0.5141900000000  0.4855220000000  0.4502210000000 1.0
C      1  0.5795030000000  0.4689270000000  0.4854210000000 1.0
C      1  0.4451830000000  0.5408150000000  0.5649730000000 1.0
C      1  0.4248260000000  0.5839230000000  0.5113240000000 1.0
C      1  0.4535880000000  0.5112530000000  0.6089630000000 1.0
C      1  0.5506880000000  0.5097990000000  0.4813610000000 1.0
C      1  0.5563450000000  0.4841580000000  0.4722560000000 1.0
C      1  0.4458900000000  0.4601520000000  0.4008600000000 1.0
C      1  0.4936040000000  0.4163590000000  0.4114830000000 1.0
C      1  0.4545630000000  0.5362890000000  0.4034900000000 1.0
C      1  0.4596080000000  0.3739460000000  0.6155030000000 1.0
C      1  0.5540830000000  0.3936610000000  0.4701410000000 1.0
C      1  0.4780820000000  0.5983370000000  0.4920660000000 1.0
C      1  0.5129980000000  0.5422320000000  0.5292330000000 1.0
C      1  0.5199140000000  0.4476320000000  0.6199530000000 1.0
C      1  0.5011500000000  0.4855940000000  0.3934230000000 1.0
C      1  0.4897490000000  0.5136960000000  0.5612970000000 1.0
C      1  0.5120330000000  0.4251510000000  0.6036830000000 1.0
C      1  0.4235700000000  0.5784980000000  0.4597010000000 1.0
C      1  0.5341330000000  0.5571870000000  0.4239280000000 1.0
C      1  0.4064030000000  0.5347330000000  0.4131080000000 1.0
C      1  0.3982960000000  0.4956120000000  0.4943850000000 1.0
C      1  0.5390660000000  0.3804850000000  0.4499980000000 1.0
C      1  0.5120240000000  0.3848950000000  0.4425170000000 1.0
C      1  0.5082450000000  0.4940420000000  0.5144410000000 1.0
C      1  0.5817250000000  0.3990300000000  0.4705100000000 1.0
C      1  0.5389160000000  0.5060450000000  0.5970070000000 1.0
C      1  0.5100030000000  0.4052860000000  0.4859590000000 1.0
C      1  0.4986450000000  0.4896710000000  0.5713200000000 1.0
C      1  0.5962650000000  0.5187860000000  0.4840650000000 1.0
C      1  0.4622940000000  0.4950130000000  0.4309410000000 1.0
C      1  0.4676640000000  0.4508990000000  0.5684680000000 1.0
C      1  0.5090450000000  0.5693160000000  0.5170540000000 1.0
C      1  0.5598730000000  0.5648180000000  0.4383390000000 1.0
C      1  0.4987600000000  0.5218850000000  0.4774320000000 1.0
C      1  0.5017250000000  0.3512470000000  0.3777740000000 1.0
C      1  0.5863870000000  0.5093990000000  0.4314780000000 1.0
C      1  0.4495280000000  0.5116390000000  0.3892520000000 1.0
C      1  0.5150720000000  0.4897970000000  0.5946870000000 1.0
C      1  0.5502580000000  0.4567430000000  0.4319970000000 1.0
C      1  0.3824700000000  0.4789820000000  0.5106980000000 1.0
C      1  0.4981920000000  0.5937370000000  0.4201360000000 1.0
C      1  0.4817970000000  0.5748150000000  0.5079180000000 1.0
C      1  0.5460090000000  0.5355990000000  0.4837260000000 1.0
C      1  0.4982540000000  0.5605000000000  0.5709510000000 1.0
C      1  0.5666510000000  0.4541770000000  0.5101470000000 1.0
C      1  0.5811810000000  0.5521270000000  0.4529490000000 1.0
C      1  0.5480050000000  0.4737810000000  0.5234420000000 1.0
C      1  0.4483470000000  0.4419830000000  0.4229770000000 1.0
C      1  0.5259870000000  0.5664990000000  0.5776320000000 1.0
C      1  0.4043020000000  0.5557520000000  0.5423410000000 1.0
C      1  0.4161060000000  0.5714910000000  0.4863490000000 1.0
C      1  0.5398470000000  0.4744080000000  0.4515790000000 1.0
C      1  0.4144650000000  0.4569530000000  0.4633250000000 1.0
C      1  0.5290240000000  0.4782930000000  0.3943290000000 1.0
C      1  0.4285510000000  0.4726770000000  0.6224660000000 1.0
C      1  0.4109960000000  0.5290180000000  0.5321960000000 1.0
C      1  0.5106790000000  0.5648000000000  0.4657930000000 1.0
C      1  0.5141510000000  0.6105220000000  0.5601340000000 1.0
C      1  0.4261870000000  0.5759150000000  0.5395150000000 1.0
C      1  0.5252860000000  0.5938020000000  0.5146180000000 1.0
C      1  0.4906460000000  0.6090430000000  0.4425670000000 1.0
C      1  0.5606480000000  0.5900650000000  0.5571130000000 1.0
C      1  0.5975190000000  0.4926480000000  0.4967160000000 1.0
C      1  0.4301550000000  0.5702840000000  0.4347080000000 1.0
C      1  0.5890760000000  0.4481590000000  0.4645480000000 1.0
C      1  0.6041550000000  0.4933460000000  0.5246390000000 1.0
C      1  0.5483340000000  0.5479160000000  0.5699510000000 1.0
C      1  0.4759030000000  0.5796310000000  0.5679490000000 1.0
C      1  0.4903450000000  0.4652130000000  0.5594280000000 1.0
C      1  0.4643250000000  0.5528890000000  0.5026170000000 1.0
C      1  0.4756910000000  0.4672780000000  0.6132350000000 1.0
C      1  0.5767370000000  0.4494210000000  0.4384400000000 1.0
C      1  0.5112890000000  0.5359830000000  0.4227730000000 1.0
C      1  0.4796390000000  0.5762280000000  0.4086830000000 1.0
C      1  0.4420450000000  0.5068490000000  0.4467980000000 1.0
C      1  0.5338200000000  0.4537430000000  0.4086940000000 1.0
C      1  0.5510730000000  0.4961070000000  0.3945130000000 1.0
C      1  0.5240840000000  0.5835640000000  0.4154340000000 1.0
C      1  0.4822170000000  0.6098330000000  0.4680820000000 1.0
C      1  0.5492300000000  0.5014580000000  0.5322870000000 1.0
C      1  0.5222320000000  0.4299750000000  0.5543340000000 1.0
C      1  0.5027320000000  0.3892140000000  0.4158860000000 1.0
C      1  0.5348110000000  0.5936740000000  0.5708160000000 1.0
C      1  0.4033760000000  0.5224630000000  0.5048950000000 1.0
C      1  0.4290150000000  0.4444560000000  0.4441410000000 1.0
C      1  0.5195530000000  0.4686310000000  0.5227830000000 1.0
C      1  0.5252730000000  0.5163010000000  0.5240130000000 1.0
C      1  0.4635390000000  0.5474850000000  0.4747450000000 1.0
C      1  0.4466310000000  0.4447120000000  0.5503220000000 1.0
C      1  0.5521690000000  0.5201090000000  0.5754270000000 1.0
C      1  0.4074100000000  0.4480220000000  0.5838800000000 1.0
C      1  0.4866700000000  0.4955520000000  0.4161990000000 1.0
C      1  0.5181680000000  0.6147020000000  0.5326300000000 1.0
C      1  0.4387550000000  0.5264270000000  0.5405670000000 1.0
C      1  0.4031140000000  0.5459530000000  0.4887630000000 1.0
C      1  0.5669220000000  0.5620900000000  0.5504780000000 1.0
C      1  0.5379160000000  0.4093140000000  0.4882280000000 1.0
C      1  0.5046490000000  0.4715520000000  0.6145560000000 1.0
C      1  0.4715690000000  0.3964270000000  0.6099670000000 1.0
C      1  0.5021450000000  0.3696180000000  0.3962520000000 1.0
C      1  0.5497060000000  0.4309040000000  0.5012420000000 1.0
C      1  0.5142870000000  0.4340670000000  0.4049380000000 1.0
C      1  0.4903580000000  0.5461710000000  0.4666340000000 1.0
C      1  0.5499290000000  0.5089090000000  0.6221240000000 1.0
C      1  0.4142850000000  0.5004880000000  0.4473040000000 1.0
C      1  0.5252180000000  0.4200720000000  0.5792200000000 1.0
C      1  0.4474940000000  0.5290200000000  0.4625300000000 1.0
C      1  0.4537920000000  0.4847650000000  0.6183070000000 1.0
C      1  0.4704030000000  0.4237690000000  0.4273830000000 1.0
C      1  0.5587520000000  0.4450090000000  0.6571100000000 1.0
C      1  0.3985530000000  0.5137510000000  0.4282310000000 1.0
C      1  0.4069860000000  0.4839180000000  0.4690570000000 1.0
C      1  0.4954540000000  0.4765700000000  0.4707980000000 1.0
C      1  0.5398300000000  0.4461920000000  0.6392300000000 1.0
C      1  0.4695270000000  0.4442780000000  0.5962660000000 1.0
C      1  0.4493680000000  0.5697620000000  0.5590040000000 1.0
C      1  0.5891900000000  0.5639870000000  0.4787530000000 1.0
C      1  0.5591240000000  0.5927670000000  0.4465520000000 1.0
C      1  0.5659450000000  0.5066620000000  0.5542940000000 1.0
C      1  0.5902780000000  0.5244770000000  0.4549400000000 1.0
C      1  0.5874780000000  0.4440740000000  0.5288130000000 1.0
C      1  0.4306920000000  0.5495940000000  0.4149220000000 1.0
C      1  0.4956090000000  0.3976870000000  0.4628860000000 1.0
C      1  0.4476240000000  0.5293510000000  0.5903220000000 1.0
C      1  0.4836110000000  0.4205470000000  0.6036280000000 1.0
C      1  0.5426430000000  0.6016880000000  0.4939510000000 1.0
C      1  0.3667220000000  0.4640140000000  0.5250870000000 1.0
C      1  0.5964050000000  0.4217150000000  0.4718210000000 1.0
C      1  0.4788850000000  0.4555500000000  0.4787690000000 1.0
C      1  0.5915770000000  0.5445080000000  0.5006210000000 1.0
C      1  0.4963530000000  0.4975670000000  0.4897240000000 1.0
C      1  0.6036020000000  0.4315600000000  0.5450010000000 1.0
C      1  0.4208760000000  0.4427280000000  0.5613630000000 1.0
C      1  0.4635210000000  0.4460990000000  0.4987080000000 1.0
C      1  0.4868930000000  0.6059700000000  0.5680320000000 1.0
C      1  0.5077620000000  0.5081260000000  0.4320600000000 1.0
C      1  0.5720680000000  0.5043230000000  0.4092690000000 1.0
C      1  0.5814390000000  0.5521310000000  0.5271130000000 1.0
END
