TITL C-612600-6631-765 0.0952819438860579 125000 -657.409977745109 0 0 108 (C1) n - 1
REM
REM in /home/nfs/bkarasulu/CARBON/AIRSS/Generating-Clusters/TERSOFF/Only-C1/FIRE-HFTN
REM
REM
REM
REM
REM
REM ./C.cell (11c1c37f851c82e70ff6c80c92926a4b)
REM AIRSS Version 0.9.1 bugfix July 2018 build 013d7b7c2542+ Fri, 06 Jul 2018 19:26:36 +0100
REM compiler GCC version 9.2.1 20190827 (Red Hat 9.2.1-1)
REM options -cpp -mtune=generic -march=x86-64 -g -O0 -fpre-include=/usr/include/finclude/math-vector-fortran.h
REM seed 905357633 -1471025741 1488339050 -76043957 -2077707599 1129122033 1102410522 1349740585 -1939195259 1637985695 -785314736 175053978 1701932382 -1379308500 -128811303 1379157573 -2062401518 40968393 113522225 1102944117 1337459494 458924127 -98778208 850949896 1538215188 250011287 -1151807249 1740327207 1511332118 1482178305 1083218499 2044211963 212215889
REM
CELL 1.54180   50.00000   50.00000   50.00000   90.00000   90.00000   90.00000
LATT -1
SFAC C  
C      1  0.4201720000000  0.4702050000000  0.5853890000000 1.0
C      1  0.5554490000000  0.4250200000000  0.4530100000000 1.0
C      1  0.4212800000000  0.5195950000000  0.4590740000000 1.0
C      1  0.5815880000000  0.5213240000000  0.5475940000000 1.0
C      1  0.5268680000000  0.4656860000000  0.5051010000000 1.0
C      1  0.4999730000000  0.3991360000000  0.4887700000000 1.0
C      1  0.5346170000000  0.5183610000000  0.5609330000000 1.0
C      1  0.4103200000000  0.5580220000000  0.5191340000000 1.0
C      1  0.5449830000000  0.4955240000000  0.4560740000000 1.0
C      1  0.4854710000000  0.4256290000000  0.4469680000000 1.0
C      1  0.4715560000000  0.5065890000000  0.4862380000000 1.0
C      1  0.6025580000000  0.5044030000000  0.5058560000000 1.0
C      1  0.3981850000000  0.5494770000000  0.3769480000000 1.0
C      1  0.4651140000000  0.5351820000000  0.3983050000000 1.0
C      1  0.4637900000000  0.4697110000000  0.4514950000000 1.0
C      1  0.5967980000000  0.4501330000000  0.4807040000000 1.0
C      1  0.4960110000000  0.6245090000000  0.5995010000000 1.0
C      1  0.4760110000000  0.5522150000000  0.5865250000000 1.0
C      1  0.3548560000000  0.4621540000000  0.6292260000000 1.0
C      1  0.5042440000000  0.5310350000000  0.4593430000000 1.0
C      1  0.5005730000000  0.4493430000000  0.5689580000000 1.0
C      1  0.4856690000000  0.4441120000000  0.5230760000000 1.0
C      1  0.5040480000000  0.4381070000000  0.4299050000000 1.0
C      1  0.5248400000000  0.4551680000000  0.5818620000000 1.0
C      1  0.5120560000000  0.4415990000000  0.5136030000000 1.0
C      1  0.5139870000000  0.5201440000000  0.5805190000000 1.0
C      1  0.4422090000000  0.4030860000000  0.5331690000000 1.0
C      1  0.4726300000000  0.4944770000000  0.4599470000000 1.0
C      1  0.5822790000000  0.4569230000000  0.3922470000000 1.0
C      1  0.4548450000000  0.6115800000000  0.5375710000000 1.0
C      1  0.4233110000000  0.4363580000000  0.4825620000000 1.0
C      1  0.5839600000000  0.4631980000000  0.4590310000000 1.0
C      1  0.5214620000000  0.4598560000000  0.4312650000000 1.0
C      1  0.5237500000000  0.4755770000000  0.6012910000000 1.0
C      1  0.3764130000000  0.4648260000000  0.6148100000000 1.0
C      1  0.4169990000000  0.4445990000000  0.5099410000000 1.0
C      1  0.4389630000000  0.5343630000000  0.4091690000000 1.0
C      1  0.4553320000000  0.4998640000000  0.5086160000000 1.0
C      1  0.4621740000000  0.3867950000000  0.5243330000000 1.0
C      1  0.5684440000000  0.5469950000000  0.4411540000000 1.0
C      1  0.4900580000000  0.5095140000000  0.4427560000000 1.0
C      1  0.5992520000000  0.4560270000000  0.3724940000000 1.0
C      1  0.6263810000000  0.5082160000000  0.4928950000000 1.0
C      1  0.5379010000000  0.5251960000000  0.4025000000000 1.0
C      1  0.5831700000000  0.4399870000000  0.5303960000000 1.0
C      1  0.4656060000000  0.4426820000000  0.4578870000000 1.0
C      1  0.4913180000000  0.4021380000000  0.4617680000000 1.0
C      1  0.5544330000000  0.5104990000000  0.5018240000000 1.0
C      1  0.4157410000000  0.5170510000000  0.4867780000000 1.0
C      1  0.6013180000000  0.5061020000000  0.5344660000000 1.0
C      1  0.4056200000000  0.5391820000000  0.5008830000000 1.0
C      1  0.4272670000000  0.4961590000000  0.5029100000000 1.0
C      1  0.5011590000000  0.5006230000000  0.4185280000000 1.0
C      1  0.4810380000000  0.6323500000000  0.5771160000000 1.0
C      1  0.5596250000000  0.5319010000000  0.5617920000000 1.0
C      1  0.5623500000000  0.5551360000000  0.5759860000000 1.0
C      1  0.5274880000000  0.4985360000000  0.4065580000000 1.0
C      1  0.4485170000000  0.5560100000000  0.5819580000000 1.0
C      1  0.4903740000000  0.5379410000000  0.3894340000000 1.0
C      1  0.4835880000000  0.3860920000000  0.5078740000000 1.0
C      1  0.4647060000000  0.4992050000000  0.5357210000000 1.0
C      1  0.4890820000000  0.5313500000000  0.5723970000000 1.0
C      1  0.5135980000000  0.5791060000000  0.4311290000000 1.0
C      1  0.5788700000000  0.4998370000000  0.4912290000000 1.0
C      1  0.5942270000000  0.4422650000000  0.5061860000000 1.0
C      1  0.4521480000000  0.4356550000000  0.4810730000000 1.0
C      1  0.4323020000000  0.5263000000000  0.4355130000000 1.0
C      1  0.4902400000000  0.5717780000000  0.6005060000000 1.0
C      1  0.4281260000000  0.5704430000000  0.5367620000000 1.0
C      1  0.5329240000000  0.4575990000000  0.4785260000000 1.0
C      1  0.4382440000000  0.4298910000000  0.5245820000000 1.0
C      1  0.5678860000000  0.4417360000000  0.5522180000000 1.0
C      1  0.5476480000000  0.5328290000000  0.4841390000000 1.0
C      1  0.5386380000000  0.4717730000000  0.4109140000000 1.0
C      1  0.5147590000000  0.6050690000000  0.4392410000000 1.0
C      1  0.5642710000000  0.4584120000000  0.4134230000000 1.0
C      1  0.4663690000000  0.6274410000000  0.5555090000000 1.0
C      1  0.4414670000000  0.4727230000000  0.5698510000000 1.0
C      1  0.4625240000000  0.4373170000000  0.5083570000000 1.0
C      1  0.5650690000000  0.5493300000000  0.4682550000000 1.0
C      1  0.4970920000000  0.5970410000000  0.6050700000000 1.0
C      1  0.3983290000000  0.4675430000000  0.6001510000000 1.0
C      1  0.5364470000000  0.4914400000000  0.5149270000000 1.0
C      1  0.5175560000000  0.5447880000000  0.3945750000000 1.0
C      1  0.4302740000000  0.5626150000000  0.5636340000000 1.0
C      1  0.5381240000000  0.4292200000000  0.4755250000000 1.0
C      1  0.5595640000000  0.5355100000000  0.4182040000000 1.0
C      1  0.5164840000000  0.5014960000000  0.6015080000000 1.0
C      1  0.5703600000000  0.4465030000000  0.4396530000000 1.0
C      1  0.5728270000000  0.4890680000000  0.4650130000000 1.0
C      1  0.4682200000000  0.5740170000000  0.5099200000000 1.0
C      1  0.5299750000000  0.4995700000000  0.5407620000000 1.0
C      1  0.5288950000000  0.4723210000000  0.4557300000000 1.0
C      1  0.4178550000000  0.5422040000000  0.3924210000000 1.0
C      1  0.5314160000000  0.5195490000000  0.4642960000000 1.0
C      1  0.4820680000000  0.5540430000000  0.4993340000000 1.0
C      1  0.4766500000000  0.5207840000000  0.5492470000000 1.0
C      1  0.5208990000000  0.5708760000000  0.4051540000000 1.0
C      1  0.5051470000000  0.5582430000000  0.4479450000000 1.0
C      1  0.4140180000000  0.4727530000000  0.5121440000000 1.0
C      1  0.5198220000000  0.4184470000000  0.4961650000000 1.0
C      1  0.6197490000000  0.4924150000000  0.5494880000000 1.0
C      1  0.5489820000000  0.4462790000000  0.5705180000000 1.0
C      1  0.4871900000000  0.5308390000000  0.4849300000000 1.0
C      1  0.4623010000000  0.4754730000000  0.5515270000000 1.0
C      1  0.5089320000000  0.6427640000000  0.6151390000000 1.0
C      1  0.4822080000000  0.4554970000000  0.5488340000000 1.0
C      1  0.4495290000000  0.5864220000000  0.5266330000000 1.0
END
