TITL C-612604-1799-873 1124.77410095284 125000 -1209.40674308334 0 0 197 (C1) n - 1
REM
REM in /home/nfs/bkarasulu/CARBON/AIRSS/Generating-Clusters/TERSOFF/Only-C1/FIRE-HFTN
REM
REM
REM
REM
REM
REM ./C.cell (11c1c37f851c82e70ff6c80c92926a4b)
REM AIRSS Version 0.9.1 bugfix July 2018 build 013d7b7c2542+ Fri, 06 Jul 2018 19:26:36 +0100
REM compiler GCC version 9.2.1 20190827 (Red Hat 9.2.1-1)
REM options -cpp -mtune=generic -march=x86-64 -g -O0 -fpre-include=/usr/include/finclude/math-vector-fortran.h
REM seed 720792345 1459629267 -540754279 2127917202 -912013776 -1125414650 -1133376383 -1131586351 555558503 -1108443618 1048840391 212645157 739444520 -520014715 329988728 -608222828 -712376312 1156273365 -1574333493 1142969609 1236414221 179579503 -935948994 -378526255 551312021 -1330923938 -1113753989 -1154337641 1931394788 -972104923 -177239631 -1874314049 -2011073396
REM
CELL 1.54180   50.00000   50.00000   50.00000   90.00000   90.00000   90.00000
LATT -1
SFAC C  
C      1  0.4188810000000  0.4179800000000  0.4731690000000 1.0
C      1  0.5813200000000  0.6303590000000  0.4707170000000 1.0
C      1  0.3925730000000  0.4249030000000  0.4867290000000 1.0
C      1  0.5065690000000  0.4518830000000  0.4118550000000 1.0
C      1  0.4314840000000  0.5408760000000  0.4292700000000 1.0
C      1  0.4435640000000  0.4000030000000  0.4744500000000 1.0
C      1  0.5939340000000  0.4948460000000  0.4148760000000 1.0
C      1  0.5899910000000  0.4294520000000  0.5720810000000 1.0
C      1  0.5641750000000  0.5892290000000  0.5175250000000 1.0
C      1  0.5193980000000  0.4036320000000  0.5378290000000 1.0
C      1  0.5474710000000  0.5297990000000  0.5190720000000 1.0
C      1  0.5819430000000  0.4476760000000  0.4224600000000 1.0
C      1  0.5541250000000  0.5092340000000  0.6138820000000 1.0
C      1  0.4577130000000  0.4240770000000  0.5129890000000 1.0
C      1  0.4729610000000  0.4594910000000  0.5394370000000 1.0
C      1  0.6001190000000  0.4691170000000  0.4270210000000 1.0
C      1  0.6008430000000  0.4557190000000  0.5786000000000 1.0
C      1  0.5652180000000  0.4263440000000  0.5282180000000 1.0
C      1  0.4565260000000  0.5536490000000  0.4247420000000 1.0
C      1  0.5713430000000  0.5467280000000  0.4668650000000 1.0
C      1  0.5460710000000  0.5826710000000  0.4254560000000 1.0
C      1  0.5122980000000  0.5411730000000  0.6041740000000 1.0
C      1  0.3756980000000  0.4599590000000  0.5232330000000 1.0
C      1  0.4221870000000  0.5660900000000  0.6131760000000 1.0
C      1  0.4777300000000  0.4392300000000  0.4866020000000 1.0
C      1  0.5372000000000  0.5939420000000  0.5258130000000 1.0
C      1  0.5835870000000  0.5726420000000  0.4712230000000 1.0
C      1  0.5384320000000  0.4250810000000  0.5409280000000 1.0
C      1  0.4427900000000  0.5643730000000  0.5506000000000 1.0
C      1  0.6001700000000  0.3937660000000  0.4555090000000 1.0
C      1  0.5333350000000  0.4540990000000  0.4749360000000 1.0
C      1  0.5708890000000  0.5156270000000  0.5572610000000 1.0
C      1  0.5983170000000  0.4324770000000  0.4838010000000 1.0
C      1  0.5802750000000  0.5412650000000  0.4206930000000 1.0
C      1  0.6094930000000  0.4525870000000  0.5032750000000 1.0
C      1  0.4550590000000  0.5587760000000  0.5753540000000 1.0
C      1  0.3932690000000  0.5466100000000  0.4876960000000 1.0
C      1  0.5241260000000  0.3690360000000  0.6124930000000 1.0
C      1  0.4925070000000  0.6130650000000  0.5037400000000 1.0
C      1  0.5706850000000  0.5896130000000  0.4904390000000 1.0
C      1  0.4692530000000  0.4314970000000  0.5393410000000 1.0
C      1  0.5883740000000  0.5182850000000  0.5791790000000 1.0
C      1  0.5683240000000  0.5994120000000  0.4185200000000 1.0
C      1  0.5035060000000  0.6008890000000  0.4115570000000 1.0
C      1  0.4473900000000  0.4816770000000  0.4396220000000 1.0
C      1  0.6005480000000  0.5900190000000  0.4538130000000 1.0
C      1  0.4823480000000  0.4070780000000  0.4323140000000 1.0
C      1  0.5199300000000  0.4629980000000  0.5184140000000 1.0
C      1  0.4029620000000  0.5113030000000  0.5596470000000 1.0
C      1  0.5117940000000  0.4678680000000  0.4620980000000 1.0
C      1  0.5793460000000  0.5011320000000  0.6008580000000 1.0
C      1  0.5476990000000  0.5015770000000  0.6402830000000 1.0
C      1  0.4563300000000  0.5042210000000  0.5425440000000 1.0
C      1  0.4554460000000  0.4202890000000  0.5616050000000 1.0
C      1  0.4782540000000  0.3826730000000  0.5927340000000 1.0
C      1  0.4070840000000  0.5460980000000  0.3668390000000 1.0
C      1  0.5339090000000  0.3771730000000  0.5014670000000 1.0
C      1  0.5202940000000  0.4442730000000  0.4982500000000 1.0
C      1  0.6155110000000  0.5236820000000  0.5752170000000 1.0
C      1  0.4315720000000  0.4578190000000  0.4925600000000 1.0
C      1  0.5700240000000  0.3913170000000  0.6040870000000 1.0
C      1  0.5227340000000  0.5730580000000  0.5684540000000 1.0
C      1  0.5313540000000  0.5204870000000  0.5986650000000 1.0
C      1  0.4810740000000  0.5452210000000  0.4363630000000 1.0
C      1  0.5143500000000  0.5101060000000  0.4809790000000 1.0
C      1  0.4214550000000  0.4466920000000  0.5870250000000 1.0
C      1  0.3637630000000  0.4864220000000  0.5225590000000 1.0
C      1  0.4537040000000  0.4992590000000  0.4828990000000 1.0
C      1  0.3803920000000  0.5016920000000  0.5044460000000 1.0
C      1  0.4726900000000  0.3972280000000  0.4082570000000 1.0
C      1  0.4869540000000  0.4430240000000  0.3897600000000 1.0
C      1  0.4578000000000  0.4804330000000  0.5281400000000 1.0
C      1  0.4202830000000  0.5229820000000  0.4083540000000 1.0
C      1  0.4940430000000  0.5860410000000  0.6067950000000 1.0
C      1  0.5088330000000  0.4240040000000  0.4302760000000 1.0
C      1  0.6055780000000  0.4826580000000  0.4976000000000 1.0
C      1  0.3747370000000  0.5381100000000  0.4671180000000 1.0
C      1  0.4950300000000  0.5266360000000  0.4199760000000 1.0
C      1  0.4864890000000  0.6228960000000  0.4113410000000 1.0
C      1  0.5051400000000  0.5360320000000  0.4819280000000 1.0
C      1  0.3726420000000  0.5931370000000  0.5532670000000 1.0
C      1  0.5041980000000  0.5070830000000  0.5567870000000 1.0
C      1  0.4501760000000  0.5231370000000  0.3704240000000 1.0
C      1  0.4111860000000  0.5296060000000  0.5360060000000 1.0
C      1  0.4554830000000  0.5504330000000  0.5285500000000 1.0
C      1  0.3942110000000  0.5269770000000  0.5100220000000 1.0
C      1  0.5979880000000  0.5197460000000  0.4293890000000 1.0
C      1  0.3772350000000  0.5153140000000  0.4522480000000 1.0
C      1  0.4313130000000  0.5850340000000  0.4758470000000 1.0
C      1  0.4836520000000  0.4618830000000  0.4694800000000 1.0
C      1  0.5935090000000  0.5927550000000  0.4264240000000 1.0
C      1  0.5399610000000  0.4210520000000  0.4376670000000 1.0
C      1  0.4829230000000  0.5170060000000  0.6343300000000 1.0
C      1  0.5582100000000  0.5247160000000  0.4566510000000 1.0
C      1  0.4863500000000  0.5479960000000  0.4639950000000 1.0
C      1  0.5900010000000  0.4743570000000  0.5974880000000 1.0
C      1  0.3828680000000  0.4523640000000  0.4951630000000 1.0
C      1  0.6347220000000  0.4845490000000  0.5556740000000 1.0
C      1  0.4015500000000  0.4814740000000  0.5599770000000 1.0
C      1  0.4652920000000  0.4818790000000  0.4628240000000 1.0
C      1  0.4221650000000  0.4945640000000  0.4519070000000 1.0
C      1  0.4763560000000  0.5211160000000  0.3751900000000 1.0
C      1  0.5205870000000  0.5949730000000  0.4339050000000 1.0
C      1  0.5692360000000  0.4948590000000  0.4010270000000 1.0
C      1  0.5251290000000  0.4990030000000  0.6545990000000 1.0
C      1  0.4081160000000  0.4697700000000  0.4185970000000 1.0
C      1  0.4165540000000  0.5599880000000  0.4755170000000 1.0
C      1  0.4415510000000  0.5248770000000  0.5305360000000 1.0
C      1  0.3969500000000  0.4596060000000  0.5418710000000 1.0
C      1  0.4902710000000  0.4773350000000  0.4200690000000 1.0
C      1  0.4104870000000  0.4725470000000  0.5866680000000 1.0
C      1  0.4755310000000  0.5561310000000  0.5101870000000 1.0
C      1  0.5466110000000  0.4888580000000  0.4168290000000 1.0
C      1  0.5018000000000  0.4260270000000  0.4903540000000 1.0
C      1  0.5360680000000  0.4620050000000  0.4133230000000 1.0
C      1  0.5371270000000  0.3943150000000  0.4783260000000 1.0
C      1  0.6044910000000  0.6166700000000  0.4647070000000 1.0
C      1  0.4844650000000  0.6054900000000  0.4759330000000 1.0
C      1  0.5316730000000  0.6130880000000  0.4799460000000 1.0
C      1  0.6119850000000  0.4912650000000  0.4705190000000 1.0
C      1  0.5860490000000  0.4952490000000  0.5169100000000 1.0
C      1  0.5568480000000  0.5559030000000  0.4207630000000 1.0
C      1  0.3928880000000  0.5770820000000  0.5499110000000 1.0
C      1  0.4296570000000  0.4319050000000  0.5642410000000 1.0
C      1  0.5312070000000  0.4540380000000  0.5428930000000 1.0
C      1  0.5113900000000  0.6045310000000  0.4601720000000 1.0
C      1  0.3895510000000  0.5602650000000  0.3537610000000 1.0
C      1  0.3866490000000  0.4806520000000  0.4832900000000 1.0
C      1  0.5724550000000  0.5192210000000  0.5287620000000 1.0
C      1  0.5667400000000  0.4497210000000  0.5101720000000 1.0
C      1  0.5103260000000  0.4036880000000  0.4755830000000 1.0
C      1  0.4754750000000  0.6227230000000  0.5226560000000 1.0
C      1  0.5596760000000  0.6137770000000  0.4784210000000 1.0
C      1  0.5172580000000  0.4967850000000  0.4547010000000 1.0
C      1  0.5524780000000  0.4720730000000  0.5500680000000 1.0
C      1  0.4990230000000  0.5044830000000  0.6517530000000 1.0
C      1  0.4096360000000  0.4958970000000  0.4100390000000 1.0
C      1  0.4766860000000  0.5080650000000  0.5616040000000 1.0
C      1  0.4098290000000  0.5454590000000  0.6009430000000 1.0
C      1  0.5498070000000  0.4965780000000  0.5628680000000 1.0
C      1  0.5065660000000  0.5571470000000  0.3839360000000 1.0
C      1  0.5829290000000  0.4099970000000  0.5904430000000 1.0
C      1  0.6180120000000  0.4621840000000  0.5551440000000 1.0
C      1  0.4312410000000  0.4381040000000  0.5140390000000 1.0
C      1  0.4689270000000  0.5898200000000  0.6160710000000 1.0
C      1  0.4564940000000  0.3963110000000  0.5027730000000 1.0
C      1  0.5439890000000  0.5035230000000  0.4423500000000 1.0
C      1  0.4691760000000  0.6427830000000  0.4139250000000 1.0
C      1  0.4647990000000  0.3997310000000  0.5775920000000 1.0
C      1  0.5050630000000  0.5830700000000  0.3899720000000 1.0
C      1  0.4454110000000  0.4809350000000  0.5026530000000 1.0
C      1  0.6619300000000  0.5242920000000  0.5611890000000 1.0
C      1  0.4996760000000  0.5013050000000  0.4309980000000 1.0
C      1  0.4652860000000  0.5425330000000  0.5942750000000 1.0
C      1  0.5030220000000  0.5470010000000  0.5087080000000 1.0
C      1  0.4602850000000  0.5886190000000  0.4753570000000 1.0
C      1  0.4138230000000  0.5593560000000  0.5466390000000 1.0
C      1  0.5278220000000  0.5718280000000  0.5409730000000 1.0
C      1  0.5209090000000  0.6093640000000  0.5073030000000 1.0
C      1  0.5106300000000  0.5040470000000  0.5294300000000 1.0
C      1  0.4259470000000  0.4455070000000  0.4650390000000 1.0
C      1  0.5126030000000  0.5682430000000  0.5942680000000 1.0
C      1  0.4152130000000  0.4524780000000  0.4388810000000 1.0
C      1  0.4519420000000  0.6620190000000  0.4174650000000 1.0
C      1  0.6148720000000  0.4702810000000  0.4511160000000 1.0
C      1  0.5263960000000  0.5067830000000  0.5742300000000 1.0
C      1  0.5265170000000  0.5483450000000  0.5245830000000 1.0
C      1  0.5547760000000  0.4089310000000  0.4610200000000 1.0
C      1  0.4613050000000  0.4732400000000  0.4162750000000 1.0
C      1  0.5836290000000  0.4128090000000  0.4673420000000 1.0
C      1  0.4684550000000  0.3960280000000  0.4563460000000 1.0
C      1  0.6110270000000  0.4449570000000  0.5318920000000 1.0
C      1  0.4277190000000  0.5399780000000  0.4578810000000 1.0
C      1  0.5543940000000  0.4413630000000  0.4225800000000 1.0
C      1  0.4614070000000  0.4541310000000  0.3943760000000 1.0
C      1  0.4255500000000  0.5310830000000  0.3812590000000 1.0
C      1  0.5531600000000  0.4896650000000  0.4917160000000 1.0
C      1  0.4345380000000  0.5151430000000  0.4690840000000 1.0
C      1  0.4892200000000  0.3848100000000  0.4737660000000 1.0
C      1  0.4699460000000  0.5627940000000  0.4824150000000 1.0
C      1  0.4986900000000  0.3714370000000  0.6053490000000 1.0
C      1  0.5900390000000  0.4260780000000  0.5431530000000 1.0
C      1  0.4957590000000  0.5325500000000  0.3919670000000 1.0
C      1  0.5098220000000  0.3837110000000  0.5184680000000 1.0
C      1  0.4825620000000  0.3818910000000  0.5028060000000 1.0
C      1  0.5285230000000  0.4986780000000  0.5053180000000 1.0
C      1  0.3938830000000  0.4927000000000  0.4583930000000 1.0
C      1  0.6381530000000  0.5112390000000  0.5639510000000 1.0
C      1  0.4113980000000  0.4958650000000  0.6029280000000 1.0
C      1  0.4855420000000  0.5327760000000  0.6113450000000 1.0
C      1  0.4069650000000  0.5205610000000  0.5881030000000 1.0
C      1  0.5496200000000  0.3763680000000  0.6120520000000 1.0
C      1  0.5577830000000  0.4626200000000  0.4858330000000 1.0
C      1  0.6089910000000  0.5160550000000  0.4560630000000 1.0
C      1  0.5721890000000  0.4720590000000  0.5292020000000 1.0
C      1  0.4431330000000  0.5822150000000  0.6187700000000 1.0
C      1  0.4175150000000  0.4402370000000  0.5391920000000 1.0
END
