TITL C-612601-4209-794 0.373064085203495 125000 -802.760078158298 0 0 130 (C1) n - 1
REM
REM in /home/nfs/bkarasulu/CARBON/AIRSS/Generating-Clusters/TERSOFF/Only-C1/FIRE-HFTN
REM
REM
REM
REM
REM
REM ./C.cell (11c1c37f851c82e70ff6c80c92926a4b)
REM AIRSS Version 0.9.1 bugfix July 2018 build 013d7b7c2542+ Fri, 06 Jul 2018 19:26:36 +0100
REM compiler GCC version 9.2.1 20190827 (Red Hat 9.2.1-1)
REM options -cpp -mtune=generic -march=x86-64 -g -O0 -fpre-include=/usr/include/finclude/math-vector-fortran.h
REM seed -539137342 -116392218 -2059122733 -1324410604 1843132311 1824427097 -1422545788 1037740407 2130505614 -1684205096 181324263 -1628674806 379110364 -1189131116 -400622492 -168243911 1254435225 -1487161479 408702976 1180449554 962727558 1993288591 -1699734456 -715674255 1861858100 1030990937 1139946419 -436232576 -2147126260 168866759 775624266 1324076267 -1545053377
REM
CELL 1.54180   50.00000   50.00000   50.00000   90.00000   90.00000   90.00000
LATT -1
SFAC C  
C      1  0.5336620000000  0.5934230000000  0.4913030000000 1.0
C      1  0.4602650000000  0.4772930000000  0.5980540000000 1.0
C      1  0.4732580000000  0.5495610000000  0.4672180000000 1.0
C      1  0.5867500000000  0.5258560000000  0.5158680000000 1.0
C      1  0.4995790000000  0.4906630000000  0.5497600000000 1.0
C      1  0.4617060000000  0.4001600000000  0.4841820000000 1.0
C      1  0.4498030000000  0.5497520000000  0.5822010000000 1.0
C      1  0.4813760000000  0.5052230000000  0.4395240000000 1.0
C      1  0.4531420000000  0.5128960000000  0.5504480000000 1.0
C      1  0.4989550000000  0.5411810000000  0.5305020000000 1.0
C      1  0.5354600000000  0.4552010000000  0.5073120000000 1.0
C      1  0.5398450000000  0.5317700000000  0.4407850000000 1.0
C      1  0.5634160000000  0.5431540000000  0.4522310000000 1.0
C      1  0.5550600000000  0.5867190000000  0.4738850000000 1.0
C      1  0.5073380000000  0.4051790000000  0.4667630000000 1.0
C      1  0.4816000000000  0.4583090000000  0.5956780000000 1.0
C      1  0.3920470000000  0.4932830000000  0.5091410000000 1.0
C      1  0.5528160000000  0.4480330000000  0.5726530000000 1.0
C      1  0.5985750000000  0.5000900000000  0.5618620000000 1.0
C      1  0.5511730000000  0.5812570000000  0.4263000000000 1.0
C      1  0.5002510000000  0.5489230000000  0.4582950000000 1.0
C      1  0.4433880000000  0.5248240000000  0.4133450000000 1.0
C      1  0.4584030000000  0.5655910000000  0.4471330000000 1.0
C      1  0.5071580000000  0.5137780000000  0.5320300000000 1.0
C      1  0.5302530000000  0.4188700000000  0.4773100000000 1.0
C      1  0.4075050000000  0.6505460000000  0.6473250000000 1.0
C      1  0.5423390000000  0.4285520000000  0.3767280000000 1.0
C      1  0.4222250000000  0.4816870000000  0.4259400000000 1.0
C      1  0.4835610000000  0.6139050000000  0.5268360000000 1.0
C      1  0.4671220000000  0.5054990000000  0.5954040000000 1.0
C      1  0.4887500000000  0.3904550000000  0.4835220000000 1.0
C      1  0.4698490000000  0.5695090000000  0.5785410000000 1.0
C      1  0.5257330000000  0.4486200000000  0.5340470000000 1.0
C      1  0.5963570000000  0.4346690000000  0.4764450000000 1.0
C      1  0.5068970000000  0.4615060000000  0.5505990000000 1.0
C      1  0.4673030000000  0.4831080000000  0.3911010000000 1.0
C      1  0.5082490000000  0.6033620000000  0.4814730000000 1.0
C      1  0.4663570000000  0.5923530000000  0.4576920000000 1.0
C      1  0.5369120000000  0.4169460000000  0.3519220000000 1.0
C      1  0.5215800000000  0.4392730000000  0.3920710000000 1.0
C      1  0.4946520000000  0.5136420000000  0.5942650000000 1.0
C      1  0.5142780000000  0.5181160000000  0.4060810000000 1.0
C      1  0.4567490000000  0.4628780000000  0.5458080000000 1.0
C      1  0.4522170000000  0.5316790000000  0.5296010000000 1.0
C      1  0.3889730000000  0.4370960000000  0.5563430000000 1.0
C      1  0.5648020000000  0.4568480000000  0.5086880000000 1.0
C      1  0.5546380000000  0.4120390000000  0.4921170000000 1.0
C      1  0.5509940000000  0.5085640000000  0.4891900000000 1.0
C      1  0.4683880000000  0.5603100000000  0.4937940000000 1.0
C      1  0.4537810000000  0.4188320000000  0.4626790000000 1.0
C      1  0.5361230000000  0.5855720000000  0.5185050000000 1.0
C      1  0.4134800000000  0.4768600000000  0.5047930000000 1.0
C      1  0.5049270000000  0.4549040000000  0.4078090000000 1.0
C      1  0.4357940000000  0.6246150000000  0.6113870000000 1.0
C      1  0.4340390000000  0.4575290000000  0.4242530000000 1.0
C      1  0.4352470000000  0.4677840000000  0.5873570000000 1.0
C      1  0.4858970000000  0.6056680000000  0.5004510000000 1.0
C      1  0.5685600000000  0.4295280000000  0.3863790000000 1.0
C      1  0.4598620000000  0.4148080000000  0.5314500000000 1.0
C      1  0.4215330000000  0.6376880000000  0.6295050000000 1.0
C      1  0.5193670000000  0.5286200000000  0.4606820000000 1.0
C      1  0.5944070000000  0.5253570000000  0.5707640000000 1.0
C      1  0.4964490000000  0.3681830000000  0.4973550000000 1.0
C      1  0.5788040000000  0.4822140000000  0.5522600000000 1.0
C      1  0.4572100000000  0.5082520000000  0.3944290000000 1.0
C      1  0.5290270000000  0.5402930000000  0.4153210000000 1.0
C      1  0.4591330000000  0.4444960000000  0.4208660000000 1.0
C      1  0.5433140000000  0.4324610000000  0.5507750000000 1.0
C      1  0.6030940000000  0.4330750000000  0.4253070000000 1.0
C      1  0.4061880000000  0.5366840000000  0.4662290000000 1.0
C      1  0.5073070000000  0.5728750000000  0.4423520000000 1.0
C      1  0.4111030000000  0.4483320000000  0.5449950000000 1.0
C      1  0.5406340000000  0.4982490000000  0.5802710000000 1.0
C      1  0.4728720000000  0.5052400000000  0.4663380000000 1.0
C      1  0.5143760000000  0.4719440000000  0.4288330000000 1.0
C      1  0.5577020000000  0.4761740000000  0.5711060000000 1.0
C      1  0.5258210000000  0.5688420000000  0.4205930000000 1.0
C      1  0.4500200000000  0.6114910000000  0.5933060000000 1.0
C      1  0.4695930000000  0.4413530000000  0.5324680000000 1.0
C      1  0.4648240000000  0.5971010000000  0.5745180000000 1.0
C      1  0.4357960000000  0.4848380000000  0.4889250000000 1.0
C      1  0.4749940000000  0.6100030000000  0.5517400000000 1.0
C      1  0.5757030000000  0.5493290000000  0.5264510000000 1.0
C      1  0.4688830000000  0.4243560000000  0.4393060000000 1.0
C      1  0.4963370000000  0.5590210000000  0.5764800000000 1.0
C      1  0.5745560000000  0.4340020000000  0.4937380000000 1.0
C      1  0.5733580000000  0.4793350000000  0.5240670000000 1.0
C      1  0.5098510000000  0.5585570000000  0.5508250000000 1.0
C      1  0.5213300000000  0.5075620000000  0.4811400000000 1.0
C      1  0.5391090000000  0.5957490000000  0.5667850000000 1.0
C      1  0.4733860000000  0.5462390000000  0.5176610000000 1.0
C      1  0.5317610000000  0.4061430000000  0.3287710000000 1.0
C      1  0.4266820000000  0.4294360000000  0.5004280000000 1.0
C      1  0.5323400000000  0.5403550000000  0.6038020000000 1.0
C      1  0.6132180000000  0.5239530000000  0.5092870000000 1.0
C      1  0.4963260000000  0.5963300000000  0.4547900000000 1.0
C      1  0.4446630000000  0.5072710000000  0.4741130000000 1.0
C      1  0.4976570000000  0.4498650000000  0.5754520000000 1.0
C      1  0.4402020000000  0.4396040000000  0.4765380000000 1.0
C      1  0.5363890000000  0.5731570000000  0.5464520000000 1.0
C      1  0.5683300000000  0.5041340000000  0.5115180000000 1.0
C      1  0.4686850000000  0.4889730000000  0.5467990000000 1.0
C      1  0.4260270000000  0.5094140000000  0.4306270000000 1.0
C      1  0.5499230000000  0.4069070000000  0.5412470000000 1.0
C      1  0.5049110000000  0.5404460000000  0.5967370000000 1.0
C      1  0.5502540000000  0.5247100000000  0.5882690000000 1.0
C      1  0.4651430000000  0.5892940000000  0.4884250000000 1.0
C      1  0.4864360000000  0.4494340000000  0.5112780000000 1.0
C      1  0.5041050000000  0.4985320000000  0.4242980000000 1.0
C      1  0.5894700000000  0.4312650000000  0.4025990000000 1.0
C      1  0.5234960000000  0.4621780000000  0.4544710000000 1.0
C      1  0.4455070000000  0.4076000000000  0.5080550000000 1.0
C      1  0.6059620000000  0.4343580000000  0.4516790000000 1.0
C      1  0.4325750000000  0.4589560000000  0.5604360000000 1.0
C      1  0.4808590000000  0.4676000000000  0.4909460000000 1.0
C      1  0.5605730000000  0.5544930000000  0.5497470000000 1.0
C      1  0.4535640000000  0.4638060000000  0.4818330000000 1.0
C      1  0.4501420000000  0.5510850000000  0.4238220000000 1.0
C      1  0.4938620000000  0.4930970000000  0.4837560000000 1.0
C      1  0.5269760000000  0.4480200000000  0.4794860000000 1.0
C      1  0.4142850000000  0.4500450000000  0.5164030000000 1.0
C      1  0.5691860000000  0.5241960000000  0.4719280000000 1.0
C      1  0.4248600000000  0.5189030000000  0.4574400000000 1.0
C      1  0.4768550000000  0.4585730000000  0.4029800000000 1.0
C      1  0.5630740000000  0.5719900000000  0.4510020000000 1.0
C      1  0.5690590000000  0.5382360000000  0.5720660000000 1.0
C      1  0.5118020000000  0.4985290000000  0.5768600000000 1.0
C      1  0.4510840000000  0.5218110000000  0.5776790000000 1.0
C      1  0.5528320000000  0.3971150000000  0.5161880000000 1.0
C      1  0.4954240000000  0.4140210000000  0.4420300000000 1.0
END
