TITL C-612605-9286-1302 -3.86314971091432e-05 125000 -382.27762067699 0 0 64 (C1) n - 1
REM
REM in /home/nfs/bkarasulu/CARBON/AIRSS/Generating-Clusters/TERSOFF/Only-C1/FIRE-HFTN
REM
REM
REM
REM
REM
REM ./C.cell (11c1c37f851c82e70ff6c80c92926a4b)
REM AIRSS Version 0.9.1 bugfix July 2018 build 013d7b7c2542+ Fri, 06 Jul 2018 19:26:36 +0100
REM compiler GCC version 9.2.1 20190827 (Red Hat 9.2.1-1)
REM options -cpp -mtune=generic -march=x86-64 -g -O0 -fpre-include=/usr/include/finclude/math-vector-fortran.h
REM seed -1528277514 63940308 -614648816 1170804616 -324841195 25539648 -544636576 -751867734 -606347351 -738280496 -1343057045 -2057580999 241224690 -1123403115 -841343123 -193440542 -185641232 -537051949 1424333487 -854877313 509937529 185725626 -1982242241 -936379523 -790520224 -1040486845 -633952920 -1829539477 2105512473 1738242252 -1246490285 1658705131 163717509
REM
CELL 1.54180   50.00000   50.00000   50.00000   90.00000   90.00000   90.00000
LATT -1
SFAC C  
C      1  0.4877320000000  0.4594430000000  0.5762980000000 1.0
C      1  0.4391600000000  0.5697430000000  0.5202670000000 1.0
C      1  0.5458920000000  0.3793190000000  0.5062460000000 1.0
C      1  0.5209510000000  0.5095010000000  0.4579540000000 1.0
C      1  0.5492100000000  0.5354550000000  0.5316440000000 1.0
C      1  0.4892880000000  0.4860050000000  0.5757770000000 1.0
C      1  0.5207990000000  0.4736510000000  0.4253580000000 1.0
C      1  0.4936770000000  0.5156990000000  0.5149110000000 1.0
C      1  0.4509960000000  0.4936330000000  0.5344210000000 1.0
C      1  0.5431230000000  0.5259720000000  0.4502740000000 1.0
C      1  0.4952820000000  0.5217010000000  0.4644610000000 1.0
C      1  0.5119930000000  0.5678830000000  0.5318310000000 1.0
C      1  0.5572910000000  0.5609950000000  0.5205640000000 1.0
C      1  0.4178350000000  0.5684610000000  0.4566380000000 1.0
C      1  0.5450420000000  0.5522330000000  0.4596850000000 1.0
C      1  0.4482760000000  0.5626260000000  0.4937620000000 1.0
C      1  0.4397850000000  0.5006380000000  0.4691380000000 1.0
C      1  0.5614110000000  0.5177050000000  0.4297470000000 1.0
C      1  0.4437580000000  0.5118140000000  0.5549270000000 1.0
C      1  0.4470260000000  0.4833050000000  0.4242060000000 1.0
C      1  0.5501260000000  0.5058690000000  0.4066940000000 1.0
C      1  0.4887690000000  0.4360300000000  0.5607730000000 1.0
C      1  0.5576830000000  0.4040130000000  0.5051430000000 1.0
C      1  0.4641460000000  0.4224800000000  0.5593240000000 1.0
C      1  0.4304130000000  0.5523310000000  0.4747050000000 1.0
C      1  0.4845590000000  0.5670980000000  0.5249280000000 1.0
C      1  0.5391820000000  0.4958280000000  0.5053480000000 1.0
C      1  0.4769460000000  0.5573420000000  0.4975060000000 1.0
C      1  0.4262600000000  0.5244870000000  0.4749050000000 1.0
C      1  0.5247860000000  0.4934520000000  0.4051730000000 1.0
C      1  0.5528600000000  0.5072000000000  0.5272440000000 1.0
C      1  0.5026200000000  0.5100880000000  0.3995960000000 1.0
C      1  0.6145600000000  0.5238960000000  0.4361310000000 1.0
C      1  0.4542190000000  0.5005860000000  0.4448850000000 1.0
C      1  0.4413960000000  0.4666040000000  0.4050090000000 1.0
C      1  0.4908900000000  0.4878400000000  0.5087490000000 1.0
C      1  0.4280040000000  0.4999640000000  0.5750890000000 1.0
C      1  0.5206240000000  0.4639710000000  0.4759380000000 1.0
C      1  0.4856900000000  0.5228930000000  0.4162210000000 1.0
C      1  0.4590980000000  0.5623310000000  0.5401700000000 1.0
C      1  0.4239290000000  0.4488290000000  0.5765620000000 1.0
C      1  0.4764790000000  0.5182410000000  0.4426330000000 1.0
C      1  0.5121170000000  0.4314110000000  0.5457940000000 1.0
C      1  0.5357690000000  0.4391080000000  0.5321990000000 1.0
C      1  0.5162750000000  0.4798240000000  0.4989080000000 1.0
C      1  0.5210850000000  0.4804040000000  0.4527770000000 1.0
C      1  0.5848450000000  0.4065850000000  0.5027660000000 1.0
C      1  0.4392120000000  0.4290560000000  0.5669540000000 1.0
C      1  0.5362710000000  0.5794280000000  0.5207920000000 1.0
C      1  0.5038090000000  0.5207840000000  0.5415740000000 1.0
C      1  0.5219520000000  0.5421750000000  0.5414790000000 1.0
C      1  0.5075590000000  0.5032960000000  0.5640090000000 1.0
C      1  0.5889290000000  0.5206810000000  0.4326860000000 1.0
C      1  0.4528170000000  0.5387920000000  0.5547960000000 1.0
C      1  0.4630070000000  0.4820810000000  0.5115110000000 1.0
C      1  0.4467890000000  0.4816260000000  0.4885620000000 1.0
C      1  0.5463710000000  0.5782230000000  0.4612300000000 1.0
C      1  0.4894920000000  0.5324900000000  0.4910680000000 1.0
C      1  0.5523560000000  0.4883400000000  0.5492570000000 1.0
C      1  0.5348610000000  0.4969190000000  0.5697550000000 1.0
C      1  0.5515200000000  0.4605090000000  0.5426500000000 1.0
C      1  0.5415010000000  0.4273170000000  0.5065020000000 1.0
C      1  0.4204640000000  0.4749430000000  0.5812850000000 1.0
C      1  0.5312300000000  0.4388480000000  0.4826120000000 1.0
END
