TITL C-612603-7354-99 0.222165756138743 125000 -1087.53851209617 0 0 177 (C1) n - 1
REM
REM in /home/nfs/bkarasulu/CARBON/AIRSS/Generating-Clusters/TERSOFF/Only-C1/FIRE-HFTN
REM
REM
REM
REM
REM
REM ./C.cell (11c1c37f851c82e70ff6c80c92926a4b)
REM AIRSS Version 0.9.1 bugfix July 2018 build 013d7b7c2542+ Fri, 06 Jul 2018 19:26:36 +0100
REM compiler GCC version 9.2.1 20190827 (Red Hat 9.2.1-1)
REM options -cpp -mtune=generic -march=x86-64 -g -O0 -fpre-include=/usr/include/finclude/math-vector-fortran.h
REM seed 143685618 -687618806 -891904541 -1761718304 479238332 -1274244232 -1296483547 -363133152 177299465 -231947183 -1144898001 93474103 -1202318647 -1608148285 -260100335 1019132447 428477803 440251093 -771256495 943233480 -1723262298 -100429917 276361999 1919550501 -1061033917 1371606399 1486956738 513902610 1082476577 -153014019 -443505942 -435370940 1765668553
REM
CELL 1.54180   50.00000   50.00000   50.00000   90.00000   90.00000   90.00000
LATT -1
SFAC C  
C      1  0.5049490000000  0.3748730000000  0.4981140000000 1.0
C      1  0.4719380000000  0.4876860000000  0.4290070000000 1.0
C      1  0.4530760000000  0.3687520000000  0.5076750000000 1.0
C      1  0.5974840000000  0.3471490000000  0.5559990000000 1.0
C      1  0.5415010000000  0.4037850000000  0.4967820000000 1.0
C      1  0.5460730000000  0.5118070000000  0.4551780000000 1.0
C      1  0.5332710000000  0.4081900000000  0.5787280000000 1.0
C      1  0.4660500000000  0.5072710000000  0.4105100000000 1.0
C      1  0.5608090000000  0.5065130000000  0.5220080000000 1.0
C      1  0.4975290000000  0.4899190000000  0.4412410000000 1.0
C      1  0.4328840000000  0.6080070000000  0.4225810000000 1.0
C      1  0.3774550000000  0.5618380000000  0.3930220000000 1.0
C      1  0.5008830000000  0.4237240000000  0.5229970000000 1.0
C      1  0.4288930000000  0.4272780000000  0.5077650000000 1.0
C      1  0.4306310000000  0.5714230000000  0.3929450000000 1.0
C      1  0.4833630000000  0.5328450000000  0.4829220000000 1.0
C      1  0.5613970000000  0.6829520000000  0.5405880000000 1.0
C      1  0.5673020000000  0.5535810000000  0.4078420000000 1.0
C      1  0.5578850000000  0.6165120000000  0.4956170000000 1.0
C      1  0.4413410000000  0.4520490000000  0.5065700000000 1.0
C      1  0.4630050000000  0.5676700000000  0.4513510000000 1.0
C      1  0.4260980000000  0.5282180000000  0.4259190000000 1.0
C      1  0.4990120000000  0.4787690000000  0.5458480000000 1.0
C      1  0.5313550000000  0.4737090000000  0.4135690000000 1.0
C      1  0.5377240000000  0.4356470000000  0.5826270000000 1.0
C      1  0.5786980000000  0.5057350000000  0.4204120000000 1.0
C      1  0.5930210000000  0.5087950000000  0.4467300000000 1.0
C      1  0.3619690000000  0.5901200000000  0.4354620000000 1.0
C      1  0.4929310000000  0.5058180000000  0.5548360000000 1.0
C      1  0.4158900000000  0.4756770000000  0.4134240000000 1.0
C      1  0.4885730000000  0.5474690000000  0.3517140000000 1.0
C      1  0.5350750000000  0.5886280000000  0.4582630000000 1.0
C      1  0.5858460000000  0.4649360000000  0.4714280000000 1.0
C      1  0.3944600000000  0.4467370000000  0.4432660000000 1.0
C      1  0.5860860000000  0.3664520000000  0.5427130000000 1.0
C      1  0.4481030000000  0.5870150000000  0.4099220000000 1.0
C      1  0.5860090000000  0.5299030000000  0.4660640000000 1.0
C      1  0.4171940000000  0.5905680000000  0.4646520000000 1.0
C      1  0.5589530000000  0.6406180000000  0.5095370000000 1.0
C      1  0.4789640000000  0.5728370000000  0.5086320000000 1.0
C      1  0.5584670000000  0.5260390000000  0.4753630000000 1.0
C      1  0.4153360000000  0.4045880000000  0.4984210000000 1.0
C      1  0.5193740000000  0.4038410000000  0.4541040000000 1.0
C      1  0.3626540000000  0.5088410000000  0.4740870000000 1.0
C      1  0.4630370000000  0.4614000000000  0.4248590000000 1.0
C      1  0.5620800000000  0.4615230000000  0.6147780000000 1.0
C      1  0.5202900000000  0.3937130000000  0.4802340000000 1.0
C      1  0.3587330000000  0.5655990000000  0.4498110000000 1.0
C      1  0.4698970000000  0.3871400000000  0.4688960000000 1.0
C      1  0.4449300000000  0.5768250000000  0.5847810000000 1.0
C      1  0.5407270000000  0.5360120000000  0.5542400000000 1.0
C      1  0.5136410000000  0.4955180000000  0.4173160000000 1.0
C      1  0.5397630000000  0.6130150000000  0.4730570000000 1.0
C      1  0.4109500000000  0.6052010000000  0.4405510000000 1.0
C      1  0.5191830000000  0.5417800000000  0.5362570000000 1.0
C      1  0.3845910000000  0.4305120000000  0.4642530000000 1.0
C      1  0.4380170000000  0.5265180000000  0.6278120000000 1.0
C      1  0.4515100000000  0.5286840000000  0.4150860000000 1.0
C      1  0.5985350000000  0.4344710000000  0.5982690000000 1.0
C      1  0.5422320000000  0.5465200000000  0.4876800000000 1.0
C      1  0.6051800000000  0.4431480000000  0.6702240000000 1.0
C      1  0.5119370000000  0.4947200000000  0.4917870000000 1.0
C      1  0.5601940000000  0.4622210000000  0.4594530000000 1.0
C      1  0.3585410000000  0.5138630000000  0.4466840000000 1.0
C      1  0.5748810000000  0.5939610000000  0.5029850000000 1.0
C      1  0.3744510000000  0.4974940000000  0.4276310000000 1.0
C      1  0.4216620000000  0.5236090000000  0.4530970000000 1.0
C      1  0.5638480000000  0.4887620000000  0.6079820000000 1.0
C      1  0.5374730000000  0.5250290000000  0.5810640000000 1.0
C      1  0.4884130000000  0.5078570000000  0.5837340000000 1.0
C      1  0.4628620000000  0.5691290000000  0.5310140000000 1.0
C      1  0.4202650000000  0.4364690000000  0.4333730000000 1.0
C      1  0.5493060000000  0.5722500000000  0.4152720000000 1.0
C      1  0.5421500000000  0.4839110000000  0.4588520000000 1.0
C      1  0.5633120000000  0.5314640000000  0.5378310000000 1.0
C      1  0.4456510000000  0.4543590000000  0.6255700000000 1.0
C      1  0.5228570000000  0.4626960000000  0.5398620000000 1.0
C      1  0.4969150000000  0.5469190000000  0.3763950000000 1.0
C      1  0.4864480000000  0.4170440000000  0.5449070000000 1.0
C      1  0.5488740000000  0.3834980000000  0.5160490000000 1.0
C      1  0.4793230000000  0.4362410000000  0.5639530000000 1.0
C      1  0.5871110000000  0.4970520000000  0.5162600000000 1.0
C      1  0.4479890000000  0.4783150000000  0.5816780000000 1.0
C      1  0.5733250000000  0.3876010000000  0.5297540000000 1.0
C      1  0.5216530000000  0.5483620000000  0.5079150000000 1.0
C      1  0.6014010000000  0.5426650000000  0.5092700000000 1.0
C      1  0.4726700000000  0.4368100000000  0.5914160000000 1.0
C      1  0.4556530000000  0.5058900000000  0.6215290000000 1.0
C      1  0.5142540000000  0.4472010000000  0.6231270000000 1.0
C      1  0.6090680000000  0.5229390000000  0.3568130000000 1.0
C      1  0.4769860000000  0.4619320000000  0.5516690000000 1.0
C      1  0.5157330000000  0.5843880000000  0.5991320000000 1.0
C      1  0.5177570000000  0.5237240000000  0.4143910000000 1.0
C      1  0.4379780000000  0.5807920000000  0.5367840000000 1.0
C      1  0.4631050000000  0.5000120000000  0.5944400000000 1.0
C      1  0.4068090000000  0.5304860000000  0.4059830000000 1.0
C      1  0.4625920000000  0.4873060000000  0.6409050000000 1.0
C      1  0.4283060000000  0.3800300000000  0.5049130000000 1.0
C      1  0.5393560000000  0.5944670000000  0.5924050000000 1.0
C      1  0.5960580000000  0.4448150000000  0.6458690000000 1.0
C      1  0.4958210000000  0.5535170000000  0.4974450000000 1.0
C      1  0.5819040000000  0.5522590000000  0.5287580000000 1.0
C      1  0.5142050000000  0.4832650000000  0.4647520000000 1.0
C      1  0.5356240000000  0.4981760000000  0.5090020000000 1.0
C      1  0.5771970000000  0.5809600000000  0.5287950000000 1.0
C      1  0.3812220000000  0.5174290000000  0.4072350000000 1.0
C      1  0.4507420000000  0.4733110000000  0.5532060000000 1.0
C      1  0.6019710000000  0.4845750000000  0.4591230000000 1.0
C      1  0.5230680000000  0.3701410000000  0.5212150000000 1.0
C      1  0.4489860000000  0.4541120000000  0.5975340000000 1.0
C      1  0.4717230000000  0.5771100000000  0.4254620000000 1.0
C      1  0.4746190000000  0.5536480000000  0.5523520000000 1.0
C      1  0.3837630000000  0.6060080000000  0.4327850000000 1.0
C      1  0.5226750000000  0.4418740000000  0.5194880000000 1.0
C      1  0.5849150000000  0.4142060000000  0.5298400000000 1.0
C      1  0.5235060000000  0.3850970000000  0.5693880000000 1.0
C      1  0.4595420000000  0.4588940000000  0.4849710000000 1.0
C      1  0.6033270000000  0.4259480000000  0.5735970000000 1.0
C      1  0.4707280000000  0.5423060000000  0.4601920000000 1.0
C      1  0.5957000000000  0.5518010000000  0.4822840000000 1.0
C      1  0.6230750000000  0.5197680000000  0.3345350000000 1.0
C      1  0.4369470000000  0.4695070000000  0.5290080000000 1.0
C      1  0.5383050000000  0.4468210000000  0.6086990000000 1.0
C      1  0.5118060000000  0.5208620000000  0.5935330000000 1.0
C      1  0.3626580000000  0.5413110000000  0.4076290000000 1.0
C      1  0.5801390000000  0.5287060000000  0.4026130000000 1.0
C      1  0.4642300000000  0.4129570000000  0.4662690000000 1.0
C      1  0.5356300000000  0.5284950000000  0.4354470000000 1.0
C      1  0.5594430000000  0.5985120000000  0.5755170000000 1.0
C      1  0.5384550000000  0.4546860000000  0.5619330000000 1.0
C      1  0.4105470000000  0.5160100000000  0.4761330000000 1.0
C      1  0.6075300000000  0.5148940000000  0.5124270000000 1.0
C      1  0.6368520000000  0.5166490000000  0.3126240000000 1.0
C      1  0.5725680000000  0.5942530000000  0.5528450000000 1.0
C      1  0.3866270000000  0.5095140000000  0.4864770000000 1.0
C      1  0.3937330000000  0.4111650000000  0.4810780000000 1.0
C      1  0.4811030000000  0.4685740000000  0.6501170000000 1.0
C      1  0.5601510000000  0.6621650000000  0.5249050000000 1.0
C      1  0.5950710000000  0.5260470000000  0.3790830000000 1.0
C      1  0.5735680000000  0.4342800000000  0.5125230000000 1.0
C      1  0.5581650000000  0.5106710000000  0.5937810000000 1.0
C      1  0.4855300000000  0.5059060000000  0.4911500000000 1.0
C      1  0.3729590000000  0.5662650000000  0.4743520000000 1.0
C      1  0.5265050000000  0.5804700000000  0.4314270000000 1.0
C      1  0.5285870000000  0.4268230000000  0.4405090000000 1.0
C      1  0.5889750000000  0.4504090000000  0.4952830000000 1.0
C      1  0.5595940000000  0.4832240000000  0.4130570000000 1.0
C      1  0.3964960000000  0.5784750000000  0.4794860000000 1.0
C      1  0.4361280000000  0.4559740000000  0.4197240000000 1.0
C      1  0.4376660000000  0.5841690000000  0.6100150000000 1.0
C      1  0.5043310000000  0.5463950000000  0.4033330000000 1.0
C      1  0.5089910000000  0.4660320000000  0.6443820000000 1.0
C      1  0.4436750000000  0.5815760000000  0.4662110000000 1.0
C      1  0.4833910000000  0.4461140000000  0.4385150000000 1.0
C      1  0.6324320000000  0.4202640000000  0.5358800000000 1.0
C      1  0.5167680000000  0.3692870000000  0.5486520000000 1.0
C      1  0.5507660000000  0.5695730000000  0.4730920000000 1.0
C      1  0.4885040000000  0.4346870000000  0.6161180000000 1.0
C      1  0.3906980000000  0.4736980000000  0.4292970000000 1.0
C      1  0.4693540000000  0.4435080000000  0.6379530000000 1.0
C      1  0.4712850000000  0.4400680000000  0.4649480000000 1.0
C      1  0.3541260000000  0.5411230000000  0.4356480000000 1.0
C      1  0.4925590000000  0.5724090000000  0.5942410000000 1.0
C      1  0.5457060000000  0.4302390000000  0.5067010000000 1.0
C      1  0.4935450000000  0.5329960000000  0.5452410000000 1.0
C      1  0.5117450000000  0.4461250000000  0.4282260000000 1.0
C      1  0.4292400000000  0.5835730000000  0.5622100000000 1.0
C      1  0.4705470000000  0.5651320000000  0.5785860000000 1.0
C      1  0.4660720000000  0.4864310000000  0.4856770000000 1.0
C      1  0.5858930000000  0.4468450000000  0.6200130000000 1.0
C      1  0.4061370000000  0.5568020000000  0.3929790000000 1.0
C      1  0.5784700000000  0.5753890000000  0.4810530000000 1.0
C      1  0.6071680000000  0.4202540000000  0.5464480000000 1.0
C      1  0.5003200000000  0.5705360000000  0.4199320000000 1.0
C      1  0.4178200000000  0.5394890000000  0.6380080000000 1.0
C      1  0.4768560000000  0.3731340000000  0.4925310000000 1.0
C      1  0.5533490000000  0.4374700000000  0.4482370000000 1.0
END
