TITL C-612603-7354-1357 0.526584446001383 125000 -652.950716373791 0 0 107 (C1) n - 1
REM
REM in /home/nfs/bkarasulu/CARBON/AIRSS/Generating-Clusters/TERSOFF/Only-C1/FIRE-HFTN
REM
REM
REM
REM
REM
REM ./C.cell (11c1c37f851c82e70ff6c80c92926a4b)
REM AIRSS Version 0.9.1 bugfix July 2018 build 013d7b7c2542+ Fri, 06 Jul 2018 19:26:36 +0100
REM compiler GCC version 9.2.1 20190827 (Red Hat 9.2.1-1)
REM options -cpp -mtune=generic -march=x86-64 -g -O0 -fpre-include=/usr/include/finclude/math-vector-fortran.h
REM seed 811266873 614355294 2095033677 532915035 1310357964 723942877 200687837 -1188703598 1417188756 -1689394303 -1764435366 1121809446 -985447438 -1793997755 -1158529948 -176266656 -1765408692 1348578857 734620105 -1431604825 1556610238 1379621110 -1640292912 -670192555 830254266 505703125 -1024243255 -1943713184 1941239439 260949264 -733430417 31931009 672609693
REM
CELL 1.54180   50.00000   50.00000   50.00000   90.00000   90.00000   90.00000
LATT -1
SFAC C  
C      1  0.5654480000000  0.4859520000000  0.5616770000000 1.0
C      1  0.5180700000000  0.5000090000000  0.4795030000000 1.0
C      1  0.5013670000000  0.4102370000000  0.5052960000000 1.0
C      1  0.5290190000000  0.4741580000000  0.3975210000000 1.0
C      1  0.5876790000000  0.5305670000000  0.5605920000000 1.0
C      1  0.4669790000000  0.4386200000000  0.5597560000000 1.0
C      1  0.5376780000000  0.4785830000000  0.5626740000000 1.0
C      1  0.5397710000000  0.5595240000000  0.5213720000000 1.0
C      1  0.4414640000000  0.4222550000000  0.4968770000000 1.0
C      1  0.4547400000000  0.3990990000000  0.4991730000000 1.0
C      1  0.5393380000000  0.5538130000000  0.5702510000000 1.0
C      1  0.4727900000000  0.6300620000000  0.5088200000000 1.0
C      1  0.5544640000000  0.4658520000000  0.4664180000000 1.0
C      1  0.5532530000000  0.5605630000000  0.5460770000000 1.0
C      1  0.5487360000000  0.5905480000000  0.6314340000000 1.0
C      1  0.4045040000000  0.4828350000000  0.5262300000000 1.0
C      1  0.5126670000000  0.4044280000000  0.4613150000000 1.0
C      1  0.4813610000000  0.3916090000000  0.4952550000000 1.0
C      1  0.4414090000000  0.4485130000000  0.4871500000000 1.0
C      1  0.5558780000000  0.4854030000000  0.3956610000000 1.0
C      1  0.5063360000000  0.4540610000000  0.5948210000000 1.0
C      1  0.4380400000000  0.4786590000000  0.5651780000000 1.0
C      1  0.5365450000000  0.3909240000000  0.4208430000000 1.0
C      1  0.4613360000000  0.5192010000000  0.4645250000000 1.0
C      1  0.5606060000000  0.5277520000000  0.4621580000000 1.0
C      1  0.4666070000000  0.4908350000000  0.5042320000000 1.0
C      1  0.4354480000000  0.5074610000000  0.5659270000000 1.0
C      1  0.4873400000000  0.4431940000000  0.4232330000000 1.0
C      1  0.5182110000000  0.5130410000000  0.5868240000000 1.0
C      1  0.5243150000000  0.4821330000000  0.5396900000000 1.0
C      1  0.4811370000000  0.4623600000000  0.4438050000000 1.0
C      1  0.5215080000000  0.4094260000000  0.4351920000000 1.0
C      1  0.5690390000000  0.6035190000000  0.4776470000000 1.0
C      1  0.5401130000000  0.4272510000000  0.5380380000000 1.0
C      1  0.5327420000000  0.5412470000000  0.4215720000000 1.0
C      1  0.3917960000000  0.4737770000000  0.5026370000000 1.0
C      1  0.5257730000000  0.5730800000000  0.5857870000000 1.0
C      1  0.5363870000000  0.5396380000000  0.5019910000000 1.0
C      1  0.4948960000000  0.4991360000000  0.5782900000000 1.0
C      1  0.4252820000000  0.5241630000000  0.5449780000000 1.0
C      1  0.5149670000000  0.4238960000000  0.4836230000000 1.0
C      1  0.5508730000000  0.3738890000000  0.4072920000000 1.0
C      1  0.5284640000000  0.4729360000000  0.4768280000000 1.0
C      1  0.4928190000000  0.3848810000000  0.4693940000000 1.0
C      1  0.4891190000000  0.4252550000000  0.5520880000000 1.0
C      1  0.4859460000000  0.4731460000000  0.5872140000000 1.0
C      1  0.4056830000000  0.5508100000000  0.4987340000000 1.0
C      1  0.5143480000000  0.4344030000000  0.4243280000000 1.0
C      1  0.5884440000000  0.5008190000000  0.4303250000000 1.0
C      1  0.5808340000000  0.5535030000000  0.5475600000000 1.0
C      1  0.5909450000000  0.5908800000000  0.4713250000000 1.0
C      1  0.4616060000000  0.4631990000000  0.5733410000000 1.0
C      1  0.4477930000000  0.6246130000000  0.5157660000000 1.0
C      1  0.4352030000000  0.5119350000000  0.4530550000000 1.0
C      1  0.5193350000000  0.5158930000000  0.5035620000000 1.0
C      1  0.5464340000000  0.6152600000000  0.4849860000000 1.0
C      1  0.4096200000000  0.5228230000000  0.4968270000000 1.0
C      1  0.4848180000000  0.5123540000000  0.4493050000000 1.0
C      1  0.4119420000000  0.5103100000000  0.5234070000000 1.0
C      1  0.4616460000000  0.4930440000000  0.4118910000000 1.0
C      1  0.4180230000000  0.4683910000000  0.5469030000000 1.0
C      1  0.4374840000000  0.5040510000000  0.4245540000000 1.0
C      1  0.4982080000000  0.6295020000000  0.5013180000000 1.0
C      1  0.4649280000000  0.5170720000000  0.4922730000000 1.0
C      1  0.4843460000000  0.4585240000000  0.4714650000000 1.0
C      1  0.4140270000000  0.5062090000000  0.4731080000000 1.0
C      1  0.5350690000000  0.5301080000000  0.4472890000000 1.0
C      1  0.5606640000000  0.5263090000000  0.4909860000000 1.0
C      1  0.5836060000000  0.5206940000000  0.4476560000000 1.0
C      1  0.5752530000000  0.4662490000000  0.5407700000000 1.0
C      1  0.5052580000000  0.4883000000000  0.3880830000000 1.0
C      1  0.5743560000000  0.4626750000000  0.4872440000000 1.0
C      1  0.4699490000000  0.5399580000000  0.5078570000000 1.0
C      1  0.5550210000000  0.4389850000000  0.5791600000000 1.0
C      1  0.4845100000000  0.5049880000000  0.5526110000000 1.0
C      1  0.3817600000000  0.5980740000000  0.5372490000000 1.0
C      1  0.4753830000000  0.4923060000000  0.5307900000000 1.0
C      1  0.5554760000000  0.4639840000000  0.4376140000000 1.0
C      1  0.5710250000000  0.4816790000000  0.4199690000000 1.0
C      1  0.5677990000000  0.5129030000000  0.5706500000000 1.0
C      1  0.5228780000000  0.6242020000000  0.4932070000000 1.0
C      1  0.4138720000000  0.5655090000000  0.5217630000000 1.0
C      1  0.5326680000000  0.4554160000000  0.4203710000000 1.0
C      1  0.5092540000000  0.5161270000000  0.3844480000000 1.0
C      1  0.5422780000000  0.5262420000000  0.5787510000000 1.0
C      1  0.4784360000000  0.5950330000000  0.5725810000000 1.0
C      1  0.5757580000000  0.4764990000000  0.5126450000000 1.0
C      1  0.5102960000000  0.4514880000000  0.4798250000000 1.0
C      1  0.5634210000000  0.4404720000000  0.5501480000000 1.0
C      1  0.4596490000000  0.5533990000000  0.5287030000000 1.0
C      1  0.4775430000000  0.4784470000000  0.3916520000000 1.0
C      1  0.4064520000000  0.5921510000000  0.5271500000000 1.0
C      1  0.5212390000000  0.5359890000000  0.3979430000000 1.0
C      1  0.5373880000000  0.5824060000000  0.6094310000000 1.0
C      1  0.5009630000000  0.5829290000000  0.5775950000000 1.0
C      1  0.4251490000000  0.6123300000000  0.5220060000000 1.0
C      1  0.4788780000000  0.4890920000000  0.4348720000000 1.0
C      1  0.4767300000000  0.4502380000000  0.3975390000000 1.0
C      1  0.5256620000000  0.4371510000000  0.5822080000000 1.0
C      1  0.5346830000000  0.4994560000000  0.5209870000000 1.0
C      1  0.5119930000000  0.5156110000000  0.4568900000000 1.0
C      1  0.5623560000000  0.5019970000000  0.5099700000000 1.0
C      1  0.4639920000000  0.4658860000000  0.4896750000000 1.0
C      1  0.4210520000000  0.4576790000000  0.4699120000000 1.0
C      1  0.5169920000000  0.4260810000000  0.5558840000000 1.0
C      1  0.4330110000000  0.5508970000000  0.5377440000000 1.0
C      1  0.4043510000000  0.4789700000000  0.4772780000000 1.0
END
