TITL C-612603-7354-643 0.000566295852070497 125000 -521.178516127059 0 0 84 (C1) n - 1
REM
REM in /home/nfs/bkarasulu/CARBON/AIRSS/Generating-Clusters/TERSOFF/Only-C1/FIRE-HFTN
REM
REM
REM
REM
REM
REM ./C.cell (11c1c37f851c82e70ff6c80c92926a4b)
REM AIRSS Version 0.9.1 bugfix July 2018 build 013d7b7c2542+ Fri, 06 Jul 2018 19:26:36 +0100
REM compiler GCC version 9.2.1 20190827 (Red Hat 9.2.1-1)
REM options -cpp -mtune=generic -march=x86-64 -g -O0 -fpre-include=/usr/include/finclude/math-vector-fortran.h
REM seed -313998803 922458054 -451161112 -1329294043 -1860615275 198565126 -921084403 -1319690741 1356717182 -891923848 -601353214 1836127689 214555790 915590948 -212474383 -1243001769 375655395 333362182 1905507312 -2107612033 -1814538492 -1714457020 -1455868315 -399186000 -894171954 80158139 -792552420 -507597707 976115449 656902217 1239708347 1132063471 -2078916318
REM
CELL 1.54180   50.00000   50.00000   50.00000   90.00000   90.00000   90.00000
LATT -1
SFAC C  
C      1  0.4484960000000  0.4169110000000  0.4866660000000 1.0
C      1  0.5199880000000  0.4960390000000  0.4172040000000 1.0
C      1  0.3957840000000  0.5033980000000  0.4634310000000 1.0
C      1  0.5719600000000  0.4698860000000  0.4523720000000 1.0
C      1  0.5681090000000  0.5753940000000  0.5320770000000 1.0
C      1  0.4645040000000  0.5325990000000  0.5308980000000 1.0
C      1  0.5134750000000  0.4365180000000  0.4704410000000 1.0
C      1  0.4886340000000  0.4298380000000  0.4593250000000 1.0
C      1  0.5817410000000  0.5284800000000  0.5303810000000 1.0
C      1  0.4514290000000  0.4585670000000  0.4616290000000 1.0
C      1  0.4807800000000  0.4669990000000  0.4239060000000 1.0
C      1  0.5012150000000  0.5376420000000  0.4189480000000 1.0
C      1  0.4905450000000  0.5255200000000  0.5207110000000 1.0
C      1  0.5278550000000  0.4201630000000  0.5403890000000 1.0
C      1  0.4712350000000  0.5519710000000  0.4736570000000 1.0
C      1  0.4904400000000  0.5823750000000  0.5395460000000 1.0
C      1  0.5535720000000  0.4437060000000  0.4941130000000 1.0
C      1  0.5785840000000  0.4927560000000  0.5758610000000 1.0
C      1  0.4916500000000  0.5041470000000  0.4781070000000 1.0
C      1  0.5082250000000  0.5042560000000  0.5987390000000 1.0
C      1  0.5638550000000  0.5168430000000  0.4589110000000 1.0
C      1  0.4420170000000  0.5489310000000  0.5235920000000 1.0
C      1  0.5079670000000  0.4805200000000  0.5470200000000 1.0
C      1  0.4113270000000  0.4804560000000  0.4694330000000 1.0
C      1  0.5174340000000  0.5539000000000  0.4909680000000 1.0
C      1  0.5005160000000  0.4789160000000  0.5201180000000 1.0
C      1  0.4840640000000  0.4926540000000  0.5886160000000 1.0
C      1  0.3945240000000  0.5253290000000  0.5086080000000 1.0
C      1  0.4915000000000  0.5011560000000  0.5060550000000 1.0
C      1  0.4092740000000  0.4530060000000  0.4781080000000 1.0
C      1  0.4467340000000  0.5663140000000  0.4809380000000 1.0
C      1  0.4738270000000  0.4509600000000  0.4462500000000 1.0
C      1  0.4582700000000  0.4079630000000  0.5376430000000 1.0
C      1  0.5155750000000  0.5286250000000  0.5835790000000 1.0
C      1  0.5598380000000  0.4540280000000  0.5203730000000 1.0
C      1  0.4063180000000  0.5185540000000  0.4408010000000 1.0
C      1  0.5485530000000  0.4549590000000  0.5702860000000 1.0
C      1  0.5189150000000  0.5722870000000  0.4462270000000 1.0
C      1  0.5297910000000  0.5531420000000  0.4649130000000 1.0
C      1  0.5258710000000  0.4822490000000  0.6067040000000 1.0
C      1  0.5762630000000  0.5074330000000  0.5117940000000 1.0
C      1  0.5257140000000  0.4104060000000  0.5138060000000 1.0
C      1  0.4522400000000  0.5735590000000  0.5098510000000 1.0
C      1  0.5551860000000  0.4823260000000  0.5648730000000 1.0
C      1  0.5092370000000  0.4864380000000  0.4650470000000 1.0
C      1  0.5406630000000  0.5305880000000  0.4505190000000 1.0
C      1  0.5721880000000  0.4801310000000  0.5193900000000 1.0
C      1  0.5475740000000  0.4408130000000  0.5448710000000 1.0
C      1  0.4519680000000  0.5244490000000  0.4130810000000 1.0
C      1  0.4720930000000  0.4104580000000  0.4719400000000 1.0
C      1  0.5322020000000  0.4950770000000  0.5542570000000 1.0
C      1  0.3833800000000  0.5146850000000  0.4862280000000 1.0
C      1  0.5350670000000  0.4581430000000  0.5960320000000 1.0
C      1  0.5307140000000  0.4254890000000  0.4909420000000 1.0
C      1  0.5992060000000  0.5091450000000  0.5712600000000 1.0
C      1  0.4399550000000  0.4842750000000  0.4640450000000 1.0
C      1  0.4866220000000  0.4783680000000  0.5657070000000 1.0
C      1  0.4468660000000  0.4093540000000  0.5135580000000 1.0
C      1  0.6015960000000  0.5253780000000  0.5499620000000 1.0
C      1  0.4954570000000  0.5727090000000  0.5642560000000 1.0
C      1  0.5353830000000  0.5396290000000  0.5371820000000 1.0
C      1  0.5297540000000  0.5226620000000  0.5592600000000 1.0
C      1  0.4798580000000  0.5186040000000  0.4117570000000 1.0
C      1  0.5025780000000  0.5538510000000  0.5823240000000 1.0
C      1  0.5619310000000  0.5488410000000  0.5331820000000 1.0
C      1  0.5055060000000  0.4151060000000  0.5566080000000 1.0
C      1  0.4914400000000  0.4910310000000  0.4135920000000 1.0
C      1  0.4918070000000  0.5664640000000  0.4896660000000 1.0
C      1  0.5159110000000  0.5401820000000  0.5166570000000 1.0
C      1  0.5715470000000  0.5165850000000  0.4857670000000 1.0
C      1  0.4801530000000  0.5795390000000  0.5133950000000 1.0
C      1  0.5529020000000  0.4601720000000  0.4701980000000 1.0
C      1  0.4344980000000  0.4389780000000  0.4758770000000 1.0
C      1  0.4720050000000  0.5229650000000  0.4680880000000 1.0
C      1  0.5746830000000  0.4954000000000  0.4440940000000 1.0
C      1  0.5245140000000  0.4629240000000  0.4639280000000 1.0
C      1  0.5020880000000  0.5655450000000  0.4242360000000 1.0
C      1  0.5253970000000  0.5224140000000  0.4274610000000 1.0
C      1  0.4171260000000  0.5418440000000  0.5088240000000 1.0
C      1  0.4492630000000  0.5098460000000  0.4571440000000 1.0
C      1  0.4345190000000  0.5208460000000  0.4351290000000 1.0
C      1  0.4883000000000  0.5840750000000  0.4098390000000 1.0
C      1  0.4209600000000  0.5549010000000  0.4829160000000 1.0
C      1  0.4792920000000  0.4104160000000  0.5539100000000 1.0
END
