TITL C-612602-9376-1141 -0.0195853006557462 125000 -25.0790098850574 0 0 5 (D(inf)h) n - 1
REM
REM in /home/nfs/bkarasulu/CARBON/AIRSS/Generating-Clusters/TERSOFF/Only-C1/FIRE-HFTN
REM
REM
REM
REM
REM
REM ./C.cell (11c1c37f851c82e70ff6c80c92926a4b)
REM AIRSS Version 0.9.1 bugfix July 2018 build 013d7b7c2542+ Fri, 06 Jul 2018 19:26:36 +0100
REM compiler GCC version 9.2.1 20190827 (Red Hat 9.2.1-1)
REM options -cpp -mtune=generic -march=x86-64 -g -O0 -fpre-include=/usr/include/finclude/math-vector-fortran.h
REM seed 972772841 700585908 -77770331 -777932559 -249204293 -1330179416 -149353806 1643641324 -931321024 -1698420970 -826331060 1249842500 1044084329 1449238077 -1372333105 894972334 -2044402447 -338658279 1958168104 -1542587137 209708056 -1514008196 1290427947 -1539025721 -168131995 21173673 -1743137373 -148951738 -1483909087 -1647225300 612604281 461602788 1962818864
REM
CELL 1.54180   50.00000   50.00000   50.00000   90.00000   90.00000   90.00000
LATT -1
SFAC C  
C      1  0.5034560000000  0.5297540000000  0.4567910000000 1.0
C      1  0.4965440000000  0.4702460000000  0.5432090000000 1.0
C      1  0.4982580000000  0.4849990000000  0.5217840000000 1.0
C      1  0.5017420000000  0.5150010000000  0.4782160000000 1.0
C      1  0.5000000000000  0.5000000000000  0.5000000000000 1.0
END
