TITL C-612606-7351-112 143339.239099372 125000 -911.353529373159 0 0 147 (C1) n - 1
REM
REM in /home/nfs/bkarasulu/CARBON/AIRSS/Generating-Clusters/TERSOFF/Only-C1/FIRE-HFTN
REM
REM
REM
REM
REM
REM ./C.cell (11c1c37f851c82e70ff6c80c92926a4b)
REM AIRSS Version 0.9.1 bugfix July 2018 build 013d7b7c2542+ Fri, 06 Jul 2018 19:26:36 +0100
REM compiler GCC version 9.2.1 20190827 (Red Hat 9.2.1-1)
REM options -cpp -mtune=generic -march=x86-64 -g -O0 -fpre-include=/usr/include/finclude/math-vector-fortran.h
REM seed 2065302179 1233627003 -1700569403 -1660542851 -1521854174 1651819268 337521160 -1532449317 -1827645688 -1234212213 1132693924 1706117016 -795160348 613754873 -577017133 657436088 895394362 -1065947816 -160950087 -900696778 914622397 1012731983 1893598932 -1287117241 -1091990367 1861828422 -2026355717 -44867022 -240221353 769679208 -941628852 1312836538 1597365794
REM
CELL 1.54180   50.00000   50.00000   50.00000   90.00000   90.00000   90.00000
LATT -1
SFAC C  
C      1  0.4459520000000  0.4326360000000  0.4610760000000 1.0
C      1  0.5149330000000  0.4836780000000  0.4451270000000 1.0
C      1  0.5873050000000  0.5125590000000  0.5730960000000 1.0
C      1  0.5715480000000  0.3903470000000  0.4134460000000 1.0
C      1  0.4959680000000  0.6036790000000  0.4611280000000 1.0
C      1  0.4678540000000  0.4152150000000  0.4633160000000 1.0
C      1  0.5069340000000  0.4500320000000  0.5351340000000 1.0
C      1  0.4848750000000  0.4825720000000  0.6036280000000 1.0
C      1  0.5960850000000  0.5449880000000  0.4492110000000 1.0
C      1  0.5916380000000  0.4757980000000  0.4909630000000 1.0
C      1  0.5657320000000  0.5331010000000  0.5139170000000 1.0
C      1  0.4824500000000  0.4633690000000  0.4018160000000 1.0
C      1  0.5492820000000  0.5087740000000  0.5187350000000 1.0
C      1  0.4587100000000  0.5967430000000  0.4981000000000 1.0
C      1  0.4442210000000  0.4096890000000  0.5183440000000 1.0
C      1  0.4665940000000  0.4306600000000  0.5801690000000 1.0
C      1  0.5875510000000  0.4590580000000  0.5378790000000 1.0
C      1  0.5074850000000  0.6075600000000  0.5173190000000 1.0
C      1  0.5107480000000  0.4629860000000  0.4906640000000 1.0
C      1  0.3765720000000  0.5445490000000  0.5049660000000 1.0
C      1  0.4481980000000  0.4537490000000  0.5840060000000 1.0
C      1  0.4209220000000  0.4963760000000  0.5363880000000 1.0
C      1  0.4754200000000  0.5469860000000  0.4893580000000 1.0
C      1  0.5356970000000  0.5076680000000  0.4927220000000 1.0
C      1  0.5115000000000  0.5558140000000  0.5684970000000 1.0
C      1  0.4791450000000  0.4485050000000  0.5346590000000 1.0
C      1  0.4625530000000  0.5387560000000  0.3954470000000 1.0
C      1  0.4179030000000  0.4972200000000  0.4868580000000 1.0
C      1  0.6061750000000  0.5088320000000  0.5242140000000 1.0
C      1  0.4763650000000  0.5748810000000  0.5321780000000 1.0
C      1  0.5268670000000  0.5362330000000  0.4913190000000 1.0
C      1  0.5220690000000  0.5799760000000  0.5774880000000 1.0
C      1  0.4125360000000  0.4861940000000  0.4222300000000 1.0
C      1  0.4997370000000  0.4603930000000  0.5933900000000 1.0
C      1  0.5149000000000  0.3908310000000  0.5196040000000 1.0
C      1  0.5414690000000  0.5286160000000  0.5990130000000 1.0
C      1  0.4795650000000  0.5498770000000  0.5177570000000 1.0
C      1  0.5085700000000  0.4121630000000  0.5919440000000 1.0
C      1  0.4179870000000  0.4470660000000  0.5309910000000 1.0
C      1  0.5605030000000  0.4417530000000  0.5024730000000 1.0
C      1  0.4217410000000  0.4682360000000  0.4425050000000 1.0
C      1  0.4928680000000  0.5309640000000  0.5339660000000 1.0
C      1  0.4208960000000  0.4471340000000  0.5791190000000 1.0
C      1  0.5045740000000  0.4014980000000  0.5654070000000 1.0
C      1  0.5040020000000  0.5568480000000  0.4492890000000 1.0
C      1  0.5261860000000  0.4459110000000  0.5561350000000 1.0
C      1  0.4916430000000  0.5040370000000  0.5408100000000 1.0
C      1  0.4326240000000  0.5249540000000  0.4320710000000 1.0
C      1  0.4215630000000  0.5529690000000  0.5259150000000 1.0
C      1  0.4648330000000  0.5760900000000  0.5575650000000 1.0
C      1  0.5229400000000  0.6113550000000  0.4621640000000 1.0
C      1  0.5253430000000  0.3912760000000  0.4936980000000 1.0
C      1  0.4805720000000  0.5980700000000  0.5169530000000 1.0
C      1  0.6123020000000  0.5247050000000  0.4992220000000 1.0
C      1  0.5940950000000  0.4633470000000  0.5650380000000 1.0
C      1  0.4783370000000  0.5157300000000  0.4503590000000 1.0
C      1  0.3321900000000  0.5404550000000  0.4770050000000 1.0
C      1  0.5575950000000  0.4947560000000  0.4073870000000 1.0
C      1  0.4326590000000  0.4709520000000  0.5331850000000 1.0
C      1  0.5636780000000  0.4831710000000  0.4333080000000 1.0
C      1  0.5034280000000  0.4443100000000  0.4734390000000 1.0
C      1  0.5947570000000  0.4861330000000  0.5791600000000 1.0
C      1  0.4187340000000  0.4709720000000  0.4728560000000 1.0
C      1  0.5708610000000  0.5922160000000  0.4487370000000 1.0
C      1  0.4659800000000  0.4001740000000  0.5338890000000 1.0
C      1  0.4276640000000  0.4311330000000  0.5092770000000 1.0
C      1  0.5033200000000  0.4509700000000  0.3871980000000 1.0
C      1  0.5306920000000  0.4848280000000  0.6202890000000 1.0
C      1  0.4628430000000  0.5044110000000  0.4993630000000 1.0
C      1  0.5465790000000  0.5743400000000  0.5217390000000 1.0
C      1  0.5324410000000  0.6015330000000  0.5878220000000 1.0
C      1  0.5129810000000  0.5245730000000  0.6036600000000 1.0
C      1  0.4310900000000  0.5135290000000  0.5569300000000 1.0
C      1  0.5612960000000  0.5237130000000  0.4138770000000 1.0
C      1  0.5255150000000  0.4020090000000  0.5441330000000 1.0
C      1  0.4668140000000  0.6042210000000  0.4717610000000 1.0
C      1  0.4672470000000  0.5331980000000  0.5821020000000 1.0
C      1  0.5982740000000  0.4804150000000  0.5188850000000 1.0
C      1  0.4517260000000  0.5539780000000  0.5681730000000 1.0
C      1  0.5649580000000  0.4659880000000  0.4887840000000 1.0
C      1  0.4512770000000  0.5074270000000  0.5781030000000 1.0
C      1  0.4296580000000  0.4439340000000  0.4831220000000 1.0
C      1  0.3126380000000  0.5320860000000  0.4619340000000 1.0
C      1  0.4367720000000  0.5690420000000  0.5058300000000 1.0
C      1  0.5884270000000  0.5721390000000  0.4444400000000 1.0
C      1  0.4955370000000  0.4183330000000  0.4669240000000 1.0
C      1  0.4920590000000  0.4959830000000  0.4359410000000 1.0
C      1  0.4908130000000  0.5807350000000  0.4433070000000 1.0
C      1  0.4424110000000  0.5211730000000  0.4045600000000 1.0
C      1  0.5153220000000  0.5455180000000  0.5423400000000 1.0
C      1  0.4010350000000  0.5354360000000  0.5145600000000 1.0
C      1  0.5986940000000  0.5241700000000  0.5490410000000 1.0
C      1  0.5665950000000  0.4386540000000  0.5304100000000 1.0
C      1  0.3535730000000  0.5455180000000  0.4918530000000 1.0
C      1  0.5920220000000  0.5521610000000  0.5456470000000 1.0
C      1  0.4296630000000  0.4948900000000  0.3988600000000 1.0
C      1  0.4062730000000  0.5126540000000  0.4334960000000 1.0
C      1  0.4586770000000  0.4821000000000  0.5903400000000 1.0
C      1  0.5425970000000  0.4745620000000  0.5972970000000 1.0
C      1  0.4910270000000  0.4341270000000  0.5959060000000 1.0
C      1  0.5058570000000  0.4996450000000  0.6154800000000 1.0
C      1  0.5315510000000  0.5494560000000  0.4450490000000 1.0
C      1  0.5342560000000  0.4888200000000  0.5322040000000 1.0
C      1  0.4502020000000  0.5151040000000  0.4520470000000 1.0
C      1  0.4611650000000  0.4508890000000  0.4158610000000 1.0
C      1  0.4888900000000  0.4905130000000  0.4083100000000 1.0
C      1  0.5416410000000  0.4818700000000  0.4510480000000 1.0
C      1  0.5655270000000  0.5244850000000  0.5873180000000 1.0
C      1  0.5471810000000  0.4777360000000  0.3877930000000 1.0
C      1  0.4750020000000  0.4092510000000  0.5599550000000 1.0
C      1  0.4314340000000  0.5424950000000  0.5512730000000 1.0
C      1  0.4399160000000  0.5631910000000  0.4587270000000 1.0
C      1  0.5853670000000  0.5239480000000  0.4327000000000 1.0
C      1  0.4082920000000  0.4391680000000  0.5563420000000 1.0
C      1  0.5366010000000  0.5384720000000  0.4183160000000 1.0
C      1  0.4605950000000  0.4688220000000  0.5306630000000 1.0
C      1  0.5272070000000  0.5530150000000  0.5169510000000 1.0
C      1  0.4889890000000  0.5383130000000  0.4648270000000 1.0
C      1  0.4562200000000  0.5824680000000  0.4488210000000 1.0
C      1  0.4866660000000  0.3857940000000  0.5206410000000 1.0
C      1  0.5228310000000  0.4685510000000  0.5756410000000 1.0
C      1  0.5057530000000  0.5072660000000  0.3927530000000 1.0
C      1  0.5486180000000  0.6055470000000  0.4561370000000 1.0
C      1  0.5879470000000  0.4961700000000  0.4435090000000 1.0
C      1  0.5446000000000  0.4257850000000  0.5462700000000 1.0
C      1  0.5194700000000  0.4678710000000  0.5165290000000 1.0
C      1  0.5285860000000  0.4591310000000  0.3820250000000 1.0
C      1  0.5488400000000  0.3884970000000  0.4270120000000 1.0
C      1  0.5295720000000  0.3904530000000  0.4451140000000 1.0
C      1  0.5130270000000  0.5341270000000  0.4006050000000 1.0
C      1  0.5453730000000  0.5457500000000  0.4705850000000 1.0
C      1  0.5155910000000  0.4920120000000  0.5549810000000 1.0
C      1  0.5160480000000  0.3986140000000  0.4680540000000 1.0
C      1  0.4956510000000  0.5388820000000  0.5864130000000 1.0
C      1  0.4411560000000  0.5165160000000  0.4804680000000 1.0
C      1  0.5701890000000  0.5404930000000  0.4853230000000 1.0
C      1  0.4727340000000  0.4924990000000  0.5227860000000 1.0
C      1  0.4424650000000  0.4485060000000  0.4369730000000 1.0
C      1  0.5952810000000  0.3939730000000  0.4032770000000 1.0
C      1  0.4880990000000  0.5483600000000  0.3970300000000 1.0
C      1  0.4083290000000  0.5074420000000  0.5128290000000 1.0
C      1  0.5334860000000  0.5994910000000  0.5203620000000 1.0
C      1  0.5973980000000  0.5375710000000  0.4775960000000 1.0
C      1  0.4450360000000  0.5478350000000  0.4840920000000 1.0
C      1  0.5468220000000  0.4853080000000  0.4781300000000 1.0
C      1  0.6013260000000  0.4858860000000  0.4662390000000 1.0
C      1  0.5697870000000  0.5583840000000  0.5292840000000 1.0
END
