TITL C-612602-9376-1239 0.0803248653071567 125000 -714.024206417853 0 0 118 (C1) n - 1
REM
REM in /home/nfs/bkarasulu/CARBON/AIRSS/Generating-Clusters/TERSOFF/Only-C1/FIRE-HFTN
REM
REM
REM
REM
REM
REM ./C.cell (11c1c37f851c82e70ff6c80c92926a4b)
REM AIRSS Version 0.9.1 bugfix July 2018 build 013d7b7c2542+ Fri, 06 Jul 2018 19:26:36 +0100
REM compiler GCC version 9.2.1 20190827 (Red Hat 9.2.1-1)
REM options -cpp -mtune=generic -march=x86-64 -g -O0 -fpre-include=/usr/include/finclude/math-vector-fortran.h
REM seed -1532641730 1134907411 -1605737519 1087258119 -739127514 -1276818088 462437844 -431956430 270770095 1456974233 -388272622 1887211682 -487188684 -1313207220 -1189505679 -224536137 -2644278 184121715 366469889 -422979016 -984680813 635084834 -1912956862 -157586196 -1451834543 1490530970 290962142 -1984659617 1386695560 -1534156163 -1172853323 538804176 -1547440206
REM
CELL 1.54180   50.00000   50.00000   50.00000   90.00000   90.00000   90.00000
LATT -1
SFAC C  
C      1  0.5754880000000  0.5531070000000  0.4609560000000 1.0
C      1  0.4860150000000  0.4273800000000  0.4338650000000 1.0
C      1  0.5081490000000  0.5005350000000  0.5990080000000 1.0
C      1  0.5241490000000  0.5093870000000  0.5769530000000 1.0
C      1  0.4718740000000  0.4323730000000  0.4588470000000 1.0
C      1  0.4785180000000  0.4621380000000  0.4948720000000 1.0
C      1  0.4570940000000  0.5023530000000  0.5896530000000 1.0
C      1  0.5287470000000  0.4891480000000  0.4567110000000 1.0
C      1  0.3766330000000  0.5860440000000  0.4421170000000 1.0
C      1  0.4266920000000  0.5510570000000  0.3995130000000 1.0
C      1  0.5151020000000  0.5535800000000  0.4433890000000 1.0
C      1  0.4403000000000  0.5477850000000  0.4221030000000 1.0
C      1  0.5142110000000  0.5005030000000  0.5038090000000 1.0
C      1  0.5359640000000  0.5683410000000  0.4351380000000 1.0
C      1  0.5681010000000  0.3938190000000  0.4643080000000 1.0
C      1  0.5505540000000  0.4294380000000  0.5525220000000 1.0
C      1  0.4917070000000  0.3860930000000  0.4927600000000 1.0
C      1  0.5071930000000  0.5654970000000  0.5763510000000 1.0
C      1  0.5334860000000  0.4512580000000  0.5605420000000 1.0
C      1  0.4475120000000  0.4535640000000  0.5648990000000 1.0
C      1  0.5771950000000  0.4298820000000  0.5651130000000 1.0
C      1  0.4834970000000  0.5154340000000  0.5985340000000 1.0
C      1  0.5207000000000  0.4735740000000  0.5144940000000 1.0
C      1  0.4898300000000  0.5512930000000  0.4968840000000 1.0
C      1  0.4225520000000  0.4810630000000  0.5241560000000 1.0
C      1  0.4999750000000  0.3603020000000  0.5003840000000 1.0
C      1  0.3823100000000  0.5734410000000  0.3938210000000 1.0
C      1  0.4893790000000  0.4979670000000  0.4215730000000 1.0
C      1  0.5124750000000  0.4979330000000  0.5522600000000 1.0
C      1  0.5831640000000  0.4765330000000  0.5595070000000 1.0
C      1  0.5050540000000  0.5976430000000  0.5380160000000 1.0
C      1  0.5140670000000  0.4628380000000  0.4635400000000 1.0
C      1  0.4761090000000  0.4003820000000  0.5121730000000 1.0
C      1  0.4047870000000  0.5604010000000  0.3874980000000 1.0
C      1  0.5070080000000  0.4095770000000  0.4427240000000 1.0
C      1  0.4197340000000  0.5240190000000  0.5552270000000 1.0
C      1  0.4266380000000  0.5241730000000  0.5092660000000 1.0
C      1  0.4788230000000  0.6008350000000  0.4927000000000 1.0
C      1  0.5766860000000  0.5023140000000  0.4146020000000 1.0
C      1  0.4963450000000  0.5456740000000  0.5240100000000 1.0
C      1  0.5472100000000  0.5249110000000  0.5743720000000 1.0
C      1  0.4705810000000  0.5085710000000  0.5254370000000 1.0
C      1  0.4462050000000  0.5480580000000  0.4493560000000 1.0
C      1  0.5750510000000  0.4944150000000  0.3626690000000 1.0
C      1  0.5229390000000  0.5119590000000  0.4774970000000 1.0
C      1  0.4797000000000  0.4516590000000  0.4201070000000 1.0
C      1  0.5623550000000  0.5508980000000  0.4861370000000 1.0
C      1  0.4598410000000  0.5258370000000  0.4620060000000 1.0
C      1  0.4148300000000  0.5757320000000  0.4788540000000 1.0
C      1  0.6168700000000  0.5281250000000  0.4554910000000 1.0
C      1  0.4615970000000  0.4961510000000  0.4607730000000 1.0
C      1  0.5736320000000  0.4951230000000  0.5177040000000 1.0
C      1  0.4084740000000  0.5502270000000  0.5524990000000 1.0
C      1  0.5802300000000  0.4470920000000  0.5202560000000 1.0
C      1  0.5467590000000  0.5872460000000  0.5169460000000 1.0
C      1  0.4776300000000  0.5577340000000  0.5433220000000 1.0
C      1  0.5679040000000  0.5458350000000  0.5331220000000 1.0
C      1  0.5896080000000  0.5293210000000  0.4528240000000 1.0
C      1  0.5589940000000  0.4173620000000  0.4516810000000 1.0
C      1  0.4438270000000  0.4317760000000  0.4582520000000 1.0
C      1  0.4871830000000  0.5427930000000  0.5859940000000 1.0
C      1  0.5014710000000  0.6032460000000  0.5093250000000 1.0
C      1  0.5621080000000  0.5688950000000  0.4417430000000 1.0
C      1  0.5095870000000  0.5329880000000  0.4597130000000 1.0
C      1  0.4113980000000  0.5754890000000  0.5069700000000 1.0
C      1  0.5707410000000  0.4669940000000  0.4739550000000 1.0
C      1  0.5008150000000  0.5161470000000  0.5273310000000 1.0
C      1  0.4262110000000  0.4533450000000  0.4518960000000 1.0
C      1  0.5335660000000  0.4768800000000  0.5421270000000 1.0
C      1  0.5466370000000  0.5276670000000  0.4864250000000 1.0
C      1  0.4571360000000  0.4799070000000  0.4865230000000 1.0
C      1  0.5620770000000  0.4865410000000  0.5428940000000 1.0
C      1  0.4881110000000  0.4788350000000  0.5555510000000 1.0
C      1  0.5904450000000  0.4507180000000  0.5491560000000 1.0
C      1  0.5344160000000  0.5688490000000  0.5634670000000 1.0
C      1  0.5001740000000  0.3946220000000  0.4667210000000 1.0
C      1  0.4155320000000  0.5085830000000  0.5304270000000 1.0
C      1  0.5623330000000  0.5644170000000  0.5114160000000 1.0
C      1  0.5698990000000  0.4415820000000  0.4613520000000 1.0
C      1  0.5806930000000  0.5221540000000  0.5229330000000 1.0
C      1  0.5751870000000  0.5066150000000  0.4422990000000 1.0
C      1  0.4545010000000  0.5237230000000  0.5079400000000 1.0
C      1  0.4511890000000  0.4731220000000  0.5878260000000 1.0
C      1  0.4686190000000  0.5356220000000  0.4871030000000 1.0
C      1  0.5152840000000  0.4968120000000  0.4301470000000 1.0
C      1  0.5579940000000  0.4021160000000  0.5112920000000 1.0
C      1  0.5761050000000  0.4983570000000  0.3884160000000 1.0
C      1  0.4651970000000  0.5424850000000  0.5647330000000 1.0
C      1  0.3714600000000  0.5834880000000  0.4160940000000 1.0
C      1  0.4898430000000  0.4501610000000  0.4723000000000 1.0
C      1  0.4901630000000  0.5806190000000  0.5556370000000 1.0
C      1  0.5333390000000  0.5891330000000  0.5427870000000 1.0
C      1  0.4363590000000  0.4700160000000  0.4302230000000 1.0
C      1  0.4136750000000  0.4648500000000  0.4749200000000 1.0
C      1  0.4411370000000  0.4721970000000  0.5431840000000 1.0
C      1  0.5232430000000  0.4545030000000  0.5870990000000 1.0
C      1  0.5342690000000  0.4152560000000  0.4382310000000 1.0
C      1  0.3927650000000  0.5822210000000  0.4628720000000 1.0
C      1  0.4966200000000  0.4575470000000  0.5164640000000 1.0
C      1  0.5945960000000  0.4888350000000  0.5808010000000 1.0
C      1  0.5284820000000  0.6000920000000  0.4985190000000 1.0
C      1  0.5089620000000  0.3369320000000  0.5076100000000 1.0
C      1  0.4072010000000  0.5682260000000  0.5324340000000 1.0
C      1  0.4445220000000  0.5225040000000  0.5706840000000 1.0
C      1  0.5127680000000  0.4729870000000  0.6041170000000 1.0
C      1  0.4890210000000  0.4522580000000  0.5435520000000 1.0
C      1  0.4659600000000  0.4120550000000  0.5345860000000 1.0
C      1  0.5652460000000  0.3874890000000  0.4902120000000 1.0
C      1  0.4295650000000  0.4753480000000  0.4961240000000 1.0
C      1  0.4613610000000  0.5890290000000  0.4758500000000 1.0
C      1  0.4642730000000  0.4892910000000  0.5436030000000 1.0
C      1  0.5594340000000  0.4879500000000  0.4576210000000 1.0
C      1  0.5527810000000  0.5473330000000  0.5582880000000 1.0
C      1  0.4406990000000  0.5714170000000  0.4667080000000 1.0
C      1  0.5586210000000  0.4267110000000  0.5242490000000 1.0
C      1  0.5775630000000  0.4704500000000  0.5020410000000 1.0
C      1  0.4661500000000  0.4798680000000  0.4319170000000 1.0
C      1  0.4672590000000  0.4350200000000  0.5514860000000 1.0
END
