TITL C-612604-1799-400 0.000927824324137437 125000 -890.813389376629 0 0 148 (C1) n - 1
REM
REM in /home/nfs/bkarasulu/CARBON/AIRSS/Generating-Clusters/TERSOFF/Only-C1/FIRE-HFTN
REM
REM
REM
REM
REM
REM ./C.cell (11c1c37f851c82e70ff6c80c92926a4b)
REM AIRSS Version 0.9.1 bugfix July 2018 build 013d7b7c2542+ Fri, 06 Jul 2018 19:26:36 +0100
REM compiler GCC version 9.2.1 20190827 (Red Hat 9.2.1-1)
REM options -cpp -mtune=generic -march=x86-64 -g -O0 -fpre-include=/usr/include/finclude/math-vector-fortran.h
REM seed 568514973 -1331744589 -2145168297 1966938183 -1417956178 83224547 1884571371 -1645517213 1506536552 -103430375 1310374604 -2033490545 1937715364 505719219 2133004944 -1407285229 2065279312 1825341080 1849970213 -1316768125 958948949 -104820201 1581839803 951982928 -186008284 -536695181 -52431562 7371043 -499230426 909253919 2092876401 1536380957 -343335557
REM
CELL 1.54180   50.00000   50.00000   50.00000   90.00000   90.00000   90.00000
LATT -1
SFAC C  
C      1  0.4704050000000  0.6100750000000  0.5203980000000 1.0
C      1  0.5449320000000  0.5223130000000  0.5598590000000 1.0
C      1  0.4814490000000  0.5261120000000  0.6229090000000 1.0
C      1  0.5307590000000  0.4375550000000  0.5069220000000 1.0
C      1  0.4376150000000  0.5352610000000  0.6055660000000 1.0
C      1  0.5462130000000  0.5169070000000  0.5092520000000 1.0
C      1  0.5284320000000  0.5442100000000  0.5544400000000 1.0
C      1  0.4577180000000  0.5269910000000  0.4142340000000 1.0
C      1  0.4486480000000  0.5868170000000  0.4798350000000 1.0
C      1  0.5324050000000  0.5921950000000  0.5110170000000 1.0
C      1  0.5930620000000  0.5438510000000  0.4789500000000 1.0
C      1  0.4455110000000  0.4608550000000  0.4511490000000 1.0
C      1  0.5996510000000  0.5300430000000  0.5043300000000 1.0
C      1  0.5868140000000  0.4827260000000  0.4845350000000 1.0
C      1  0.4830320000000  0.4236780000000  0.5082350000000 1.0
C      1  0.5768740000000  0.5677500000000  0.4711120000000 1.0
C      1  0.5796590000000  0.4953880000000  0.5307760000000 1.0
C      1  0.4000160000000  0.5330330000000  0.4556640000000 1.0
C      1  0.5068010000000  0.5121980000000  0.6207720000000 1.0
C      1  0.4199320000000  0.4962960000000  0.4263190000000 1.0
C      1  0.4294800000000  0.5303370000000  0.4986010000000 1.0
C      1  0.4870950000000  0.6095100000000  0.4975660000000 1.0
C      1  0.6156070000000  0.3631420000000  0.5059940000000 1.0
C      1  0.5240710000000  0.4151380000000  0.5637000000000 1.0
C      1  0.4014610000000  0.5146460000000  0.4364780000000 1.0
C      1  0.4072070000000  0.6115790000000  0.4820330000000 1.0
C      1  0.5215070000000  0.4596230000000  0.5216250000000 1.0
C      1  0.4771250000000  0.5403720000000  0.4997940000000 1.0
C      1  0.4222190000000  0.5897880000000  0.4916760000000 1.0
C      1  0.4674300000000  0.4584020000000  0.5476790000000 1.0
C      1  0.5732210000000  0.5040000000000  0.4014370000000 1.0
C      1  0.4390140000000  0.5058420000000  0.4073710000000 1.0
C      1  0.5257020000000  0.5742330000000  0.4667150000000 1.0
C      1  0.6236960000000  0.5040010000000  0.3980070000000 1.0
C      1  0.5882730000000  0.5630670000000  0.5405030000000 1.0
C      1  0.4894670000000  0.4560370000000  0.3987550000000 1.0
C      1  0.4218830000000  0.4698240000000  0.4376040000000 1.0
C      1  0.5987640000000  0.3822510000000  0.5115060000000 1.0
C      1  0.4959660000000  0.5536230000000  0.5156670000000 1.0
C      1  0.4881290000000  0.5162670000000  0.4873010000000 1.0
C      1  0.5322390000000  0.4682250000000  0.5734260000000 1.0
C      1  0.4110320000000  0.5023880000000  0.5434840000000 1.0
C      1  0.4089570000000  0.5736890000000  0.5119890000000 1.0
C      1  0.4415890000000  0.4459220000000  0.6336790000000 1.0
C      1  0.5841370000000  0.4558560000000  0.4449170000000 1.0
C      1  0.5628700000000  0.4759900000000  0.3956460000000 1.0
C      1  0.5094820000000  0.5528490000000  0.5383420000000 1.0
C      1  0.4872600000000  0.4500420000000  0.4268270000000 1.0
C      1  0.4525730000000  0.5672530000000  0.5381300000000 1.0
C      1  0.5349350000000  0.4862320000000  0.5938310000000 1.0
C      1  0.4736430000000  0.5633580000000  0.3904190000000 1.0
C      1  0.5560810000000  0.5105290000000  0.4264270000000 1.0
C      1  0.6027020000000  0.5393650000000  0.5329350000000 1.0
C      1  0.4632740000000  0.3602300000000  0.5009890000000 1.0
C      1  0.4920530000000  0.5063390000000  0.5359570000000 1.0
C      1  0.4807840000000  0.4964010000000  0.4388760000000 1.0
C      1  0.3994800000000  0.5534190000000  0.5278620000000 1.0
C      1  0.4946360000000  0.4186310000000  0.5618450000000 1.0
C      1  0.5018740000000  0.5239960000000  0.3921580000000 1.0
C      1  0.3935160000000  0.6318430000000  0.4730310000000 1.0
C      1  0.4533710000000  0.5178550000000  0.5620410000000 1.0
C      1  0.4483950000000  0.4866580000000  0.3882990000000 1.0
C      1  0.4129300000000  0.5395490000000  0.4779600000000 1.0
C      1  0.4326200000000  0.5532900000000  0.5863060000000 1.0
C      1  0.4437590000000  0.4150480000000  0.5410310000000 1.0
C      1  0.4720460000000  0.4498950000000  0.5187760000000 1.0
C      1  0.4143660000000  0.4562840000000  0.5216770000000 1.0
C      1  0.5159590000000  0.4622740000000  0.3921800000000 1.0
C      1  0.5266190000000  0.4630930000000  0.5483020000000 1.0
C      1  0.4657890000000  0.3819160000000  0.4845100000000 1.0
C      1  0.6012440000000  0.5036450000000  0.4135420000000 1.0
C      1  0.4670850000000  0.4673430000000  0.3856620000000 1.0
C      1  0.4712760000000  0.3784550000000  0.4573000000000 1.0
C      1  0.4707160000000  0.5901490000000  0.5404700000000 1.0
C      1  0.4684460000000  0.4067620000000  0.5524770000000 1.0
C      1  0.5536200000000  0.5758160000000  0.4572150000000 1.0
C      1  0.4002720000000  0.4522970000000  0.4348810000000 1.0
C      1  0.4757350000000  0.3763520000000  0.4317100000000 1.0
C      1  0.5958840000000  0.4911710000000  0.5536870000000 1.0
C      1  0.5407820000000  0.5428230000000  0.5006870000000 1.0
C      1  0.4282320000000  0.4301710000000  0.5195650000000 1.0
C      1  0.4655670000000  0.5550430000000  0.4164920000000 1.0
C      1  0.4792520000000  0.5173750000000  0.5562660000000 1.0
C      1  0.5358060000000  0.4910500000000  0.4307180000000 1.0
C      1  0.5149720000000  0.5561850000000  0.6092930000000 1.0
C      1  0.4891130000000  0.5540710000000  0.6190810000000 1.0
C      1  0.5881650000000  0.4659190000000  0.5663400000000 1.0
C      1  0.4961010000000  0.5775770000000  0.4594460000000 1.0
C      1  0.5368680000000  0.4726670000000  0.4076300000000 1.0
C      1  0.4885720000000  0.5443160000000  0.3755920000000 1.0
C      1  0.5206010000000  0.5960270000000  0.5570050000000 1.0
C      1  0.4559010000000  0.5160530000000  0.6156170000000 1.0
C      1  0.4375590000000  0.5624940000000  0.5616040000000 1.0
C      1  0.4464760000000  0.4725930000000  0.6394450000000 1.0
C      1  0.4530540000000  0.4901090000000  0.4960580000000 1.0
C      1  0.5759020000000  0.4237300000000  0.4991950000000 1.0
C      1  0.5270080000000  0.5301470000000  0.6063340000000 1.0
C      1  0.4821980000000  0.5645600000000  0.4378850000000 1.0
C      1  0.5566600000000  0.5200060000000  0.3817550000000 1.0
C      1  0.5563190000000  0.4434500000000  0.4956060000000 1.0
C      1  0.4124910000000  0.4856080000000  0.5198010000000 1.0
C      1  0.5360060000000  0.4336710000000  0.4419140000000 1.0
C      1  0.5622040000000  0.4403130000000  0.4417110000000 1.0
C      1  0.5910690000000  0.5269700000000  0.4555090000000 1.0
C      1  0.4347320000000  0.4974790000000  0.5585880000000 1.0
C      1  0.4969620000000  0.4998440000000  0.5094120000000 1.0
C      1  0.5417780000000  0.5136380000000  0.5869680000000 1.0
C      1  0.5807940000000  0.4026810000000  0.5172890000000 1.0
C      1  0.4470000000000  0.4674180000000  0.5927140000000 1.0
C      1  0.5563630000000  0.5113090000000  0.5358460000000 1.0
C      1  0.5104510000000  0.4188320000000  0.5033160000000 1.0
C      1  0.4869050000000  0.4461470000000  0.5648040000000 1.0
C      1  0.4509750000000  0.5455850000000  0.5106990000000 1.0
C      1  0.5533760000000  0.4210260000000  0.5598760000000 1.0
C      1  0.4603390000000  0.4638930000000  0.4965860000000 1.0
C      1  0.4843000000000  0.5130690000000  0.4145540000000 1.0
C      1  0.5293160000000  0.5214120000000  0.3845260000000 1.0
C      1  0.6095710000000  0.5177190000000  0.5536990000000 1.0
C      1  0.4468420000000  0.4721580000000  0.5644020000000 1.0
C      1  0.5656040000000  0.5301520000000  0.4430500000000 1.0
C      1  0.3804130000000  0.4354870000000  0.4334160000000 1.0
C      1  0.5712400000000  0.4437670000000  0.5675450000000 1.0
C      1  0.5147510000000  0.6126220000000  0.5022610000000 1.0
C      1  0.4708150000000  0.4691050000000  0.4402310000000 1.0
C      1  0.5932540000000  0.5012550000000  0.5052710000000 1.0
C      1  0.3996860000000  0.5287870000000  0.5398960000000 1.0
C      1  0.5216420000000  0.4957840000000  0.4543770000000 1.0
C      1  0.4502980000000  0.4881740000000  0.6148700000000 1.0
C      1  0.5664830000000  0.4034920000000  0.5415340000000 1.0
C      1  0.5168630000000  0.4860360000000  0.6159100000000 1.0
C      1  0.5609770000000  0.4715620000000  0.4895690000000 1.0
C      1  0.4772120000000  0.5922580000000  0.4769900000000 1.0
C      1  0.4897920000000  0.5442370000000  0.3483330000000 1.0
C      1  0.5412880000000  0.4919900000000  0.4957790000000 1.0
C      1  0.5955130000000  0.4789380000000  0.4574550000000 1.0
C      1  0.4458200000000  0.4482720000000  0.4769200000000 1.0
C      1  0.5313340000000  0.5686980000000  0.4948440000000 1.0
C      1  0.4290310000000  0.5020040000000  0.5022570000000 1.0
C      1  0.4934650000000  0.5927740000000  0.5578920000000 1.0
C      1  0.5093160000000  0.4365950000000  0.4388200000000 1.0
C      1  0.4392150000000  0.4243500000000  0.4922720000000 1.0
C      1  0.5418090000000  0.5915730000000  0.5380760000000 1.0
C      1  0.5170830000000  0.4815560000000  0.5052930000000 1.0
C      1  0.4628520000000  0.4079300000000  0.4946240000000 1.0
C      1  0.4958000000000  0.5055340000000  0.4615030000000 1.0
C      1  0.6020110000000  0.5030250000000  0.4429270000000 1.0
C      1  0.4417640000000  0.4422120000000  0.6062560000000 1.0
C      1  0.5675910000000  0.5803510000000  0.5429220000000 1.0
END
