TITL C-612605-9286-186 0.000278068712775709 125000 -338.84114064412 0 0 56 (C1) n - 1
REM
REM in /home/nfs/bkarasulu/CARBON/AIRSS/Generating-Clusters/TERSOFF/Only-C1/FIRE-HFTN
REM
REM
REM
REM
REM
REM ./C.cell (11c1c37f851c82e70ff6c80c92926a4b)
REM AIRSS Version 0.9.1 bugfix July 2018 build 013d7b7c2542+ Fri, 06 Jul 2018 19:26:36 +0100
REM compiler GCC version 9.2.1 20190827 (Red Hat 9.2.1-1)
REM options -cpp -mtune=generic -march=x86-64 -g -O0 -fpre-include=/usr/include/finclude/math-vector-fortran.h
REM seed -27489988 1654236025 1411867162 -1383776559 -460956382 181913703 -1706336510 235424777 826490471 708657010 1119190875 -855192310 -1060065010 -543446595 1018682314 1553317808 -1105454790 -1058778956 -212519512 1265985994 -970272511 -375123298 -1711023908 -883641220 492888142 1598254061 -288168996 -847639545 549973603 -1229531922 953901739 -2002800205 -1075425607
REM
CELL 1.54180   50.00000   50.00000   50.00000   90.00000   90.00000   90.00000
LATT -1
SFAC C  
C      1  0.4490610000000  0.4185410000000  0.5025230000000 1.0
C      1  0.5137540000000  0.4500900000000  0.4938090000000 1.0
C      1  0.4617530000000  0.5138370000000  0.4329150000000 1.0
C      1  0.4068740000000  0.4975770000000  0.4675440000000 1.0
C      1  0.5122080000000  0.5662680000000  0.4747300000000 1.0
C      1  0.6072120000000  0.4905690000000  0.5717090000000 1.0
C      1  0.4328590000000  0.4647730000000  0.5094300000000 1.0
C      1  0.4544580000000  0.5343630000000  0.4488740000000 1.0
C      1  0.5682810000000  0.4989320000000  0.5443420000000 1.0
C      1  0.5632050000000  0.5006430000000  0.4602720000000 1.0
C      1  0.4169980000000  0.5305140000000  0.5308850000000 1.0
C      1  0.4833190000000  0.5150660000000  0.5399070000000 1.0
C      1  0.5280190000000  0.4836800000000  0.4266240000000 1.0
C      1  0.4164810000000  0.4872200000000  0.5150080000000 1.0
C      1  0.4646580000000  0.5048460000000  0.5588010000000 1.0
C      1  0.5347880000000  0.5639820000000  0.4576180000000 1.0
C      1  0.5267140000000  0.4937180000000  0.5200260000000 1.0
C      1  0.4150080000000  0.4776510000000  0.4515950000000 1.0
C      1  0.4603800000000  0.4717940000000  0.5060340000000 1.0
C      1  0.4934980000000  0.5451080000000  0.4733580000000 1.0
C      1  0.4936790000000  0.4339210000000  0.4807520000000 1.0
C      1  0.5157160000000  0.4782600000000  0.4990380000000 1.0
C      1  0.4974020000000  0.4935120000000  0.4834530000000 1.0
C      1  0.4760450000000  0.4892940000000  0.4333090000000 1.0
C      1  0.5564400000000  0.5509860000000  0.5155940000000 1.0
C      1  0.6226970000000  0.4783430000000  0.5008480000000 1.0
C      1  0.5383670000000  0.5708690000000  0.5162150000000 1.0
C      1  0.4648960000000  0.5445360000000  0.4731880000000 1.0
C      1  0.4835260000000  0.4441890000000  0.4558730000000 1.0
C      1  0.5104400000000  0.5056960000000  0.5411350000000 1.0
C      1  0.5180760000000  0.5779300000000  0.4998620000000 1.0
C      1  0.5017570000000  0.4858990000000  0.4225510000000 1.0
C      1  0.4143590000000  0.5066940000000  0.4927390000000 1.0
C      1  0.5499990000000  0.4872890000000  0.4412800000000 1.0
C      1  0.4749830000000  0.4176660000000  0.4947400000000 1.0
C      1  0.5934610000000  0.4963980000000  0.5943520000000 1.0
C      1  0.5671930000000  0.5030410000000  0.5930890000000 1.0
C      1  0.5957760000000  0.4909980000000  0.5457190000000 1.0
C      1  0.5628850000000  0.5245300000000  0.4750000000000 1.0
C      1  0.5530110000000  0.5040920000000  0.5687240000000 1.0
C      1  0.5254230000000  0.5085960000000  0.5651650000000 1.0
C      1  0.5562720000000  0.5479190000000  0.4603140000000 1.0
C      1  0.4763300000000  0.4644760000000  0.5273010000000 1.0
C      1  0.4377040000000  0.4636500000000  0.4486900000000 1.0
C      1  0.5039530000000  0.5189590000000  0.4745690000000 1.0
C      1  0.4714660000000  0.4814930000000  0.4814540000000 1.0
C      1  0.4718790000000  0.5317710000000  0.5197970000000 1.0
C      1  0.4295070000000  0.4367410000000  0.5076340000000 1.0
C      1  0.6104030000000  0.4840630000000  0.5231030000000 1.0
C      1  0.5539150000000  0.5031860000000  0.5199990000000 1.0
C      1  0.4257490000000  0.5318170000000  0.5030890000000 1.0
C      1  0.4532360000000  0.5385870000000  0.4987540000000 1.0
C      1  0.4663340000000  0.4690430000000  0.4536460000000 1.0
C      1  0.4385820000000  0.4979600000000  0.5593210000000 1.0
C      1  0.4185760000000  0.5028260000000  0.5401580000000 1.0
C      1  0.5604350000000  0.5256010000000  0.5035410000000 1.0
END
