TITL C-612605-9286-480 0.631141033688281 125000 -1161.83696831892 0 0 190 (C1) n - 1
REM
REM in /home/nfs/bkarasulu/CARBON/AIRSS/Generating-Clusters/TERSOFF/Only-C1/FIRE-HFTN
REM
REM
REM
REM
REM
REM ./C.cell (11c1c37f851c82e70ff6c80c92926a4b)
REM AIRSS Version 0.9.1 bugfix July 2018 build 013d7b7c2542+ Fri, 06 Jul 2018 19:26:36 +0100
REM compiler GCC version 9.2.1 20190827 (Red Hat 9.2.1-1)
REM options -cpp -mtune=generic -march=x86-64 -g -O0 -fpre-include=/usr/include/finclude/math-vector-fortran.h
REM seed 316873769 -1012793066 -267168601 172494626 -1666474747 -572372198 251159858 -1366235343 -1401678447 -1174800849 -984845277 -2104006861 -1652955756 619314087 352744475 -231100538 198655421 -781054244 -900004772 314976102 -235409906 -1165243863 -93150705 -1291371565 1047174286 807801238 488056471 1306616341 924718461 -439173372 -2093312393 -1400813274 1926474128
REM
CELL 1.54180   50.00000   50.00000   50.00000   90.00000   90.00000   90.00000
LATT -1
SFAC C  
C      1  0.3337810000000  0.5342420000000  0.4878380000000 1.0
C      1  0.4374700000000  0.4333150000000  0.5097410000000 1.0
C      1  0.4941600000000  0.4784040000000  0.6306430000000 1.0
C      1  0.4546660000000  0.5995210000000  0.5032150000000 1.0
C      1  0.6142450000000  0.4642460000000  0.5301360000000 1.0
C      1  0.4364000000000  0.6245980000000  0.5385720000000 1.0
C      1  0.6399920000000  0.4596210000000  0.5390720000000 1.0
C      1  0.5637500000000  0.3797330000000  0.5364310000000 1.0
C      1  0.5783970000000  0.4330320000000  0.6182000000000 1.0
C      1  0.4717330000000  0.4343040000000  0.5860690000000 1.0
C      1  0.5090920000000  0.3740350000000  0.5279510000000 1.0
C      1  0.4511950000000  0.4890550000000  0.5395530000000 1.0
C      1  0.4689850000000  0.5504940000000  0.5369280000000 1.0
C      1  0.4921450000000  0.3826330000000  0.5058360000000 1.0
C      1  0.5400960000000  0.5244090000000  0.5262280000000 1.0
C      1  0.5232120000000  0.5660560000000  0.5456160000000 1.0
C      1  0.3142840000000  0.5533410000000  0.4936920000000 1.0
C      1  0.5044730000000  0.5444850000000  0.4210460000000 1.0
C      1  0.4832420000000  0.6269170000000  0.4504040000000 1.0
C      1  0.4649940000000  0.5613280000000  0.4682120000000 1.0
C      1  0.5860690000000  0.5410860000000  0.5500990000000 1.0
C      1  0.4646170000000  0.3924320000000  0.4682390000000 1.0
C      1  0.4030970000000  0.4686250000000  0.4159890000000 1.0
C      1  0.5220940000000  0.5015620000000  0.3892260000000 1.0
C      1  0.3967950000000  0.4747040000000  0.4770880000000 1.0
C      1  0.6134270000000  0.4810600000000  0.4570650000000 1.0
C      1  0.4947170000000  0.3738250000000  0.5523930000000 1.0
C      1  0.5163710000000  0.4242290000000  0.5075680000000 1.0
C      1  0.4218750000000  0.4089170000000  0.4503960000000 1.0
C      1  0.4315320000000  0.5321050000000  0.5160590000000 1.0
C      1  0.4454900000000  0.4470390000000  0.5817440000000 1.0
C      1  0.5637580000000  0.5232460000000  0.6123380000000 1.0
C      1  0.4743420000000  0.4849760000000  0.3792470000000 1.0
C      1  0.3955800000000  0.4477000000000  0.4670560000000 1.0
C      1  0.5363000000000  0.3852850000000  0.5293440000000 1.0
C      1  0.5505600000000  0.5061360000000  0.5676630000000 1.0
C      1  0.4652890000000  0.4662160000000  0.5404940000000 1.0
C      1  0.5095470000000  0.4351780000000  0.3484360000000 1.0
C      1  0.5144810000000  0.5803730000000  0.5687270000000 1.0
C      1  0.5508780000000  0.5823130000000  0.4071000000000 1.0
C      1  0.5781930000000  0.5975300000000  0.4949630000000 1.0
C      1  0.4395390000000  0.5041090000000  0.5189510000000 1.0
C      1  0.5200530000000  0.3993160000000  0.4240360000000 1.0
C      1  0.4175330000000  0.4882980000000  0.4301430000000 1.0
C      1  0.5241800000000  0.5819550000000  0.5232550000000 1.0
C      1  0.5615340000000  0.4881300000000  0.5471660000000 1.0
C      1  0.4008560000000  0.4421690000000  0.4208590000000 1.0
C      1  0.5530980000000  0.6083380000000  0.5661540000000 1.0
C      1  0.6240810000000  0.5663510000000  0.5357440000000 1.0
C      1  0.5186760000000  0.4634530000000  0.5342760000000 1.0
C      1  0.5714830000000  0.6099430000000  0.5182140000000 1.0
C      1  0.4757260000000  0.6167030000000  0.5169070000000 1.0
C      1  0.4436570000000  0.3708160000000  0.4307860000000 1.0
C      1  0.2961000000000  0.5711900000000  0.4991700000000 1.0
C      1  0.3856440000000  0.4980580000000  0.5242590000000 1.0
C      1  0.4674010000000  0.4920510000000  0.4398680000000 1.0
C      1  0.4748840000000  0.5202520000000  0.4454360000000 1.0
C      1  0.5045950000000  0.4427340000000  0.3744290000000 1.0
C      1  0.5777550000000  0.4274630000000  0.5450090000000 1.0
C      1  0.4741330000000  0.4163510000000  0.5408660000000 1.0
C      1  0.5996800000000  0.4393170000000  0.4807640000000 1.0
C      1  0.5446120000000  0.4921980000000  0.4936800000000 1.0
C      1  0.3961990000000  0.4523590000000  0.5217070000000 1.0
C      1  0.5575950000000  0.5159740000000  0.4827540000000 1.0
C      1  0.5027020000000  0.4468080000000  0.5183240000000 1.0
C      1  0.5684280000000  0.5167110000000  0.3948190000000 1.0
C      1  0.4397180000000  0.4899040000000  0.4945460000000 1.0
C      1  0.5462070000000  0.5360900000000  0.5016140000000 1.0
C      1  0.4872200000000  0.5098470000000  0.5128810000000 1.0
C      1  0.4869090000000  0.5874240000000  0.5679170000000 1.0
C      1  0.5828660000000  0.3992220000000  0.5416720000000 1.0
C      1  0.4512150000000  0.5525360000000  0.5151650000000 1.0
C      1  0.4868320000000  0.4359170000000  0.4596160000000 1.0
C      1  0.3566830000000  0.5321480000000  0.5036770000000 1.0
C      1  0.5928000000000  0.4523950000000  0.5461250000000 1.0
C      1  0.3305830000000  0.5170190000000  0.4660640000000 1.0
C      1  0.4103570000000  0.4951520000000  0.5733770000000 1.0
C      1  0.4919730000000  0.4547230000000  0.5895620000000 1.0
C      1  0.5381160000000  0.5895620000000  0.5824190000000 1.0
C      1  0.5053670000000  0.5265850000000  0.6336530000000 1.0
C      1  0.4863080000000  0.5770590000000  0.4523140000000 1.0
C      1  0.6043600000000  0.5482000000000  0.5297610000000 1.0
C      1  0.5547700000000  0.5765770000000  0.4540700000000 1.0
C      1  0.5178770000000  0.4973030000000  0.4509040000000 1.0
C      1  0.5511950000000  0.6151700000000  0.5379770000000 1.0
C      1  0.4920850000000  0.4942720000000  0.4891380000000 1.0
C      1  0.5749810000000  0.4344210000000  0.4714470000000 1.0
C      1  0.4640170000000  0.5301690000000  0.3928210000000 1.0
C      1  0.5033610000000  0.5219630000000  0.4397870000000 1.0
C      1  0.4330290000000  0.4954340000000  0.5907780000000 1.0
C      1  0.4122210000000  0.4935970000000  0.4585150000000 1.0
C      1  0.4682990000000  0.4536940000000  0.4729060000000 1.0
C      1  0.5190610000000  0.5769340000000  0.4960130000000 1.0
C      1  0.5526310000000  0.4491620000000  0.3962330000000 1.0
C      1  0.4785900000000  0.4551690000000  0.3812170000000 1.0
C      1  0.4466660000000  0.4551840000000  0.4922550000000 1.0
C      1  0.5289930000000  0.4922470000000  0.5804560000000 1.0
C      1  0.5086530000000  0.5701340000000  0.4336900000000 1.0
C      1  0.5796440000000  0.4717860000000  0.5624170000000 1.0
C      1  0.3346090000000  0.4801520000000  0.4288650000000 1.0
C      1  0.5028560000000  0.6185860000000  0.5091270000000 1.0
C      1  0.5431610000000  0.5430300000000  0.6080050000000 1.0
C      1  0.5479430000000  0.5703780000000  0.6010280000000 1.0
C      1  0.4566390000000  0.5335840000000  0.4619530000000 1.0
C      1  0.6023000000000  0.5336590000000  0.4560710000000 1.0
C      1  0.5643030000000  0.4536160000000  0.6070920000000 1.0
C      1  0.5701930000000  0.5639010000000  0.4023670000000 1.0
C      1  0.5033210000000  0.5259490000000  0.5581920000000 1.0
C      1  0.4282060000000  0.4411600000000  0.5594360000000 1.0
C      1  0.5674460000000  0.5293830000000  0.5655970000000 1.0
C      1  0.4738360000000  0.4525020000000  0.4099880000000 1.0
C      1  0.4340600000000  0.5076910000000  0.4719190000000 1.0
C      1  0.5424170000000  0.5518260000000  0.4612830000000 1.0
C      1  0.5771120000000  0.5003920000000  0.6055010000000 1.0
C      1  0.5111460000000  0.4719780000000  0.4383230000000 1.0
C      1  0.5991990000000  0.4525580000000  0.4122790000000 1.0
C      1  0.5796540000000  0.4386250000000  0.3958480000000 1.0
C      1  0.4303130000000  0.6098590000000  0.5158180000000 1.0
C      1  0.5595760000000  0.4505220000000  0.4567400000000 1.0
C      1  0.4198790000000  0.4406260000000  0.5316360000000 1.0
C      1  0.5186380000000  0.4626980000000  0.6313320000000 1.0
C      1  0.5255100000000  0.4380840000000  0.3951290000000 1.0
C      1  0.5175770000000  0.4264210000000  0.4206260000000 1.0
C      1  0.5773880000000  0.4746290000000  0.5919980000000 1.0
C      1  0.6127890000000  0.5086790000000  0.4664300000000 1.0
C      1  0.4773800000000  0.4732740000000  0.6078490000000 1.0
C      1  0.4045890000000  0.5390880000000  0.5125660000000 1.0
C      1  0.4947690000000  0.5036630000000  0.6427470000000 1.0
C      1  0.5488390000000  0.4961700000000  0.5230080000000 1.0
C      1  0.5970720000000  0.5534280000000  0.4781580000000 1.0
C      1  0.6036550000000  0.5372670000000  0.5033860000000 1.0
C      1  0.4698930000000  0.5268570000000  0.5932810000000 1.0
C      1  0.4421370000000  0.5701160000000  0.5716740000000 1.0
C      1  0.3941200000000  0.4960520000000  0.5517700000000 1.0
C      1  0.4780630000000  0.4426390000000  0.5315260000000 1.0
C      1  0.4491810000000  0.4725740000000  0.5965880000000 1.0
C      1  0.5534520000000  0.4737420000000  0.4108900000000 1.0
C      1  0.6118960000000  0.4645360000000  0.4812650000000 1.0
C      1  0.6110740000000  0.5091110000000  0.4968860000000 1.0
C      1  0.5486980000000  0.4306820000000  0.5455540000000 1.0
C      1  0.4433850000000  0.3905780000000  0.4497470000000 1.0
C      1  0.4970310000000  0.4925300000000  0.3963150000000 1.0
C      1  0.4874720000000  0.4779030000000  0.4220170000000 1.0
C      1  0.4537180000000  0.5028740000000  0.3926020000000 1.0
C      1  0.4650600000000  0.6252820000000  0.5430390000000 1.0
C      1  0.4975360000000  0.5601010000000  0.3755370000000 1.0
C      1  0.5577890000000  0.4697830000000  0.4382860000000 1.0
C      1  0.5317520000000  0.4510000000000  0.5565920000000 1.0
C      1  0.4796440000000  0.3961630000000  0.5600940000000 1.0
C      1  0.4917130000000  0.6030850000000  0.4629630000000 1.0
C      1  0.5192720000000  0.4930340000000  0.4798540000000 1.0
C      1  0.5354070000000  0.4140130000000  0.5259850000000 1.0
C      1  0.5085160000000  0.4437600000000  0.4420710000000 1.0
C      1  0.5762890000000  0.5377920000000  0.4114440000000 1.0
C      1  0.4435070000000  0.5201940000000  0.6003650000000 1.0
C      1  0.3317850000000  0.4988040000000  0.4468570000000 1.0
C      1  0.5257480000000  0.5383270000000  0.5458400000000 1.0
C      1  0.5018750000000  0.6437800000000  0.4394990000000 1.0
C      1  0.3811570000000  0.5239000000000  0.5137340000000 1.0
C      1  0.4841740000000  0.5261460000000  0.5368000000000 1.0
C      1  0.4448030000000  0.4055390000000  0.5080650000000 1.0
C      1  0.5797390000000  0.5312910000000  0.4389020000000 1.0
C      1  0.3906540000000  0.4760300000000  0.5064560000000 1.0
C      1  0.5787640000000  0.5778870000000  0.4735680000000 1.0
C      1  0.4667810000000  0.5683570000000  0.5593850000000 1.0
C      1  0.5365510000000  0.5835350000000  0.4316590000000 1.0
C      1  0.5358300000000  0.4556210000000  0.6093970000000 1.0
C      1  0.5042070000000  0.4048670000000  0.4908310000000 1.0
C      1  0.5075800000000  0.6016400000000  0.4858050000000 1.0
C      1  0.4630260000000  0.3859510000000  0.4972890000000 1.0
C      1  0.4762370000000  0.4067520000000  0.5856190000000 1.0
C      1  0.4878080000000  0.4095340000000  0.4679790000000 1.0
C      1  0.5864470000000  0.4167740000000  0.3809100000000 1.0
C      1  0.5573990000000  0.5279670000000  0.4565180000000 1.0
C      1  0.5485640000000  0.4974220000000  0.3968300000000 1.0
C      1  0.6117340000000  0.4804860000000  0.5059970000000 1.0
C      1  0.5305010000000  0.5539870000000  0.4865280000000 1.0
C      1  0.4563660000000  0.5720000000000  0.4944250000000 1.0
C      1  0.4745570000000  0.4811040000000  0.4685700000000 1.0
C      1  0.5155500000000  0.5342770000000  0.6083310000000 1.0
C      1  0.4785130000000  0.6145110000000  0.5653100000000 1.0
C      1  0.5216130000000  0.4617140000000  0.5831190000000 1.0
C      1  0.4972530000000  0.5290790000000  0.5861220000000 1.0
C      1  0.5247410000000  0.6111290000000  0.5271490000000 1.0
C      1  0.4885000000000  0.5448010000000  0.3965760000000 1.0
C      1  0.4046170000000  0.4306640000000  0.4464160000000 1.0
C      1  0.4565500000000  0.6329010000000  0.4491060000000 1.0
C      1  0.4436450000000  0.4945220000000  0.4196930000000 1.0
C      1  0.6097900000000  0.4687200000000  0.4315380000000 1.0
C      1  0.4289030000000  0.5358480000000  0.6173590000000 1.0
END
