TITL C-612607-4507-303 46.4420451340766 125000 -164.480475302643 0 0 29 (C1) n - 1
REM
REM in /home/nfs/bkarasulu/CARBON/AIRSS/Generating-Clusters/TERSOFF/Only-C1/FIRE-HFTN
REM
REM
REM
REM
REM
REM ./C.cell (11c1c37f851c82e70ff6c80c92926a4b)
REM AIRSS Version 0.9.1 bugfix July 2018 build 013d7b7c2542+ Fri, 06 Jul 2018 19:26:36 +0100
REM compiler GCC version 9.2.1 20190827 (Red Hat 9.2.1-1)
REM options -cpp -mtune=generic -march=x86-64 -g -O0 -fpre-include=/usr/include/finclude/math-vector-fortran.h
REM seed 1697743397 1535268023 567428577 1043963441 -960943564 1791647336 -333844946 -162290446 -1671329897 -1907492145 2097989270 362540777 2046998691 1566341838 1975535569 1029576451 -1725251157 1374926652 1229200932 -373104776 577138628 1733578998 -1184119906 -225606243 -645824544 -732816567 311976858 -1053328107 1449882992 1244941637 -121375933 2041982471 -1728179740
REM
CELL 1.54180   50.00000   50.00000   50.00000   90.00000   90.00000   90.00000
LATT -1
SFAC C  
C      1  0.4822080000000  0.3657560000000  0.5081830000000 1.0
C      1  0.4552310000000  0.3618660000000  0.5144460000000 1.0
C      1  0.5233050000000  0.5872020000000  0.4709550000000 1.0
C      1  0.4848440000000  0.3605950000000  0.5830250000000 1.0
C      1  0.4663850000000  0.4330240000000  0.5572910000000 1.0
C      1  0.5823860000000  0.6728620000000  0.4507690000000 1.0
C      1  0.4579870000000  0.4824440000000  0.5401730000000 1.0
C      1  0.5022780000000  0.4400920000000  0.4835410000000 1.0
C      1  0.4601980000000  0.5283960000000  0.5144380000000 1.0
C      1  0.5971600000000  0.6942820000000  0.4457220000000 1.0
C      1  0.4613170000000  0.4576370000000  0.5488820000000 1.0
C      1  0.5047950000000  0.4918600000000  0.4733140000000 1.0
C      1  0.4573270000000  0.5065220000000  0.5291160000000 1.0
C      1  0.6116900000000  0.7153510000000  0.4407580000000 1.0
C      1  0.4303430000000  0.3591980000000  0.5217050000000 1.0
C      1  0.4787660000000  0.3847590000000  0.5753600000000 1.0
C      1  0.4674290000000  0.5469650000000  0.4947930000000 1.0
C      1  0.5050380000000  0.4656050000000  0.4769250000000 1.0
C      1  0.4906890000000  0.3909070000000  0.4993930000000 1.0
C      1  0.4972830000000  0.4152900000000  0.4914220000000 1.0
C      1  0.5001000000000  0.3452260000000  0.5107160000000 1.0
C      1  0.5084600000000  0.5658570000000  0.4760140000000 1.0
C      1  0.4506620000000  0.5675620000000  0.4882430000000 1.0
C      1  0.5528460000000  0.6300310000000  0.4608620000000 1.0
C      1  0.4724000000000  0.4089040000000  0.5664700000000 1.0
C      1  0.4923690000000  0.5437070000000  0.4814620000000 1.0
C      1  0.5676160000000  0.6514460000000  0.4558160000000 1.0
C      1  0.5380760000000  0.6086160000000  0.4659080000000 1.0
C      1  0.5008090000000  0.5180390000000  0.4743010000000 1.0
END
