TITL C-612603-7354-1297 1.60915833581293 125000 -363.825197313174 0 0 61 (C1) n - 1
REM
REM in /home/nfs/bkarasulu/CARBON/AIRSS/Generating-Clusters/TERSOFF/Only-C1/FIRE-HFTN
REM
REM
REM
REM
REM
REM ./C.cell (11c1c37f851c82e70ff6c80c92926a4b)
REM AIRSS Version 0.9.1 bugfix July 2018 build 013d7b7c2542+ Fri, 06 Jul 2018 19:26:36 +0100
REM compiler GCC version 9.2.1 20190827 (Red Hat 9.2.1-1)
REM options -cpp -mtune=generic -march=x86-64 -g -O0 -fpre-include=/usr/include/finclude/math-vector-fortran.h
REM seed -1442678775 -714072767 184393839 -2082098096 1476858951 -687466862 1964570744 -1297517479 -391830123 -2039210438 -40497334 -266001891 -870092564 -1766467835 2050648436 -1849435695 -1730428272 417751616 -1790092496 -115279541 1974554993 -1199866081 -301589827 -569911092 1386329338 -2048347189 1736552320 -1540464592 -1923252483 -1690201041 1067630236 -2054499834 1079903987
REM
CELL 1.54180   50.00000   50.00000   50.00000   90.00000   90.00000   90.00000
LATT -1
SFAC C  
C      1  0.5648960000000  0.5666070000000  0.4627640000000 1.0
C      1  0.5179130000000  0.5391750000000  0.5045260000000 1.0
C      1  0.4720680000000  0.4550100000000  0.3919350000000 1.0
C      1  0.5851700000000  0.5191660000000  0.4577110000000 1.0
C      1  0.5826450000000  0.4999750000000  0.4780170000000 1.0
C      1  0.5108650000000  0.5172340000000  0.4590510000000 1.0
C      1  0.5653150000000  0.4578590000000  0.5014230000000 1.0
C      1  0.5328850000000  0.5917570000000  0.4964200000000 1.0
C      1  0.4911870000000  0.4964420000000  0.5111900000000 1.0
C      1  0.4394840000000  0.4852840000000  0.5559990000000 1.0
C      1  0.5139080000000  0.5399600000000  0.5328660000000 1.0
C      1  0.5246870000000  0.5214850000000  0.4832250000000 1.0
C      1  0.4329630000000  0.6550660000000  0.5864020000000 1.0
C      1  0.4819190000000  0.5379220000000  0.5869910000000 1.0
C      1  0.5520350000000  0.4745450000000  0.5476420000000 1.0
C      1  0.4487450000000  0.6385010000000  0.5739050000000 1.0
C      1  0.4313650000000  0.4726250000000  0.4840660000000 1.0
C      1  0.4648380000000  0.4979510000000  0.5074250000000 1.0
C      1  0.5473910000000  0.4596480000000  0.4282540000000 1.0
C      1  0.4501080000000  0.4789970000000  0.5813540000000 1.0
C      1  0.5822910000000  0.5105490000000  0.5051360000000 1.0
C      1  0.4782080000000  0.5155110000000  0.6013430000000 1.0
C      1  0.4457570000000  0.4393940000000  0.5357300000000 1.0
C      1  0.4966360000000  0.5853650000000  0.5362210000000 1.0
C      1  0.5468150000000  0.5020590000000  0.5422580000000 1.0
C      1  0.5129200000000  0.4806170000000  0.5020990000000 1.0
C      1  0.4647870000000  0.6216520000000  0.5612040000000 1.0
C      1  0.4657300000000  0.4918550000000  0.5990500000000 1.0
C      1  0.4911430000000  0.4397450000000  0.5149960000000 1.0
C      1  0.4321610000000  0.4236550000000  0.5535370000000 1.0
C      1  0.4575000000000  0.4613310000000  0.4133080000000 1.0
C      1  0.4594520000000  0.4084900000000  0.4989700000000 1.0
C      1  0.4591050000000  0.4676390000000  0.4404530000000 1.0
C      1  0.5369370000000  0.4413550000000  0.3576810000000 1.0
C      1  0.4399890000000  0.4673410000000  0.5336830000000 1.0
C      1  0.5563500000000  0.5077450000000  0.5163050000000 1.0
C      1  0.4375420000000  0.4689120000000  0.4583070000000 1.0
C      1  0.5598590000000  0.4786560000000  0.4791720000000 1.0
C      1  0.4958300000000  0.4505190000000  0.3809190000000 1.0
C      1  0.4956500000000  0.4498280000000  0.4675120000000 1.0
C      1  0.5237660000000  0.4483720000000  0.3805810000000 1.0
C      1  0.5042980000000  0.4546840000000  0.4946260000000 1.0
C      1  0.5530370000000  0.4671840000000  0.4530590000000 1.0
C      1  0.4979090000000  0.4962520000000  0.4484890000000 1.0
C      1  0.4431060000000  0.4800960000000  0.5083110000000 1.0
C      1  0.4750170000000  0.5468060000000  0.5610220000000 1.0
C      1  0.4368370000000  0.5131620000000  0.5508720000000 1.0
C      1  0.4853920000000  0.4712650000000  0.4513930000000 1.0
C      1  0.5376710000000  0.4961680000000  0.4940190000000 1.0
C      1  0.5774680000000  0.5446350000000  0.4542250000000 1.0
C      1  0.5379490000000  0.4535670000000  0.4042070000000 1.0
C      1  0.5498450000000  0.5825390000000  0.4779900000000 1.0
C      1  0.4872810000000  0.4233710000000  0.4615710000000 1.0
C      1  0.4947880000000  0.5579380000000  0.5438050000000 1.0
C      1  0.5148320000000  0.5929650000000  0.5160400000000 1.0
C      1  0.5275020000000  0.5211470000000  0.5496980000000 1.0
C      1  0.4703660000000  0.4065960000000  0.4742910000000 1.0
C      1  0.4806840000000  0.6045840000000  0.5486540000000 1.0
C      1  0.4655980000000  0.4279480000000  0.5186560000000 1.0
C      1  0.4507670000000  0.5361520000000  0.5510910000000 1.0
C      1  0.5608380000000  0.4571410000000  0.5283530000000 1.0
END
