TITL C-612607-4507-476 0.165444831761294 125000 -510.066469320334 0 0 85 (C1) n - 1
REM
REM in /home/nfs/bkarasulu/CARBON/AIRSS/Generating-Clusters/TERSOFF/Only-C1/FIRE-HFTN
REM
REM
REM
REM
REM
REM ./C.cell (11c1c37f851c82e70ff6c80c92926a4b)
REM AIRSS Version 0.9.1 bugfix July 2018 build 013d7b7c2542+ Fri, 06 Jul 2018 19:26:36 +0100
REM compiler GCC version 9.2.1 20190827 (Red Hat 9.2.1-1)
REM options -cpp -mtune=generic -march=x86-64 -g -O0 -fpre-include=/usr/include/finclude/math-vector-fortran.h
REM seed -900120898 1194554306 -1065483077 -1145669367 -1652813761 -1822495775 335877515 2060108556 -144827821 -1654524337 1006798271 -1312601383 989955530 -1198317656 184011185 345424836 1061527407 -1637875763 1268737366 465621747 -684018991 -113608214 -2091903535 1677373370 -1778268830 1485406497 -1619383427 855339966 -301959797 2003833640 1969457798 788877314 1623674593
REM
CELL 1.54180   50.00000   50.00000   50.00000   90.00000   90.00000   90.00000
LATT -1
SFAC C  
C      1  0.5039970000000  0.5603370000000  0.5242180000000 1.0
C      1  0.4251120000000  0.5081190000000  0.5065580000000 1.0
C      1  0.5426090000000  0.4359680000000  0.5013410000000 1.0
C      1  0.4856980000000  0.4550310000000  0.3795160000000 1.0
C      1  0.5115560000000  0.4321800000000  0.5443610000000 1.0
C      1  0.5093210000000  0.6026860000000  0.4831180000000 1.0
C      1  0.5239560000000  0.6112970000000  0.5046620000000 1.0
C      1  0.3335830000000  0.4197290000000  0.4429190000000 1.0
C      1  0.5917160000000  0.5328470000000  0.4875550000000 1.0
C      1  0.5137540000000  0.5631620000000  0.5994710000000 1.0
C      1  0.5690320000000  0.5023660000000  0.5218560000000 1.0
C      1  0.5110750000000  0.4336340000000  0.4649700000000 1.0
C      1  0.5060900000000  0.4841070000000  0.5352820000000 1.0
C      1  0.5271680000000  0.5043610000000  0.4246860000000 1.0
C      1  0.4742620000000  0.4403190000000  0.3026680000000 1.0
C      1  0.4316020000000  0.5146620000000  0.4595010000000 1.0
C      1  0.4663580000000  0.5622960000000  0.6075160000000 1.0
C      1  0.5251080000000  0.5236830000000  0.5015110000000 1.0
C      1  0.4917200000000  0.5687120000000  0.6139590000000 1.0
C      1  0.4560950000000  0.5534340000000  0.5828370000000 1.0
C      1  0.5273810000000  0.5009610000000  0.5440780000000 1.0
C      1  0.5615660000000  0.4804480000000  0.5723260000000 1.0
C      1  0.4817040000000  0.5293800000000  0.4617130000000 1.0
C      1  0.5056530000000  0.4922190000000  0.4388590000000 1.0
C      1  0.5026700000000  0.5342580000000  0.5146630000000 1.0
C      1  0.4970170000000  0.5041790000000  0.4635270000000 1.0
C      1  0.4613070000000  0.5859240000000  0.5238810000000 1.0
C      1  0.4573680000000  0.4561500000000  0.5068860000000 1.0
C      1  0.4440520000000  0.5840450000000  0.5440770000000 1.0
C      1  0.5093010000000  0.4701440000000  0.5822790000000 1.0
C      1  0.5833470000000  0.5518810000000  0.5053400000000 1.0
C      1  0.4912000000000  0.5804650000000  0.4838600000000 1.0
C      1  0.5356250000000  0.4347470000000  0.4493070000000 1.0
C      1  0.5452400000000  0.5615840000000  0.4830120000000 1.0
C      1  0.5017910000000  0.4965890000000  0.5851780000000 1.0
C      1  0.5526260000000  0.5045060000000  0.4365750000000 1.0
C      1  0.4845150000000  0.5767110000000  0.5117840000000 1.0
C      1  0.4684600000000  0.4567220000000  0.5607350000000 1.0
C      1  0.5336990000000  0.5375060000000  0.4785450000000 1.0
C      1  0.5643980000000  0.4297350000000  0.4844950000000 1.0
C      1  0.5619400000000  0.4413310000000  0.4585500000000 1.0
C      1  0.4549560000000  0.5258750000000  0.4532250000000 1.0
C      1  0.5322950000000  0.6001410000000  0.5282950000000 1.0
C      1  0.5574690000000  0.5637740000000  0.5089870000000 1.0
C      1  0.5152450000000  0.4282430000000  0.4940440000000 1.0
C      1  0.4780230000000  0.4451540000000  0.3280080000000 1.0
C      1  0.5661760000000  0.4734350000000  0.5249120000000 1.0
C      1  0.4461120000000  0.4556140000000  0.4811430000000 1.0
C      1  0.4818480000000  0.4500720000000  0.3537720000000 1.0
C      1  0.3551120000000  0.4319760000000  0.4510530000000 1.0
C      1  0.4898100000000  0.4603180000000  0.4051390000000 1.0
C      1  0.3988780000000  0.4568800000000  0.4675570000000 1.0
C      1  0.4960810000000  0.5239300000000  0.5763230000000 1.0
C      1  0.4602220000000  0.4803690000000  0.5223480000000 1.0
C      1  0.5352430000000  0.5693290000000  0.5326340000000 1.0
C      1  0.5414110000000  0.5105230000000  0.5196000000000 1.0
C      1  0.5035470000000  0.4878510000000  0.4862980000000 1.0
C      1  0.4611790000000  0.4333200000000  0.5479990000000 1.0
C      1  0.5713090000000  0.4651170000000  0.5518070000000 1.0
C      1  0.5142630000000  0.4474710000000  0.5672070000000 1.0
C      1  0.5795920000000  0.5212400000000  0.5415160000000 1.0
C      1  0.5393000000000  0.5508770000000  0.5585650000000 1.0
C      1  0.5593710000000  0.5296940000000  0.5607940000000 1.0
C      1  0.5427250000000  0.4624740000000  0.5113310000000 1.0
C      1  0.3770010000000  0.4444280000000  0.4593220000000 1.0
C      1  0.4886830000000  0.5568800000000  0.4676000000000 1.0
C      1  0.4980790000000  0.4277850000000  0.5179350000000 1.0
C      1  0.4408020000000  0.5710970000000  0.5672200000000 1.0
C      1  0.4538790000000  0.5206350000000  0.5470070000000 1.0
C      1  0.5728140000000  0.4944810000000  0.4534990000000 1.0
C      1  0.4891910000000  0.4471000000000  0.4523240000000 1.0
C      1  0.4798460000000  0.4769450000000  0.5431610000000 1.0
C      1  0.5745880000000  0.4661640000000  0.4540620000000 1.0
C      1  0.5230080000000  0.5160850000000  0.4003430000000 1.0
C      1  0.4950240000000  0.4665830000000  0.4318490000000 1.0
C      1  0.4685610000000  0.5313000000000  0.5690150000000 1.0
C      1  0.4694770000000  0.4330570000000  0.5201680000000 1.0
C      1  0.5871450000000  0.5125160000000  0.4702570000000 1.0
C      1  0.5162340000000  0.4757200000000  0.5089590000000 1.0
C      1  0.4219860000000  0.4698830000000  0.4760230000000 1.0
C      1  0.4224650000000  0.4981520000000  0.4802080000000 1.0
C      1  0.5164440000000  0.5459770000000  0.5769870000000 1.0
C      1  0.4453410000000  0.5042130000000  0.5255220000000 1.0
C      1  0.4627090000000  0.4453220000000  0.4611350000000 1.0
C      1  0.5458850000000  0.5035870000000  0.5666690000000 1.0
END
