TITL C-612604-1799-1053 0.0667865366780065 125000 -458.832772807313 0 0 76 (C1) n - 1
REM
REM in /home/nfs/bkarasulu/CARBON/AIRSS/Generating-Clusters/TERSOFF/Only-C1/FIRE-HFTN
REM
REM
REM
REM
REM
REM ./C.cell (11c1c37f851c82e70ff6c80c92926a4b)
REM AIRSS Version 0.9.1 bugfix July 2018 build 013d7b7c2542+ Fri, 06 Jul 2018 19:26:36 +0100
REM compiler GCC version 9.2.1 20190827 (Red Hat 9.2.1-1)
REM options -cpp -mtune=generic -march=x86-64 -g -O0 -fpre-include=/usr/include/finclude/math-vector-fortran.h
REM seed -1990650722 1620108921 -1825309536 1875245602 506459297 236337805 1540703181 1541977166 310322424 -423542849 -1496904729 -1306135079 -579846034 158127697 -44253999 683746467 501743215 -1879404608 -1863253272 -2072227051 785809607 -1956332068 -118882453 -1357793922 661357774 -1843613895 296109265 -818730331 1861770940 865560474 69329283 -1678821664 487210244
REM
CELL 1.54180   50.00000   50.00000   50.00000   90.00000   90.00000   90.00000
LATT -1
SFAC C  
C      1  0.4922560000000  0.4277160000000  0.5754220000000 1.0
C      1  0.5310640000000  0.4879980000000  0.4303280000000 1.0
C      1  0.5052390000000  0.5461320000000  0.5078570000000 1.0
C      1  0.4906240000000  0.5027650000000  0.4512090000000 1.0
C      1  0.4554240000000  0.4555980000000  0.4759700000000 1.0
C      1  0.4643430000000  0.4353970000000  0.5342580000000 1.0
C      1  0.5165930000000  0.4279190000000  0.5128780000000 1.0
C      1  0.4870960000000  0.5492760000000  0.4279430000000 1.0
C      1  0.5180790000000  0.4523140000000  0.5285610000000 1.0
C      1  0.5198880000000  0.5808760000000  0.4602840000000 1.0
C      1  0.5195480000000  0.5292560000000  0.5605620000000 1.0
C      1  0.4726720000000  0.5648060000000  0.4467710000000 1.0
C      1  0.5036470000000  0.4828650000000  0.4350210000000 1.0
C      1  0.5132280000000  0.4807260000000  0.4875280000000 1.0
C      1  0.5917380000000  0.4848780000000  0.4955310000000 1.0
C      1  0.4421360000000  0.5726520000000  0.5130260000000 1.0
C      1  0.4684700000000  0.4514380000000  0.4526670000000 1.0
C      1  0.4228140000000  0.5112380000000  0.4101450000000 1.0
C      1  0.4576860000000  0.4849520000000  0.5718120000000 1.0
C      1  0.5111200000000  0.4763120000000  0.5153200000000 1.0
C      1  0.4785480000000  0.5968720000000  0.4820600000000 1.0
C      1  0.5596630000000  0.4319610000000  0.4960740000000 1.0
C      1  0.4692440000000  0.4219890000000  0.6239410000000 1.0
C      1  0.3798200000000  0.5139280000000  0.3800060000000 1.0
C      1  0.5007700000000  0.5955720000000  0.5007660000000 1.0
C      1  0.5808500000000  0.4713130000000  0.5185790000000 1.0
C      1  0.5739910000000  0.5157080000000  0.5313230000000 1.0
C      1  0.4504670000000  0.5608960000000  0.4659250000000 1.0
C      1  0.5481170000000  0.5384280000000  0.4665030000000 1.0
C      1  0.5778090000000  0.4439990000000  0.5139690000000 1.0
C      1  0.5011920000000  0.5047400000000  0.4775700000000 1.0
C      1  0.5056920000000  0.4336600000000  0.4869730000000 1.0
C      1  0.5366460000000  0.5420070000000  0.5423960000000 1.0
C      1  0.5636250000000  0.4644590000000  0.4557230000000 1.0
C      1  0.4302850000000  0.5423740000000  0.4776960000000 1.0
C      1  0.4712910000000  0.5541010000000  0.5547680000000 1.0
C      1  0.4795230000000  0.4882330000000  0.5868200000000 1.0
C      1  0.5548640000000  0.4898640000000  0.4458560000000 1.0
C      1  0.4880610000000  0.4589730000000  0.4352790000000 1.0
C      1  0.4470820000000  0.4988030000000  0.4971100000000 1.0
C      1  0.4675630000000  0.5144990000000  0.5089750000000 1.0
C      1  0.4916460000000  0.5235090000000  0.4973790000000 1.0
C      1  0.5523800000000  0.5422190000000  0.4955390000000 1.0
C      1  0.4523010000000  0.4597880000000  0.5265990000000 1.0
C      1  0.5493010000000  0.4483920000000  0.4739270000000 1.0
C      1  0.5633710000000  0.5129410000000  0.4608760000000 1.0
C      1  0.5060030000000  0.4923110000000  0.5869350000000 1.0
C      1  0.5257280000000  0.5025280000000  0.5691840000000 1.0
C      1  0.5816570000000  0.5084070000000  0.4839190000000 1.0
C      1  0.5299070000000  0.4564960000000  0.5538030000000 1.0
C      1  0.4496670000000  0.4702050000000  0.4997030000000 1.0
C      1  0.4440800000000  0.5102180000000  0.4259120000000 1.0
C      1  0.4216300000000  0.5552360000000  0.5024480000000 1.0
C      1  0.5413110000000  0.4141040000000  0.5092330000000 1.0
C      1  0.4806930000000  0.4241430000000  0.6006300000000 1.0
C      1  0.5324020000000  0.5440620000000  0.5147130000000 1.0
C      1  0.5175310000000  0.4405920000000  0.5734740000000 1.0
C      1  0.5432340000000  0.4826360000000  0.5557760000000 1.0
C      1  0.5666800000000  0.4885080000000  0.5380850000000 1.0
C      1  0.4934450000000  0.5410230000000  0.5631930000000 1.0
C      1  0.4471690000000  0.4768190000000  0.5486280000000 1.0
C      1  0.5745660000000  0.5269770000000  0.5049590000000 1.0
C      1  0.4902170000000  0.5857730000000  0.4570220000000 1.0
C      1  0.5250920000000  0.5951080000000  0.4849610000000 1.0
C      1  0.4542000000000  0.5667660000000  0.5379880000000 1.0
C      1  0.5140480000000  0.5449030000000  0.4300790000000 1.0
C      1  0.5303620000000  0.5553260000000  0.4511970000000 1.0
C      1  0.4551230000000  0.5816270000000  0.4882410000000 1.0
C      1  0.4307230000000  0.5140910000000  0.4796820000000 1.0
C      1  0.4780880000000  0.4182290000000  0.5521590000000 1.0
C      1  0.4970690000000  0.5720800000000  0.5158420000000 1.0
C      1  0.4777530000000  0.3911890000000  0.5473010000000 1.0
C      1  0.4011620000000  0.5125780000000  0.3949170000000 1.0
C      1  0.5465540000000  0.3885640000000  0.5167490000000 1.0
C      1  0.5209140000000  0.4552430000000  0.4755540000000 1.0
C      1  0.4652250000000  0.5099170000000  0.4419900000000 1.0
END
