TITL C-612606-7351-935 6.95491350003049e-05 125000 -546.645473844351 0 0 90 (C1) n - 1
REM
REM in /home/nfs/bkarasulu/CARBON/AIRSS/Generating-Clusters/TERSOFF/Only-C1/FIRE-HFTN
REM
REM
REM
REM
REM
REM ./C.cell (11c1c37f851c82e70ff6c80c92926a4b)
REM AIRSS Version 0.9.1 bugfix July 2018 build 013d7b7c2542+ Fri, 06 Jul 2018 19:26:36 +0100
REM compiler GCC version 9.2.1 20190827 (Red Hat 9.2.1-1)
REM options -cpp -mtune=generic -march=x86-64 -g -O0 -fpre-include=/usr/include/finclude/math-vector-fortran.h
REM seed 1790617183 1374450304 -1974699804 1908588733 -245659972 -617841875 -1705462019 -1834360794 -1865048365 -1890193611 -678679273 2078800009 1183306654 -1336469185 -1291473173 -1746692583 -342053596 -1817298825 -1356814435 -448273960 -189347343 638302628 -1779544223 48312517 -2116421088 -1146409897 340228 1365406916 2011817676 -801236012 -1548692010 -1664074619 -1234622703
REM
CELL 1.54180   50.00000   50.00000   50.00000   90.00000   90.00000   90.00000
LATT -1
SFAC C  
C      1  0.5015390000000  0.5087310000000  0.5694870000000 1.0
C      1  0.5500740000000  0.5583790000000  0.5671890000000 1.0
C      1  0.5457340000000  0.5588810000000  0.4691350000000 1.0
C      1  0.5061670000000  0.4596570000000  0.5732760000000 1.0
C      1  0.4733400000000  0.5624330000000  0.5250670000000 1.0
C      1  0.5841770000000  0.4893360000000  0.4908570000000 1.0
C      1  0.4253090000000  0.5214140000000  0.5279500000000 1.0
C      1  0.5939290000000  0.4472470000000  0.5169770000000 1.0
C      1  0.5576620000000  0.4732230000000  0.4342720000000 1.0
C      1  0.5512780000000  0.5677220000000  0.4974060000000 1.0
C      1  0.4159090000000  0.5412270000000  0.5086080000000 1.0
C      1  0.5721230000000  0.4297070000000  0.5206190000000 1.0
C      1  0.6045630000000  0.4898260000000  0.4135280000000 1.0
C      1  0.5155230000000  0.4916860000000  0.5064230000000 1.0
C      1  0.5181750000000  0.5398160000000  0.5099900000000 1.0
C      1  0.5121100000000  0.5157040000000  0.5210400000000 1.0
C      1  0.4765560000000  0.5714120000000  0.4432660000000 1.0
C      1  0.4552890000000  0.4585300000000  0.4348680000000 1.0
C      1  0.4346340000000  0.5569780000000  0.4644710000000 1.0
C      1  0.5213510000000  0.4693490000000  0.5229060000000 1.0
C      1  0.4580910000000  0.5293370000000  0.4298770000000 1.0
C      1  0.4941680000000  0.5116670000000  0.5420510000000 1.0
C      1  0.4554770000000  0.4833540000000  0.4783560000000 1.0
C      1  0.4740020000000  0.4712690000000  0.5220880000000 1.0
C      1  0.5569100000000  0.4250880000000  0.4972330000000 1.0
C      1  0.5020450000000  0.5713540000000  0.5612160000000 1.0
C      1  0.4962980000000  0.4344510000000  0.4999130000000 1.0
C      1  0.5112720000000  0.5869920000000  0.4858330000000 1.0
C      1  0.4604000000000  0.4350060000000  0.4204660000000 1.0
C      1  0.5534750000000  0.4219830000000  0.5945340000000 1.0
C      1  0.4312600000000  0.4939570000000  0.4885330000000 1.0
C      1  0.5199490000000  0.5359450000000  0.4347890000000 1.0
C      1  0.5374960000000  0.5084840000000  0.4695630000000 1.0
C      1  0.4269560000000  0.4446350000000  0.5126940000000 1.0
C      1  0.4422330000000  0.5291750000000  0.5507680000000 1.0
C      1  0.5127380000000  0.4661790000000  0.4345690000000 1.0
C      1  0.4645670000000  0.4387060000000  0.5638980000000 1.0
C      1  0.5230240000000  0.5126470000000  0.4171240000000 1.0
C      1  0.5003410000000  0.5752380000000  0.5319090000000 1.0
C      1  0.5501770000000  0.4342710000000  0.5704130000000 1.0
C      1  0.4854080000000  0.4289420000000  0.4122410000000 1.0
C      1  0.5149120000000  0.4429480000000  0.4789470000000 1.0
C      1  0.4520430000000  0.5721840000000  0.4819290000000 1.0
C      1  0.4970490000000  0.4508530000000  0.5255190000000 1.0
C      1  0.5218490000000  0.5697640000000  0.5095730000000 1.0
C      1  0.4239500000000  0.4641460000000  0.5562630000000 1.0
C      1  0.4589130000000  0.5529500000000  0.5490930000000 1.0
C      1  0.4712930000000  0.5066370000000  0.4390510000000 1.0
C      1  0.4524860000000  0.4599300000000  0.4627050000000 1.0
C      1  0.5605790000000  0.4922410000000  0.5445800000000 1.0
C      1  0.4748970000000  0.5648580000000  0.5701750000000 1.0
C      1  0.5341520000000  0.4577230000000  0.5672870000000 1.0
C      1  0.4176230000000  0.5394170000000  0.4794250000000 1.0
C      1  0.5626270000000  0.4247170000000  0.5467110000000 1.0
C      1  0.4910030000000  0.4842600000000  0.5802960000000 1.0
C      1  0.5431740000000  0.4371520000000  0.4758220000000 1.0
C      1  0.5227520000000  0.5557840000000  0.5729490000000 1.0
C      1  0.5085760000000  0.4660260000000  0.4629770000000 1.0
C      1  0.4665570000000  0.5543890000000  0.4990850000000 1.0
C      1  0.5385760000000  0.5335860000000  0.4573540000000 1.0
C      1  0.4480910000000  0.5098110000000  0.5717270000000 1.0
C      1  0.5975040000000  0.4705530000000  0.5043010000000 1.0
C      1  0.5223710000000  0.5754690000000  0.4614300000000 1.0
C      1  0.4525840000000  0.5541990000000  0.4407540000000 1.0
C      1  0.5100500000000  0.4934390000000  0.4766530000000 1.0
C      1  0.4612600000000  0.4848420000000  0.5794410000000 1.0
C      1  0.5617130000000  0.4992610000000  0.4806690000000 1.0
C      1  0.5685200000000  0.5413520000000  0.5577740000000 1.0
C      1  0.4792920000000  0.5040900000000  0.4704010000000 1.0
C      1  0.4746620000000  0.5299120000000  0.4866570000000 1.0
C      1  0.4451560000000  0.4273890000000  0.5027870000000 1.0
C      1  0.5562330000000  0.4516090000000  0.4540440000000 1.0
C      1  0.4649680000000  0.4830720000000  0.4247210000000 1.0
C      1  0.4726670000000  0.4958610000000  0.5326400000000 1.0
C      1  0.5321720000000  0.4858800000000  0.4262230000000 1.0
C      1  0.4912010000000  0.4427320000000  0.5547390000000 1.0
C      1  0.4216040000000  0.4679420000000  0.5283850000000 1.0
C      1  0.5045250000000  0.5619450000000  0.4414840000000 1.0
C      1  0.4168840000000  0.5120720000000  0.4720310000000 1.0
C      1  0.4246950000000  0.4940690000000  0.5166460000000 1.0
C      1  0.5819020000000  0.4811040000000  0.4229830000000 1.0
C      1  0.4888630000000  0.6026900000000  0.4808820000000 1.0
C      1  0.4477310000000  0.4606560000000  0.5710920000000 1.0
C      1  0.5067810000000  0.4441410000000  0.4181770000000 1.0
C      1  0.4708710000000  0.4221410000000  0.4962650000000 1.0
C      1  0.5145030000000  0.5300640000000  0.5820190000000 1.0
C      1  0.5174940000000  0.5158760000000  0.3903030000000 1.0
C      1  0.5713030000000  0.5161070000000  0.5495380000000 1.0
C      1  0.4691170000000  0.5894020000000  0.4662110000000 1.0
C      1  0.5405430000000  0.4728230000000  0.5438770000000 1.0
END
