TITL C-612601-4209-807 0.849504003080428 125000 -961.678343216727 0 0 158 (C1) n - 1
REM
REM in /home/nfs/bkarasulu/CARBON/AIRSS/Generating-Clusters/TERSOFF/Only-C1/FIRE-HFTN
REM
REM
REM
REM
REM
REM ./C.cell (11c1c37f851c82e70ff6c80c92926a4b)
REM AIRSS Version 0.9.1 bugfix July 2018 build 013d7b7c2542+ Fri, 06 Jul 2018 19:26:36 +0100
REM compiler GCC version 9.2.1 20190827 (Red Hat 9.2.1-1)
REM options -cpp -mtune=generic -march=x86-64 -g -O0 -fpre-include=/usr/include/finclude/math-vector-fortran.h
REM seed 1971065275 -610535009 -1329436173 -1579192876 1132399047 1521253198 -303265550 1924542642 1814215755 -1301752779 1014653730 511675613 -1015644165 401198873 1667390904 1124425197 1364966191 -611776967 1902582861 1103704833 1200930098 -201906990 415193467 -534433606 -1966570855 1390705717 -1709680538 796214292 1298183837 36975826 -671155277 357835581 2132044090
REM
CELL 1.54180   50.00000   50.00000   50.00000   90.00000   90.00000   90.00000
LATT -1
SFAC C  
C      1  0.5132750000000  0.5058690000000  0.5466690000000 1.0
C      1  0.4549960000000  0.5913530000000  0.4301890000000 1.0
C      1  0.5905930000000  0.5901550000000  0.5447230000000 1.0
C      1  0.5908540000000  0.5203180000000  0.4141300000000 1.0
C      1  0.5616100000000  0.3097860000000  0.4467950000000 1.0
C      1  0.4451610000000  0.5729590000000  0.4118120000000 1.0
C      1  0.5006860000000  0.4130460000000  0.5672030000000 1.0
C      1  0.5246100000000  0.5436500000000  0.5883350000000 1.0
C      1  0.5143690000000  0.5701150000000  0.5037820000000 1.0
C      1  0.5593710000000  0.5986880000000  0.4386310000000 1.0
C      1  0.5550280000000  0.5776530000000  0.4230170000000 1.0
C      1  0.5701930000000  0.5474750000000  0.5257030000000 1.0
C      1  0.4333910000000  0.4438140000000  0.4589620000000 1.0
C      1  0.5814180000000  0.4580710000000  0.4090780000000 1.0
C      1  0.4113770000000  0.4563820000000  0.5431390000000 1.0
C      1  0.4855600000000  0.4441740000000  0.4819830000000 1.0
C      1  0.4316410000000  0.4208190000000  0.4748430000000 1.0
C      1  0.6205120000000  0.5209060000000  0.4891050000000 1.0
C      1  0.3987240000000  0.5366060000000  0.4715650000000 1.0
C      1  0.5396700000000  0.4027950000000  0.4169190000000 1.0
C      1  0.4466300000000  0.4407070000000  0.4341640000000 1.0
C      1  0.4952240000000  0.5878330000000  0.5159930000000 1.0
C      1  0.5697690000000  0.4325620000000  0.4498550000000 1.0
C      1  0.5416020000000  0.4190330000000  0.5044750000000 1.0
C      1  0.5969460000000  0.4934230000000  0.5549910000000 1.0
C      1  0.4602950000000  0.4514450000000  0.5232640000000 1.0
C      1  0.4189370000000  0.4089600000000  0.4973210000000 1.0
C      1  0.4241930000000  0.5816860000000  0.4689880000000 1.0
C      1  0.5527950000000  0.5159810000000  0.4888070000000 1.0
C      1  0.5544930000000  0.5003750000000  0.5860960000000 1.0
C      1  0.4575430000000  0.6362420000000  0.5385760000000 1.0
C      1  0.4794950000000  0.6085070000000  0.5046610000000 1.0
C      1  0.4486770000000  0.5566000000000  0.5032430000000 1.0
C      1  0.4896820000000  0.4919140000000  0.5336410000000 1.0
C      1  0.4082570000000  0.6089320000000  0.5247760000000 1.0
C      1  0.4525260000000  0.5218800000000  0.5868770000000 1.0
C      1  0.4363590000000  0.4002960000000  0.5462430000000 1.0
C      1  0.4253740000000  0.5295810000000  0.5882540000000 1.0
C      1  0.4388270000000  0.6000510000000  0.4524850000000 1.0
C      1  0.4701210000000  0.4253350000000  0.4332750000000 1.0
C      1  0.4695010000000  0.4334290000000  0.5027910000000 1.0
C      1  0.4603810000000  0.5388830000000  0.4830940000000 1.0
C      1  0.5001090000000  0.3958760000000  0.5445440000000 1.0
C      1  0.4965360000000  0.5129220000000  0.4228030000000 1.0
C      1  0.4801140000000  0.4737010000000  0.5892490000000 1.0
C      1  0.5546080000000  0.5421430000000  0.5005070000000 1.0
C      1  0.4749930000000  0.4257620000000  0.5720630000000 1.0
C      1  0.4385970000000  0.5472250000000  0.4140100000000 1.0
C      1  0.5758970000000  0.4988830000000  0.4950260000000 1.0
C      1  0.4169910000000  0.4660920000000  0.4657080000000 1.0
C      1  0.5110910000000  0.5447790000000  0.5164630000000 1.0
C      1  0.3757590000000  0.4280830000000  0.4774060000000 1.0
C      1  0.5992710000000  0.4655490000000  0.3916110000000 1.0
C      1  0.5146700000000  0.4439260000000  0.4111000000000 1.0
C      1  0.4938310000000  0.4282130000000  0.4216980000000 1.0
C      1  0.4323480000000  0.6020630000000  0.5138400000000 1.0
C      1  0.5922300000000  0.3361170000000  0.5171770000000 1.0
C      1  0.5476650000000  0.3919250000000  0.4406460000000 1.0
C      1  0.5600140000000  0.4079880000000  0.4606990000000 1.0
C      1  0.5717330000000  0.6361410000000  0.5026700000000 1.0
C      1  0.6019360000000  0.5071740000000  0.5045000000000 1.0
C      1  0.5091290000000  0.4473950000000  0.5315350000000 1.0
C      1  0.4762000000000  0.4542620000000  0.5688330000000 1.0
C      1  0.5054710000000  0.6203280000000  0.5859990000000 1.0
C      1  0.5856110000000  0.4514090000000  0.4975980000000 1.0
C      1  0.4466690000000  0.5043600000000  0.5180630000000 1.0
C      1  0.5080270000000  0.4706890000000  0.4042350000000 1.0
C      1  0.5275490000000  0.5043330000000  0.4780060000000 1.0
C      1  0.5634330000000  0.5255200000000  0.4145530000000 1.0
C      1  0.4657970000000  0.4060270000000  0.5099010000000 1.0
C      1  0.3981810000000  0.4889940000000  0.4313350000000 1.0
C      1  0.5263650000000  0.5549840000000  0.5620270000000 1.0
C      1  0.3747760000000  0.4474360000000  0.4581250000000 1.0
C      1  0.5443290000000  0.5253060000000  0.5980370000000 1.0
C      1  0.3971280000000  0.5058930000000  0.5574020000000 1.0
C      1  0.4517210000000  0.6212700000000  0.4670990000000 1.0
C      1  0.5134150000000  0.5803690000000  0.5598400000000 1.0
C      1  0.5427640000000  0.3218350000000  0.4601830000000 1.0
C      1  0.5578800000000  0.4026650000000  0.4884250000000 1.0
C      1  0.4596230000000  0.5304280000000  0.4539400000000 1.0
C      1  0.5247740000000  0.4759630000000  0.4757500000000 1.0
C      1  0.6646910000000  0.5363970000000  0.4776890000000 1.0
C      1  0.5189160000000  0.4946770000000  0.4172830000000 1.0
C      1  0.4411170000000  0.4534950000000  0.4097220000000 1.0
C      1  0.5358230000000  0.4758210000000  0.5899810000000 1.0
C      1  0.5075190000000  0.4835040000000  0.5902710000000 1.0
C      1  0.4298480000000  0.4841420000000  0.5095440000000 1.0
C      1  0.4947210000000  0.6063420000000  0.4560820000000 1.0
C      1  0.5024690000000  0.5175710000000  0.4730230000000 1.0
C      1  0.4724570000000  0.5408760000000  0.5765310000000 1.0
C      1  0.5247170000000  0.3352030000000  0.4742580000000 1.0
C      1  0.5767990000000  0.5759040000000  0.5247470000000 1.0
C      1  0.4968130000000  0.3686440000000  0.5041780000000 1.0
C      1  0.5124380000000  0.4524840000000  0.4849690000000 1.0
C      1  0.5551300000000  0.5522620000000  0.4152920000000 1.0
C      1  0.5400340000000  0.4312570000000  0.4126440000000 1.0
C      1  0.5447650000000  0.5048000000000  0.4163640000000 1.0
C      1  0.4168560000000  0.4869210000000  0.4851070000000 1.0
C      1  0.4743060000000  0.5064850000000  0.5153700000000 1.0
C      1  0.4129570000000  0.5374850000000  0.6118000000000 1.0
C      1  0.5701460000000  0.4726510000000  0.5047370000000 1.0
C      1  0.5232760000000  0.4397070000000  0.5082530000000 1.0
C      1  0.4815250000000  0.4788340000000  0.3931280000000 1.0
C      1  0.3907460000000  0.4131430000000  0.4947330000000 1.0
C      1  0.5716810000000  0.3811960000000  0.4996980000000 1.0
C      1  0.4696790000000  0.5584050000000  0.5516220000000 1.0
C      1  0.4187880000000  0.5069170000000  0.4302270000000 1.0
C      1  0.4981480000000  0.5320910000000  0.5862280000000 1.0
C      1  0.3985130000000  0.4324350000000  0.5491660000000 1.0
C      1  0.5049370000000  0.5069360000000  0.5751580000000 1.0
C      1  0.6085160000000  0.4978600000000  0.5307770000000 1.0
C      1  0.5417000000000  0.5689190000000  0.4949030000000 1.0
C      1  0.5640420000000  0.6113540000000  0.4615090000000 1.0
C      1  0.5660460000000  0.6122840000000  0.4894530000000 1.0
C      1  0.3931420000000  0.4671740000000  0.4491510000000 1.0
C      1  0.4035010000000  0.5116340000000  0.4801900000000 1.0
C      1  0.5768510000000  0.6579440000000  0.5159970000000 1.0
C      1  0.4896750000000  0.5790670000000  0.5437610000000 1.0
C      1  0.4483970000000  0.5526410000000  0.5323140000000 1.0
C      1  0.5502240000000  0.6087720000000  0.5724580000000 1.0
C      1  0.5702530000000  0.5312020000000  0.5489430000000 1.0
C      1  0.4829850000000  0.5961510000000  0.4336180000000 1.0
C      1  0.5615050000000  0.5883870000000  0.5035030000000 1.0
C      1  0.4331300000000  0.4606680000000  0.5250060000000 1.0
C      1  0.6155390000000  0.5210070000000  0.4237720000000 1.0
C      1  0.5634180000000  0.4432820000000  0.4241730000000 1.0
C      1  0.4604220000000  0.4946710000000  0.5928060000000 1.0
C      1  0.3989660000000  0.4797260000000  0.5530700000000 1.0
C      1  0.5091750000000  0.3508050000000  0.4889970000000 1.0
C      1  0.4053420000000  0.5614560000000  0.4635230000000 1.0
C      1  0.5360840000000  0.4884450000000  0.5399760000000 1.0
C      1  0.4875500000000  0.3899720000000  0.5196150000000 1.0
C      1  0.5531810000000  0.4729910000000  0.5268700000000 1.0
C      1  0.5746760000000  0.6037040000000  0.5633870000000 1.0
C      1  0.5194660000000  0.5350790000000  0.5411390000000 1.0
C      1  0.4783260000000  0.6159190000000  0.4772140000000 1.0
C      1  0.4512910000000  0.4110620000000  0.5662650000000 1.0
C      1  0.5741910000000  0.5071770000000  0.5648880000000 1.0
C      1  0.6400490000000  0.5273810000000  0.4701540000000 1.0
C      1  0.4834150000000  0.4623290000000  0.5401620000000 1.0
C      1  0.4380640000000  0.4009080000000  0.5178200000000 1.0
C      1  0.4013160000000  0.5447720000000  0.6339480000000 1.0
C      1  0.5240520000000  0.4256710000000  0.5781760000000 1.0
C      1  0.4785160000000  0.5064410000000  0.4012930000000 1.0
C      1  0.4234580000000  0.5447450000000  0.5432330000000 1.0
C      1  0.5384740000000  0.4476390000000  0.5855020000000 1.0
C      1  0.3812910000000  0.4147090000000  0.5575400000000 1.0
C      1  0.4821660000000  0.5217450000000  0.4932750000000 1.0
C      1  0.5825960000000  0.3589060000000  0.5089640000000 1.0
C      1  0.4877380000000  0.5216360000000  0.4479480000000 1.0
C      1  0.4579480000000  0.4638950000000  0.3914610000000 1.0
C      1  0.4388360000000  0.5270390000000  0.4337680000000 1.0
C      1  0.4345450000000  0.5801810000000  0.4955850000000 1.0
C      1  0.5227000000000  0.6036190000000  0.5729450000000 1.0
C      1  0.6332930000000  0.5242570000000  0.4431980000000 1.0
C      1  0.4120250000000  0.5287670000000  0.5631980000000 1.0
C      1  0.6178390000000  0.5907760000000  0.5457660000000 1.0
C      1  0.4563620000000  0.6163320000000  0.5199290000000 1.0
END
