TITL C-612607-4507-967 0.000599949146723946 125000 -901.611440346086 0 0 149 (C1) n - 1
REM
REM in /home/nfs/bkarasulu/CARBON/AIRSS/Generating-Clusters/TERSOFF/Only-C1/FIRE-HFTN
REM
REM
REM
REM
REM
REM ./C.cell (11c1c37f851c82e70ff6c80c92926a4b)
REM AIRSS Version 0.9.1 bugfix July 2018 build 013d7b7c2542+ Fri, 06 Jul 2018 19:26:36 +0100
REM compiler GCC version 9.2.1 20190827 (Red Hat 9.2.1-1)
REM options -cpp -mtune=generic -march=x86-64 -g -O0 -fpre-include=/usr/include/finclude/math-vector-fortran.h
REM seed -840776073 1368264353 409802644 51360485 -1004237903 551212385 1667356199 -1379081586 -1160132136 -189296590 -1368184734 1045389367 7150463 -1525942765 -1109292127 1345011248 -1414915830 -1563270373 -1828897293 -117945494 -1404023175 1661313777 250146587 -738047012 -1784760406 612105269 234246246 -1241241170 586865796 -1323675803 1793271768 -510555548 -2022298432
REM
CELL 1.54180   50.00000   50.00000   50.00000   90.00000   90.00000   90.00000
LATT -1
SFAC C  
C      1  0.6035410000000  0.4804100000000  0.5651100000000 1.0
C      1  0.5295990000000  0.4865290000000  0.4440760000000 1.0
C      1  0.5737300000000  0.5216630000000  0.4491490000000 1.0
C      1  0.4372310000000  0.4827100000000  0.4537720000000 1.0
C      1  0.5015050000000  0.4549380000000  0.6139750000000 1.0
C      1  0.5485000000000  0.5619820000000  0.5799370000000 1.0
C      1  0.5253280000000  0.5477950000000  0.5936210000000 1.0
C      1  0.4445210000000  0.5694090000000  0.4513590000000 1.0
C      1  0.4572440000000  0.5618450000000  0.5797720000000 1.0
C      1  0.5131930000000  0.4619710000000  0.5497050000000 1.0
C      1  0.6017430000000  0.4405900000000  0.4831400000000 1.0
C      1  0.6173990000000  0.5056200000000  0.4755210000000 1.0
C      1  0.5171420000000  0.5440280000000  0.5217200000000 1.0
C      1  0.5293740000000  0.5562310000000  0.4330900000000 1.0
C      1  0.4043260000000  0.4924370000000  0.5597200000000 1.0
C      1  0.5985550000000  0.5081500000000  0.5645000000000 1.0
C      1  0.6215310000000  0.4897030000000  0.4518850000000 1.0
C      1  0.4663450000000  0.4232820000000  0.5527500000000 1.0
C      1  0.4490730000000  0.4406150000000  0.5688080000000 1.0
C      1  0.4220210000000  0.4334040000000  0.4708900000000 1.0
C      1  0.5892570000000  0.4998750000000  0.5175630000000 1.0
C      1  0.5587940000000  0.5084630000000  0.4698100000000 1.0
C      1  0.4429110000000  0.6117830000000  0.4764990000000 1.0
C      1  0.4736980000000  0.5941720000000  0.5485920000000 1.0
C      1  0.5348460000000  0.5503980000000  0.4795830000000 1.0
C      1  0.4986970000000  0.5137020000000  0.5715120000000 1.0
C      1  0.4866840000000  0.5923760000000  0.4786640000000 1.0
C      1  0.3841370000000  0.5076990000000  0.5478170000000 1.0
C      1  0.5574230000000  0.4063090000000  0.5115580000000 1.0
C      1  0.5812560000000  0.4254900000000  0.4749010000000 1.0
C      1  0.4630530000000  0.5367820000000  0.5079610000000 1.0
C      1  0.5196230000000  0.4465380000000  0.5941660000000 1.0
C      1  0.5515540000000  0.4777410000000  0.4321610000000 1.0
C      1  0.4604160000000  0.4036380000000  0.4637460000000 1.0
C      1  0.5272060000000  0.4452570000000  0.5672570000000 1.0
C      1  0.4416270000000  0.5841060000000  0.5888010000000 1.0
C      1  0.5073130000000  0.4135240000000  0.4801760000000 1.0
C      1  0.4410190000000  0.4839340000000  0.5157040000000 1.0
C      1  0.4755890000000  0.5441640000000  0.4821200000000 1.0
C      1  0.4314230000000  0.4919770000000  0.4296960000000 1.0
C      1  0.4490070000000  0.6096220000000  0.5482880000000 1.0
C      1  0.5031090000000  0.4836850000000  0.4519750000000 1.0
C      1  0.5234670000000  0.4501700000000  0.4026720000000 1.0
C      1  0.5030090000000  0.4326790000000  0.5034760000000 1.0
C      1  0.5446330000000  0.5026910000000  0.5333090000000 1.0
C      1  0.5119500000000  0.5374980000000  0.5699400000000 1.0
C      1  0.4543570000000  0.4869450000000  0.3880540000000 1.0
C      1  0.4783450000000  0.4981400000000  0.6156830000000 1.0
C      1  0.4544210000000  0.5554710000000  0.5281000000000 1.0
C      1  0.4518090000000  0.4620460000000  0.4985730000000 1.0
C      1  0.4596480000000  0.5907070000000  0.4665920000000 1.0
C      1  0.4983030000000  0.4769060000000  0.5335820000000 1.0
C      1  0.4367960000000  0.6068420000000  0.5741210000000 1.0
C      1  0.5324720000000  0.4140380000000  0.4658290000000 1.0
C      1  0.4592720000000  0.4573840000000  0.5895910000000 1.0
C      1  0.5426010000000  0.4359890000000  0.4196190000000 1.0
C      1  0.4707220000000  0.4412290000000  0.5067880000000 1.0
C      1  0.5259350000000  0.4541550000000  0.5019300000000 1.0
C      1  0.4178770000000  0.5610680000000  0.4604580000000 1.0
C      1  0.4795050000000  0.4965850000000  0.3790650000000 1.0
C      1  0.5447640000000  0.5625840000000  0.4564890000000 1.0
C      1  0.5356490000000  0.5744460000000  0.5553120000000 1.0
C      1  0.5455680000000  0.4276000000000  0.5553940000000 1.0
C      1  0.5644660000000  0.4229780000000  0.5346470000000 1.0
C      1  0.5645880000000  0.4531420000000  0.4263950000000 1.0
C      1  0.4422690000000  0.5048830000000  0.4074330000000 1.0
C      1  0.5733240000000  0.5679150000000  0.4575330000000 1.0
C      1  0.4998760000000  0.4953330000000  0.3986700000000 1.0
C      1  0.4544440000000  0.4768580000000  0.4744870000000 1.0
C      1  0.4012420000000  0.4470740000000  0.4574110000000 1.0
C      1  0.5565970000000  0.4145770000000  0.4833000000000 1.0
C      1  0.6006450000000  0.4559570000000  0.5542400000000 1.0
C      1  0.4482600000000  0.4286360000000  0.4578180000000 1.0
C      1  0.5165620000000  0.5537980000000  0.5477230000000 1.0
C      1  0.5434860000000  0.5009420000000  0.5603980000000 1.0
C      1  0.5440490000000  0.5542160000000  0.4089530000000 1.0
C      1  0.4918600000000  0.4119490000000  0.5518590000000 1.0
C      1  0.5026240000000  0.4683660000000  0.4095520000000 1.0
C      1  0.5635750000000  0.5363690000000  0.4037910000000 1.0
C      1  0.4676040000000  0.5659360000000  0.5523460000000 1.0
C      1  0.4240120000000  0.4434460000000  0.5522150000000 1.0
C      1  0.5055540000000  0.4479400000000  0.6406940000000 1.0
C      1  0.5057110000000  0.5414240000000  0.6143470000000 1.0
C      1  0.4670420000000  0.4471570000000  0.4442370000000 1.0
C      1  0.3630690000000  0.5325940000000  0.4265730000000 1.0
C      1  0.5437890000000  0.5244730000000  0.4879730000000 1.0
C      1  0.6076900000000  0.4798580000000  0.4290430000000 1.0
C      1  0.5588850000000  0.4808150000000  0.4757170000000 1.0
C      1  0.5932110000000  0.5203600000000  0.5378600000000 1.0
C      1  0.5878770000000  0.5263420000000  0.5841380000000 1.0
C      1  0.4522290000000  0.5545670000000  0.4277730000000 1.0
C      1  0.5773270000000  0.5187060000000  0.4207240000000 1.0
C      1  0.4851420000000  0.3979350000000  0.4725030000000 1.0
C      1  0.4745730000000  0.5067860000000  0.5595140000000 1.0
C      1  0.4625910000000  0.5063720000000  0.5117820000000 1.0
C      1  0.5483040000000  0.5864630000000  0.5323600000000 1.0
C      1  0.5971590000000  0.5005500000000  0.4126370000000 1.0
C      1  0.5041870000000  0.5191650000000  0.4139570000000 1.0
C      1  0.3849350000000  0.5665710000000  0.5001430000000 1.0
C      1  0.5504670000000  0.4692610000000  0.5001490000000 1.0
C      1  0.5091970000000  0.5879380000000  0.4966470000000 1.0
C      1  0.5839120000000  0.5929840000000  0.4565850000000 1.0
C      1  0.5723470000000  0.5705260000000  0.5277340000000 1.0
C      1  0.5289380000000  0.4167840000000  0.4364050000000 1.0
C      1  0.4654110000000  0.4341130000000  0.3953220000000 1.0
C      1  0.3746760000000  0.5284520000000  0.5341300000000 1.0
C      1  0.4052190000000  0.5385460000000  0.4485510000000 1.0
C      1  0.5165300000000  0.5605460000000  0.4983840000000 1.0
C      1  0.5888280000000  0.5439440000000  0.4597920000000 1.0
C      1  0.4274520000000  0.4301220000000  0.5256860000000 1.0
C      1  0.4598590000000  0.5364920000000  0.5921310000000 1.0
C      1  0.3834070000000  0.5220340000000  0.4416250000000 1.0
C      1  0.4914170000000  0.5046030000000  0.4661010000000 1.0
C      1  0.4829860000000  0.4167860000000  0.4071760000000 1.0
C      1  0.5037830000000  0.4090060000000  0.4232980000000 1.0
C      1  0.4784390000000  0.4706260000000  0.6066810000000 1.0
C      1  0.5733800000000  0.5487480000000  0.5726970000000 1.0
C      1  0.4484890000000  0.5327310000000  0.4117910000000 1.0
C      1  0.5333700000000  0.5211260000000  0.5153370000000 1.0
C      1  0.4532730000000  0.4579590000000  0.3895470000000 1.0
C      1  0.4917530000000  0.5325470000000  0.4600620000000 1.0
C      1  0.5063430000000  0.5385690000000  0.4354600000000 1.0
C      1  0.4342070000000  0.6025580000000  0.5246510000000 1.0
C      1  0.4798820000000  0.4976290000000  0.5339030000000 1.0
C      1  0.5811830000000  0.5476570000000  0.5431160000000 1.0
C      1  0.5889630000000  0.4363110000000  0.5399380000000 1.0
C      1  0.4560680000000  0.4252780000000  0.5258660000000 1.0
C      1  0.5527690000000  0.3795100000000  0.5166070000000 1.0
C      1  0.6119140000000  0.5336900000000  0.4727190000000 1.0
C      1  0.4334890000000  0.5739100000000  0.5211330000000 1.0
C      1  0.4887410000000  0.4645410000000  0.4356830000000 1.0
C      1  0.4519480000000  0.5153230000000  0.5740090000000 1.0
C      1  0.6111560000000  0.4625080000000  0.4952190000000 1.0
C      1  0.3818800000000  0.4950640000000  0.4496320000000 1.0
C      1  0.4716180000000  0.4977250000000  0.4837110000000 1.0
C      1  0.4023970000000  0.5725440000000  0.4808350000000 1.0
C      1  0.6082020000000  0.4905570000000  0.4982300000000 1.0
C      1  0.4061670000000  0.4645350000000  0.5569990000000 1.0
C      1  0.5300930000000  0.6001640000000  0.5136170000000 1.0
C      1  0.3750220000000  0.5498580000000  0.5183430000000 1.0
C      1  0.4799630000000  0.5270150000000  0.6116360000000 1.0
C      1  0.5927930000000  0.4554080000000  0.4272360000000 1.0
C      1  0.5063690000000  0.4148300000000  0.5290750000000 1.0
C      1  0.4332470000000  0.6176320000000  0.5009880000000 1.0
C      1  0.4170030000000  0.4285150000000  0.4992010000000 1.0
C      1  0.5090430000000  0.4417930000000  0.6657780000000 1.0
C      1  0.5633330000000  0.4860410000000  0.5201140000000 1.0
C      1  0.3865860000000  0.4689610000000  0.4527840000000 1.0
C      1  0.4260770000000  0.5058220000000  0.5713200000000 1.0
END
