TITL C-612601-4209-362 -7.93453903723536e-06 125000 -358.480444046512 0 0 60 (C1) n - 1
REM
REM in /home/nfs/bkarasulu/CARBON/AIRSS/Generating-Clusters/TERSOFF/Only-C1/FIRE-HFTN
REM
REM
REM
REM
REM
REM ./C.cell (11c1c37f851c82e70ff6c80c92926a4b)
REM AIRSS Version 0.9.1 bugfix July 2018 build 013d7b7c2542+ Fri, 06 Jul 2018 19:26:36 +0100
REM compiler GCC version 9.2.1 20190827 (Red Hat 9.2.1-1)
REM options -cpp -mtune=generic -march=x86-64 -g -O0 -fpre-include=/usr/include/finclude/math-vector-fortran.h
REM seed 1162683740 -227432036 -1807091759 688079540 -750503779 1854675315 -1311757938 -1889257376 -1559088266 -280809321 -703317119 1502128229 1822334950 -1436844276 -796734271 1134607149 1126717868 432091302 937305592 -76198443 1961759233 -1764487753 1463688385 -1183488977 513476890 -760800655 -1080836642 686180822 334362325 668045934 -1026881542 -1127412102 -1401389176
REM
CELL 1.54180   50.00000   50.00000   50.00000   90.00000   90.00000   90.00000
LATT -1
SFAC C  
C      1  0.5758290000000  0.4464810000000  0.4915540000000 1.0
C      1  0.4892030000000  0.5345320000000  0.4426960000000 1.0
C      1  0.5778410000000  0.5102830000000  0.4761800000000 1.0
C      1  0.4409340000000  0.5164470000000  0.4502790000000 1.0
C      1  0.5099770000000  0.5132820000000  0.5752530000000 1.0
C      1  0.4971390000000  0.5544160000000  0.4893420000000 1.0
C      1  0.5266950000000  0.4898800000000  0.5410500000000 1.0
C      1  0.4939260000000  0.4343030000000  0.4460620000000 1.0
C      1  0.5639340000000  0.4617460000000  0.5371980000000 1.0
C      1  0.5051670000000  0.4230520000000  0.4693790000000 1.0
C      1  0.5180090000000  0.4440430000000  0.5380160000000 1.0
C      1  0.5370500000000  0.5276430000000  0.4966660000000 1.0
C      1  0.4681880000000  0.4462130000000  0.4451680000000 1.0
C      1  0.5159620000000  0.4695570000000  0.4202640000000 1.0
C      1  0.4756630000000  0.4463680000000  0.5181180000000 1.0
C      1  0.4855320000000  0.5066000000000  0.4362180000000 1.0
C      1  0.5326260000000  0.4323620000000  0.5148910000000 1.0
C      1  0.4738780000000  0.4657580000000  0.4980100000000 1.0
C      1  0.5638830000000  0.5172570000000  0.4999540000000 1.0
C      1  0.4530880000000  0.5615130000000  0.4708620000000 1.0
C      1  0.4761580000000  0.4854080000000  0.5502990000000 1.0
C      1  0.6028630000000  0.4924690000000  0.4388090000000 1.0
C      1  0.5603950000000  0.4433410000000  0.5146300000000 1.0
C      1  0.4597180000000  0.4958670000000  0.4436970000000 1.0
C      1  0.5284500000000  0.5265070000000  0.4684230000000 1.0
C      1  0.4416330000000  0.5354440000000  0.4711460000000 1.0
C      1  0.4906830000000  0.6103610000000  0.5448060000000 1.0
C      1  0.4675150000000  0.5119560000000  0.5033990000000 1.0
C      1  0.5751270000000  0.4882750000000  0.5439100000000 1.0
C      1  0.4895040000000  0.5123850000000  0.5543790000000 1.0
C      1  0.5112330000000  0.4923790000000  0.5172400000000 1.0
C      1  0.4249890000000  0.5349530000000  0.5164470000000 1.0
C      1  0.5310380000000  0.5051550000000  0.4501980000000 1.0
C      1  0.5629250000000  0.5005470000000  0.5674570000000 1.0
C      1  0.5196320000000  0.4224550000000  0.4919490000000 1.0
C      1  0.4897470000000  0.5616900000000  0.5473030000000 1.0
C      1  0.4498170000000  0.4677780000000  0.4830370000000 1.0
C      1  0.5765590000000  0.5070480000000  0.5228280000000 1.0
C      1  0.4819110000000  0.5861880000000  0.5358570000000 1.0
C      1  0.5891230000000  0.4886760000000  0.4620780000000 1.0
C      1  0.5122050000000  0.5395670000000  0.5110810000000 1.0
C      1  0.4254620000000  0.4769320000000  0.5286070000000 1.0
C      1  0.4429790000000  0.5243780000000  0.4976070000000 1.0
C      1  0.4209460000000  0.5604240000000  0.5242180000000 1.0
C      1  0.4483490000000  0.4835960000000  0.5444960000000 1.0
C      1  0.4969830000000  0.5362020000000  0.5365460000000 1.0
C      1  0.4640870000000  0.5833540000000  0.5138330000000 1.0
C      1  0.5055320000000  0.5433530000000  0.4640220000000 1.0
C      1  0.4729270000000  0.5697280000000  0.4901230000000 1.0
C      1  0.4007930000000  0.4755260000000  0.5404620000000 1.0
C      1  0.5855100000000  0.4630200000000  0.4730320000000 1.0
C      1  0.4554080000000  0.4695030000000  0.4550230000000 1.0
C      1  0.5363740000000  0.4637800000000  0.5464390000000 1.0
C      1  0.5109150000000  0.4933530000000  0.4338810000000 1.0
C      1  0.4365680000000  0.5820590000000  0.5203990000000 1.0
C      1  0.5112690000000  0.4437450000000  0.4259240000000 1.0
C      1  0.4908750000000  0.4529500000000  0.5405150000000 1.0
C      1  0.4864160000000  0.4909330000000  0.5034260000000 1.0
C      1  0.4278790000000  0.4715490000000  0.5005000000000 1.0
C      1  0.5349820000000  0.5054310000000  0.5648150000000 1.0
END
