TITL C-612600-6631-857 3006.18794968915 125000 -893.570730493945 0 0 148 (C1) n - 1
REM
REM in /home/nfs/bkarasulu/CARBON/AIRSS/Generating-Clusters/TERSOFF/Only-C1/FIRE-HFTN
REM
REM
REM
REM
REM
REM ./C.cell (11c1c37f851c82e70ff6c80c92926a4b)
REM AIRSS Version 0.9.1 bugfix July 2018 build 013d7b7c2542+ Fri, 06 Jul 2018 19:26:36 +0100
REM compiler GCC version 9.2.1 20190827 (Red Hat 9.2.1-1)
REM options -cpp -mtune=generic -march=x86-64 -g -O0 -fpre-include=/usr/include/finclude/math-vector-fortran.h
REM seed 925752559 816345190 57242415 -395937751 903262783 -493194858 1812401147 -645715592 2140478818 -1919145094 -123771110 496856079 1473423031 222591455 -688883361 1886462485 616703265 -1051902921 1260016340 765713860 479729119 -1077499503 437806428 965628831 993514330 -2121957668 1355720301 140534887 -1080172249 -357386356 -216682307 -879533967 2092840169
REM
CELL 1.54180   50.00000   50.00000   50.00000   90.00000   90.00000   90.00000
LATT -1
SFAC C  
C      1  0.4351140000000  0.5925040000000  0.4941680000000 1.0
C      1  0.5239810000000  0.6205610000000  0.5217660000000 1.0
C      1  0.5028170000000  0.4820270000000  0.3956200000000 1.0
C      1  0.5983030000000  0.4553130000000  0.4522210000000 1.0
C      1  0.4419450000000  0.4096060000000  0.5429830000000 1.0
C      1  0.5815330000000  0.5673220000000  0.4948300000000 1.0
C      1  0.5922840000000  0.4888060000000  0.4975440000000 1.0
C      1  0.5707750000000  0.5824800000000  0.5142290000000 1.0
C      1  0.4674520000000  0.5992890000000  0.4540430000000 1.0
C      1  0.4540270000000  0.5143520000000  0.4430880000000 1.0
C      1  0.5915160000000  0.5006160000000  0.5244760000000 1.0
C      1  0.5780860000000  0.4628500000000  0.4945180000000 1.0
C      1  0.5423940000000  0.3906200000000  0.5638200000000 1.0
C      1  0.5583780000000  0.3789500000000  0.5807760000000 1.0
C      1  0.4897350000000  0.4366270000000  0.4838590000000 1.0
C      1  0.4871810000000  0.5898000000000  0.5484170000000 1.0
C      1  0.5851350000000  0.5207420000000  0.4132510000000 1.0
C      1  0.4950720000000  0.5963080000000  0.4918860000000 1.0
C      1  0.4268720000000  0.4445390000000  0.4667070000000 1.0
C      1  0.5206880000000  0.5697590000000  0.4363020000000 1.0
C      1  0.4023830000000  0.5146830000000  0.4919990000000 1.0
C      1  0.4374530000000  0.5688730000000  0.6461940000000 1.0
C      1  0.4432370000000  0.5392130000000  0.4872000000000 1.0
C      1  0.5297540000000  0.5458180000000  0.4832570000000 1.0
C      1  0.5154410000000  0.5504010000000  0.5068380000000 1.0
C      1  0.4538430000000  0.4448320000000  0.5127950000000 1.0
C      1  0.5699680000000  0.5622010000000  0.4328600000000 1.0
C      1  0.5576720000000  0.4087770000000  0.4452690000000 1.0
C      1  0.5649440000000  0.4201290000000  0.4705150000000 1.0
C      1  0.4170900000000  0.5387890000000  0.4986790000000 1.0
C      1  0.5003740000000  0.5122100000000  0.4476160000000 1.0
C      1  0.4687520000000  0.5351110000000  0.5295920000000 1.0
C      1  0.5830070000000  0.5647330000000  0.5556230000000 1.0
C      1  0.4549960000000  0.3907490000000  0.4433220000000 1.0
C      1  0.5234820000000  0.4031080000000  0.5478230000000 1.0
C      1  0.5199090000000  0.4458000000000  0.4424310000000 1.0
C      1  0.5141930000000  0.4638260000000  0.6176950000000 1.0
C      1  0.4735230000000  0.4193940000000  0.5880730000000 1.0
C      1  0.5440360000000  0.4915740000000  0.4523100000000 1.0
C      1  0.5129800000000  0.4782230000000  0.4812420000000 1.0
C      1  0.4536460000000  0.4165980000000  0.4307280000000 1.0
C      1  0.4867020000000  0.6121610000000  0.4705700000000 1.0
C      1  0.4487160000000  0.5016000000000  0.6211650000000 1.0
C      1  0.5694940000000  0.5096280000000  0.3946490000000 1.0
C      1  0.4120430000000  0.4499300000000  0.4242810000000 1.0
C      1  0.4882660000000  0.4685300000000  0.4136190000000 1.0
C      1  0.6074760000000  0.4809860000000  0.4521650000000 1.0
C      1  0.5473060000000  0.6178800000000  0.4745070000000 1.0
C      1  0.4888590000000  0.4747230000000  0.6229680000000 1.0
C      1  0.3987510000000  0.4685970000000  0.4405760000000 1.0
C      1  0.5477770000000  0.5804980000000  0.4358850000000 1.0
C      1  0.5717990000000  0.4923860000000  0.5442520000000 1.0
C      1  0.4479400000000  0.4562390000000  0.6030690000000 1.0
C      1  0.4491100000000  0.4332110000000  0.5867020000000 1.0
C      1  0.5737390000000  0.4681090000000  0.5621370000000 1.0
C      1  0.4069990000000  0.5440880000000  0.5460940000000 1.0
C      1  0.5635070000000  0.5798050000000  0.5414390000000 1.0
C      1  0.4321300000000  0.4342950000000  0.4388490000000 1.0
C      1  0.4079440000000  0.4680600000000  0.4683760000000 1.0
C      1  0.4191230000000  0.5249490000000  0.5914210000000 1.0
C      1  0.4620010000000  0.4916410000000  0.5111920000000 1.0
C      1  0.4763710000000  0.5926260000000  0.4276260000000 1.0
C      1  0.4953150000000  0.5710910000000  0.4222590000000 1.0
C      1  0.5390590000000  0.4760440000000  0.6221760000000 1.0
C      1  0.5183630000000  0.5550560000000  0.4600200000000 1.0
C      1  0.4517640000000  0.6084510000000  0.3844800000000 1.0
C      1  0.4856710000000  0.3835740000000  0.5276860000000 1.0
C      1  0.5530800000000  0.5308470000000  0.4830150000000 1.0
C      1  0.4360790000000  0.5474800000000  0.6313750000000 1.0
C      1  0.4788730000000  0.3825010000000  0.4534980000000 1.0
C      1  0.5048210000000  0.5302600000000  0.3930510000000 1.0
C      1  0.4934770000000  0.4968540000000  0.4719910000000 1.0
C      1  0.6009870000000  0.5012760000000  0.4713810000000 1.0
C      1  0.4810850000000  0.4213090000000  0.4193540000000 1.0
C      1  0.5319080000000  0.4910020000000  0.4987090000000 1.0
C      1  0.5451530000000  0.5044400000000  0.3849540000000 1.0
C      1  0.5010870000000  0.3998960000000  0.4565330000000 1.0
C      1  0.4445870000000  0.5615370000000  0.3769450000000 1.0
C      1  0.5096690000000  0.4177590000000  0.4329670000000 1.0
C      1  0.3980510000000  0.4953470000000  0.5563960000000 1.0
C      1  0.5377290000000  0.6243890000000  0.4988310000000 1.0
C      1  0.5290040000000  0.5045420000000  0.5226040000000 1.0
C      1  0.4845130000000  0.5442800000000  0.4107530000000 1.0
C      1  0.5497120000000  0.5032360000000  0.4788950000000 1.0
C      1  0.4510340000000  0.4869230000000  0.4359780000000 1.0
C      1  0.5169190000000  0.5302290000000  0.5257080000000 1.0
C      1  0.3921160000000  0.5196500000000  0.5425910000000 1.0
C      1  0.5013370000000  0.5743020000000  0.5053680000000 1.0
C      1  0.4933030000000  0.6383180000000  0.4667570000000 1.0
C      1  0.4057630000000  0.4715930000000  0.5426100000000 1.0
C      1  0.4628600000000  0.5472520000000  0.5060870000000 1.0
C      1  0.4615040000000  0.4771930000000  0.6164850000000 1.0
C      1  0.4670470000000  0.6086930000000  0.4064830000000 1.0
C      1  0.4789260000000  0.5251110000000  0.4336640000000 1.0
C      1  0.4128960000000  0.4475320000000  0.5565530000000 1.0
C      1  0.5472870000000  0.5063580000000  0.5455750000000 1.0
C      1  0.5534180000000  0.4088800000000  0.4952680000000 1.0
C      1  0.4067070000000  0.5006970000000  0.5828740000000 1.0
C      1  0.4347160000000  0.5250320000000  0.6149260000000 1.0
C      1  0.5559800000000  0.4583820000000  0.5102580000000 1.0
C      1  0.4324700000000  0.4277140000000  0.5641360000000 1.0
C      1  0.6002750000000  0.5452950000000  0.5484610000000 1.0
C      1  0.5886280000000  0.4446770000000  0.5510790000000 1.0
C      1  0.4383340000000  0.4222140000000  0.5178380000000 1.0
C      1  0.5237110000000  0.5609110000000  0.5644780000000 1.0
C      1  0.5784720000000  0.5427800000000  0.4818890000000 1.0
C      1  0.5365900000000  0.5832630000000  0.5507860000000 1.0
C      1  0.6051790000000  0.5239680000000  0.5327700000000 1.0
C      1  0.4357080000000  0.5806630000000  0.5206110000000 1.0
C      1  0.4778280000000  0.4512460000000  0.4610090000000 1.0
C      1  0.5268930000000  0.5090140000000  0.4377760000000 1.0
C      1  0.4600230000000  0.5479570000000  0.3939760000000 1.0
C      1  0.5851440000000  0.4226510000000  0.5360190000000 1.0
C      1  0.5328180000000  0.5356110000000  0.5584380000000 1.0
C      1  0.5792010000000  0.4753370000000  0.5905750000000 1.0
C      1  0.5057740000000  0.4130910000000  0.4808370000000 1.0
C      1  0.5281800000000  0.4672570000000  0.4583920000000 1.0
C      1  0.4625840000000  0.3897300000000  0.5410910000000 1.0
C      1  0.4690090000000  0.5004030000000  0.4851730000000 1.0
C      1  0.5150590000000  0.6016250000000  0.5409410000000 1.0
C      1  0.4173110000000  0.5566180000000  0.5226310000000 1.0
C      1  0.4439620000000  0.4705830000000  0.5140800000000 1.0
C      1  0.5248370000000  0.4029200000000  0.4993730000000 1.0
C      1  0.4957310000000  0.5681610000000  0.5668550000000 1.0
C      1  0.4409160000000  0.5875750000000  0.3714130000000 1.0
C      1  0.5130460000000  0.3920310000000  0.5237230000000 1.0
C      1  0.5638070000000  0.4790200000000  0.6123290000000 1.0
C      1  0.5172910000000  0.5052420000000  0.3885240000000 1.0
C      1  0.5712060000000  0.4090310000000  0.5175260000000 1.0
C      1  0.5814320000000  0.4444180000000  0.4723090000000 1.0
C      1  0.4595930000000  0.5882460000000  0.5374170000000 1.0
C      1  0.4972860000000  0.4411530000000  0.5341040000000 1.0
C      1  0.5085240000000  0.4260890000000  0.5555140000000 1.0
C      1  0.4436310000000  0.5939040000000  0.4684820000000 1.0
C      1  0.5371170000000  0.4055520000000  0.4273490000000 1.0
C      1  0.5858650000000  0.5379170000000  0.4355450000000 1.0
C      1  0.5140450000000  0.4401780000000  0.6025010000000 1.0
C      1  0.5443790000000  0.4579870000000  0.5632380000000 1.0
C      1  0.4514150000000  0.5181930000000  0.4710060000000 1.0
C      1  0.4716400000000  0.4670370000000  0.4367630000000 1.0
C      1  0.4681700000000  0.5084090000000  0.5328820000000 1.0
C      1  0.4173230000000  0.5462740000000  0.5725210000000 1.0
C      1  0.4161480000000  0.4750860000000  0.5160240000000 1.0
C      1  0.4051640000000  0.4857400000000  0.4914690000000 1.0
C      1  0.5937550000000  0.5285820000000  0.4623510000000 1.0
C      1  0.5512500000000  0.6038910000000  0.4518530000000 1.0
C      1  0.4997550000000  0.4273320000000  0.5823150000000 1.0
C      1  0.4816940000000  0.4420540000000  0.5104640000000 1.0
END
