TITL C-612603-7354-650 0.31996606909256 125000 -774.475505998389 0 0 127 (C1) n - 1
REM
REM in /home/nfs/bkarasulu/CARBON/AIRSS/Generating-Clusters/TERSOFF/Only-C1/FIRE-HFTN
REM
REM
REM
REM
REM
REM ./C.cell (11c1c37f851c82e70ff6c80c92926a4b)
REM AIRSS Version 0.9.1 bugfix July 2018 build 013d7b7c2542+ Fri, 06 Jul 2018 19:26:36 +0100
REM compiler GCC version 9.2.1 20190827 (Red Hat 9.2.1-1)
REM options -cpp -mtune=generic -march=x86-64 -g -O0 -fpre-include=/usr/include/finclude/math-vector-fortran.h
REM seed 664951513 -279204136 -1858930886 925524898 -1164614666 736753051 1933178613 -760426790 1740318970 -1987017846 2067747698 -790952684 1760541462 -603571059 988589960 -53506715 -562195441 2080180051 -1146153937 2058303866 259287671 -1937609920 1556429542 1442176061 -1657610815 -1164828455 -1451994551 -1199191444 480897180 821394437 -1811792238 -721656381 -2127207406
REM
CELL 1.54180   50.00000   50.00000   50.00000   90.00000   90.00000   90.00000
LATT -1
SFAC C  
C      1  0.5430250000000  0.5229190000000  0.5501260000000 1.0
C      1  0.5431190000000  0.5783740000000  0.5342900000000 1.0
C      1  0.4379770000000  0.4147740000000  0.5314950000000 1.0
C      1  0.5386220000000  0.4763390000000  0.5074370000000 1.0
C      1  0.4790500000000  0.5731170000000  0.5097900000000 1.0
C      1  0.4265200000000  0.5083520000000  0.3654930000000 1.0
C      1  0.6111890000000  0.5030730000000  0.5397100000000 1.0
C      1  0.4816640000000  0.5254460000000  0.6022530000000 1.0
C      1  0.5333490000000  0.5123100000000  0.3929370000000 1.0
C      1  0.3952340000000  0.4782210000000  0.5558030000000 1.0
C      1  0.4537270000000  0.4651090000000  0.4990960000000 1.0
C      1  0.5103420000000  0.5104000000000  0.5077440000000 1.0
C      1  0.4693170000000  0.6129480000000  0.4566250000000 1.0
C      1  0.4930520000000  0.3880000000000  0.4932300000000 1.0
C      1  0.4537020000000  0.5190920000000  0.5986950000000 1.0
C      1  0.4897940000000  0.5189300000000  0.5222210000000 1.0
C      1  0.5613300000000  0.4630830000000  0.4400770000000 1.0
C      1  0.4665120000000  0.4036130000000  0.4600300000000 1.0
C      1  0.4767070000000  0.4386320000000  0.5926790000000 1.0
C      1  0.4166640000000  0.5388690000000  0.5679150000000 1.0
C      1  0.5682300000000  0.4394360000000  0.5094980000000 1.0
C      1  0.5069530000000  0.4813590000000  0.3607230000000 1.0
C      1  0.6066430000000  0.5215190000000  0.5625770000000 1.0
C      1  0.5498620000000  0.4965680000000  0.5462880000000 1.0
C      1  0.5163110000000  0.5213310000000  0.4545030000000 1.0
C      1  0.5358470000000  0.5559430000000  0.5190050000000 1.0
C      1  0.4739930000000  0.4556890000000  0.5182870000000 1.0
C      1  0.4922810000000  0.4330330000000  0.5213000000000 1.0
C      1  0.4796260000000  0.6007060000000  0.5032910000000 1.0
C      1  0.4861940000000  0.4782470000000  0.3444760000000 1.0
C      1  0.4488300000000  0.4698390000000  0.6158060000000 1.0
C      1  0.4921940000000  0.5540780000000  0.4943370000000 1.0
C      1  0.5175840000000  0.4258190000000  0.5081840000000 1.0
C      1  0.4423620000000  0.5287120000000  0.5736590000000 1.0
C      1  0.5429010000000  0.4038150000000  0.4243270000000 1.0
C      1  0.4432050000000  0.4918140000000  0.4986500000000 1.0
C      1  0.5369170000000  0.4749080000000  0.5353620000000 1.0
C      1  0.5197320000000  0.5506710000000  0.4965900000000 1.0
C      1  0.5275070000000  0.4716670000000  0.5812760000000 1.0
C      1  0.5075330000000  0.6061390000000  0.5428440000000 1.0
C      1  0.4722360000000  0.6125820000000  0.3829750000000 1.0
C      1  0.4853380000000  0.4730850000000  0.4379690000000 1.0
C      1  0.4607040000000  0.6061750000000  0.4826850000000 1.0
C      1  0.5152680000000  0.5333840000000  0.4001520000000 1.0
C      1  0.4445140000000  0.5358850000000  0.4054740000000 1.0
C      1  0.4654490000000  0.3940200000000  0.4872120000000 1.0
C      1  0.4604280000000  0.4817470000000  0.3388780000000 1.0
C      1  0.5204170000000  0.4871740000000  0.3840660000000 1.0
C      1  0.5333100000000  0.5419900000000  0.4709490000000 1.0
C      1  0.4462720000000  0.4009890000000  0.5073410000000 1.0
C      1  0.5698500000000  0.4367060000000  0.4809370000000 1.0
C      1  0.5588790000000  0.4382840000000  0.4544250000000 1.0
C      1  0.5330830000000  0.5940640000000  0.4725130000000 1.0
C      1  0.5130400000000  0.4077700000000  0.4868350000000 1.0
C      1  0.4388080000000  0.5871230000000  0.4808100000000 1.0
C      1  0.5293820000000  0.5411510000000  0.5884920000000 1.0
C      1  0.5532280000000  0.5217480000000  0.4832520000000 1.0
C      1  0.5039660000000  0.4002770000000  0.5573890000000 1.0
C      1  0.5238880000000  0.5851870000000  0.5552800000000 1.0
C      1  0.5802190000000  0.5225590000000  0.4739760000000 1.0
C      1  0.5267010000000  0.4956270000000  0.4472830000000 1.0
C      1  0.4539300000000  0.5151550000000  0.5518270000000 1.0
C      1  0.4569980000000  0.5684080000000  0.4391400000000 1.0
C      1  0.5804420000000  0.5162230000000  0.5746450000000 1.0
C      1  0.5213590000000  0.5672380000000  0.5776900000000 1.0
C      1  0.5843240000000  0.5242880000000  0.4460080000000 1.0
C      1  0.5551620000000  0.4725460000000  0.4128760000000 1.0
C      1  0.5118390000000  0.4769750000000  0.4302230000000 1.0
C      1  0.4687270000000  0.6055270000000  0.4082690000000 1.0
C      1  0.4112470000000  0.4945250000000  0.6024760000000 1.0
C      1  0.5358690000000  0.5024870000000  0.4973340000000 1.0
C      1  0.5381920000000  0.4199940000000  0.4460040000000 1.0
C      1  0.6018320000000  0.5202830000000  0.4915800000000 1.0
C      1  0.5863480000000  0.4570310000000  0.5250650000000 1.0
C      1  0.5399410000000  0.4308980000000  0.5503600000000 1.0
C      1  0.5737860000000  0.4901330000000  0.5603870000000 1.0
C      1  0.4300020000000  0.5234480000000  0.3870870000000 1.0
C      1  0.4605150000000  0.4884180000000  0.5568550000000 1.0
C      1  0.5541280000000  0.5316770000000  0.5755590000000 1.0
C      1  0.4862520000000  0.4226420000000  0.4496420000000 1.0
C      1  0.5503180000000  0.6003190000000  0.5172950000000 1.0
C      1  0.5042620000000  0.6112280000000  0.5136280000000 1.0
C      1  0.4716940000000  0.4690470000000  0.5429790000000 1.0
C      1  0.4159320000000  0.4325490000000  0.5339760000000 1.0
C      1  0.5326010000000  0.4572820000000  0.5573640000000 1.0
C      1  0.6147650000000  0.5131790000000  0.5137840000000 1.0
C      1  0.4375970000000  0.4928520000000  0.3469050000000 1.0
C      1  0.5587240000000  0.5022290000000  0.4059300000000 1.0
C      1  0.4881190000000  0.5203560000000  0.4579120000000 1.0
C      1  0.4548740000000  0.4249790000000  0.5795630000000 1.0
C      1  0.3976440000000  0.5282000000000  0.5518350000000 1.0
C      1  0.4845550000000  0.4146930000000  0.5429350000000 1.0
C      1  0.4622540000000  0.5237990000000  0.5264600000000 1.0
C      1  0.4922670000000  0.5445020000000  0.4096690000000 1.0
C      1  0.4388900000000  0.4961150000000  0.6095510000000 1.0
C      1  0.4777170000000  0.5381070000000  0.4763360000000 1.0
C      1  0.4577520000000  0.4160770000000  0.5525490000000 1.0
C      1  0.4974920000000  0.4770130000000  0.6164450000000 1.0
C      1  0.5290090000000  0.4084460000000  0.5631030000000 1.0
C      1  0.5511810000000  0.4846630000000  0.4557580000000 1.0
C      1  0.4298590000000  0.4481080000000  0.6138110000000 1.0
C      1  0.4738880000000  0.4476760000000  0.4426710000000 1.0
C      1  0.4457070000000  0.5198780000000  0.5027200000000 1.0
C      1  0.5150400000000  0.4905610000000  0.5986160000000 1.0
C      1  0.5295270000000  0.6070440000000  0.4982090000000 1.0
C      1  0.3972830000000  0.4808320000000  0.5839260000000 1.0
C      1  0.5131560000000  0.4178600000000  0.4597400000000 1.0
C      1  0.4422250000000  0.5630660000000  0.4650680000000 1.0
C      1  0.4311640000000  0.4283250000000  0.5949200000000 1.0
C      1  0.6246020000000  0.5407950000000  0.5712260000000 1.0
C      1  0.5765890000000  0.5178350000000  0.4211540000000 1.0
C      1  0.5387630000000  0.5698470000000  0.4600840000000 1.0
C      1  0.4743580000000  0.4974650000000  0.4479810000000 1.0
C      1  0.5939340000000  0.4792670000000  0.5424110000000 1.0
C      1  0.5434600000000  0.4289340000000  0.5215880000000 1.0
C      1  0.4472560000000  0.4485550000000  0.4525250000000 1.0
C      1  0.4492510000000  0.5389300000000  0.4804270000000 1.0
C      1  0.3910080000000  0.5033620000000  0.5433220000000 1.0
C      1  0.6413590000000  0.5591650000000  0.5790250000000 1.0
C      1  0.4757740000000  0.6189340000000  0.3579410000000 1.0
C      1  0.4652650000000  0.5492930000000  0.4188620000000 1.0
C      1  0.5097600000000  0.5197290000000  0.5968560000000 1.0
C      1  0.5261240000000  0.4697140000000  0.4064300000000 1.0
C      1  0.4753950000000  0.4611540000000  0.6103550000000 1.0
C      1  0.4653660000000  0.5959280000000  0.4342280000000 1.0
C      1  0.4026240000000  0.4543820000000  0.5424640000000 1.0
C      1  0.4421460000000  0.4494080000000  0.4789110000000 1.0
END
