TITL C-612607-4507-874 3.59702302411254 125000 -417.084577079039 0 0 70 (C1) n - 1
REM
REM in /home/nfs/bkarasulu/CARBON/AIRSS/Generating-Clusters/TERSOFF/Only-C1/FIRE-HFTN
REM
REM
REM
REM
REM
REM ./C.cell (11c1c37f851c82e70ff6c80c92926a4b)
REM AIRSS Version 0.9.1 bugfix July 2018 build 013d7b7c2542+ Fri, 06 Jul 2018 19:26:36 +0100
REM compiler GCC version 9.2.1 20190827 (Red Hat 9.2.1-1)
REM options -cpp -mtune=generic -march=x86-64 -g -O0 -fpre-include=/usr/include/finclude/math-vector-fortran.h
REM seed 406248194 -955139208 -1049945210 1451113183 1694356091 450787360 -1645257500 1698545976 -703046069 2124264009 -2093398309 -1512272302 452336618 1602857970 704236461 489890862 462918204 240363298 796649713 -1585793001 1703597755 119284165 -98796903 1476119902 -390521167 -1888065198 -900491714 1417331811 1203874346 -1454393656 -1330146862 998252460 -708047568
REM
CELL 1.54180   50.00000   50.00000   50.00000   90.00000   90.00000   90.00000
LATT -1
SFAC C  
C      1  0.5404370000000  0.4350130000000  0.4928840000000 1.0
C      1  0.5723730000000  0.4591460000000  0.5477180000000 1.0
C      1  0.4453630000000  0.5523940000000  0.4897010000000 1.0
C      1  0.5235300000000  0.5172110000000  0.5366200000000 1.0
C      1  0.4621230000000  0.5715380000000  0.4975910000000 1.0
C      1  0.4880970000000  0.4919250000000  0.4266000000000 1.0
C      1  0.4950000000000  0.5193020000000  0.5332620000000 1.0
C      1  0.5135300000000  0.5170840000000  0.4730520000000 1.0
C      1  0.4464710000000  0.4586060000000  0.5038760000000 1.0
C      1  0.5390020000000  0.5057540000000  0.4649270000000 1.0
C      1  0.4340150000000  0.4859830000000  0.5421670000000 1.0
C      1  0.4356600000000  0.5342380000000  0.5434530000000 1.0
C      1  0.4282250000000  0.5245540000000  0.4535210000000 1.0
C      1  0.4696590000000  0.5145190000000  0.4244890000000 1.0
C      1  0.5064660000000  0.5874030000000  0.5202710000000 1.0
C      1  0.5587470000000  0.4258430000000  0.5123000000000 1.0
C      1  0.5667580000000  0.5349550000000  0.4404680000000 1.0
C      1  0.5022160000000  0.4583100000000  0.5429870000000 1.0
C      1  0.4683810000000  0.5649480000000  0.5699660000000 1.0
C      1  0.4311540000000  0.4794360000000  0.4914700000000 1.0
C      1  0.5617050000000  0.5262270000000  0.4669700000000 1.0
C      1  0.4529810000000  0.4682850000000  0.5307830000000 1.0
C      1  0.4483660000000  0.3845100000000  0.5481630000000 1.0
C      1  0.4873370000000  0.5037090000000  0.5783890000000 1.0
C      1  0.4744570000000  0.4227080000000  0.5208970000000 1.0
C      1  0.4285940000000  0.5108430000000  0.5288410000000 1.0
C      1  0.5220250000000  0.4763920000000  0.5099150000000 1.0
C      1  0.4457610000000  0.5077350000000  0.4393210000000 1.0
C      1  0.4927910000000  0.5038810000000  0.4877890000000 1.0
C      1  0.5447120000000  0.5579850000000  0.5200780000000 1.0
C      1  0.5277080000000  0.4667580000000  0.4223080000000 1.0
C      1  0.4937480000000  0.5734990000000  0.5741390000000 1.0
C      1  0.4756410000000  0.4701470000000  0.4423580000000 1.0
C      1  0.4488130000000  0.4795560000000  0.4459210000000 1.0
C      1  0.4895150000000  0.4396310000000  0.4797480000000 1.0
C      1  0.4612670000000  0.4027720000000  0.5347790000000 1.0
C      1  0.5155980000000  0.4921010000000  0.4180970000000 1.0
C      1  0.5334000000000  0.5585640000000  0.4932590000000 1.0
C      1  0.4790580000000  0.5213040000000  0.5573480000000 1.0
C      1  0.4806620000000  0.5364540000000  0.4109050000000 1.0
C      1  0.5143200000000  0.4946620000000  0.5769710000000 1.0
C      1  0.5013720000000  0.4338560000000  0.5260840000000 1.0
C      1  0.5521620000000  0.5276220000000  0.4187370000000 1.0
C      1  0.4829650000000  0.5846890000000  0.5077790000000 1.0
C      1  0.4282440000000  0.5072190000000  0.4999100000000 1.0
C      1  0.5566050000000  0.4812480000000  0.5532820000000 1.0
C      1  0.5678630000000  0.5134060000000  0.5447020000000 1.0
C      1  0.5124790000000  0.4340950000000  0.4981310000000 1.0
C      1  0.5228170000000  0.4720370000000  0.5604610000000 1.0
C      1  0.5265130000000  0.5742330000000  0.5361810000000 1.0
C      1  0.5160200000000  0.5450590000000  0.4776650000000 1.0
C      1  0.4070680000000  0.5366720000000  0.4411540000000 1.0
C      1  0.5501280000000  0.4553150000000  0.4756320000000 1.0
C      1  0.5704740000000  0.5234330000000  0.4958810000000 1.0
C      1  0.5068120000000  0.5371260000000  0.4035460000000 1.0
C      1  0.5605680000000  0.4963860000000  0.5018730000000 1.0
C      1  0.4588670000000  0.5410690000000  0.5582930000000 1.0
C      1  0.5185620000000  0.5731330000000  0.5632580000000 1.0
C      1  0.5294000000000  0.5166210000000  0.5648980000000 1.0
C      1  0.4804380000000  0.4756180000000  0.5315620000000 1.0
C      1  0.5365810000000  0.4981110000000  0.5183970000000 1.0
C      1  0.4857730000000  0.4995160000000  0.5151440000000 1.0
C      1  0.4924800000000  0.4500490000000  0.4533370000000 1.0
C      1  0.5267060000000  0.5179640000000  0.4108770000000 1.0
C      1  0.5164960000000  0.4472510000000  0.4378990000000 1.0
C      1  0.4330010000000  0.5284910000000  0.4814850000000 1.0
C      1  0.5719770000000  0.4368520000000  0.5328810000000 1.0
C      1  0.5651760000000  0.5364440000000  0.5227570000000 1.0
C      1  0.5519610000000  0.4829940000000  0.4773000000000 1.0
C      1  0.4648270000000  0.4376060000000  0.4965940000000 1.0
END
