TITL C-612600-6631-1401 2536.3197553751 125000 -1130.06572686094 0 0 183 (C1) n - 1
REM
REM in /home/nfs/bkarasulu/CARBON/AIRSS/Generating-Clusters/TERSOFF/Only-C1/FIRE-HFTN
REM
REM
REM
REM
REM
REM ./C.cell (11c1c37f851c82e70ff6c80c92926a4b)
REM AIRSS Version 0.9.1 bugfix July 2018 build 013d7b7c2542+ Fri, 06 Jul 2018 19:26:36 +0100
REM compiler GCC version 9.2.1 20190827 (Red Hat 9.2.1-1)
REM options -cpp -mtune=generic -march=x86-64 -g -O0 -fpre-include=/usr/include/finclude/math-vector-fortran.h
REM seed 604913928 -1794279173 -1756397324 -17129445 -1897274884 -1299500811 1385961400 -42949200 -1247218716 -127465631 -1879775586 1932417087 -342240412 1354329328 -1801861862 1444934432 1035280880 1622394777 -1788060287 -1499290509 1419672430 1824553945 1496199361 -1858640843 1812525487 1532954769 -287705503 1231839920 2072583098 -1913317059 -1871163008 -1986041425 -207502584
REM
CELL 1.54180   50.00000   50.00000   50.00000   90.00000   90.00000   90.00000
LATT -1
SFAC C  
C      1  0.4596940000000  0.5709860000000  0.3918000000000 1.0
C      1  0.5607600000000  0.4506860000000  0.4481690000000 1.0
C      1  0.5289340000000  0.4512900000000  0.5407740000000 1.0
C      1  0.4738840000000  0.4425120000000  0.5255240000000 1.0
C      1  0.5496880000000  0.5288570000000  0.4062670000000 1.0
C      1  0.4787560000000  0.5306750000000  0.3739170000000 1.0
C      1  0.5069150000000  0.6105920000000  0.4784280000000 1.0
C      1  0.4395350000000  0.3937490000000  0.4756880000000 1.0
C      1  0.6002730000000  0.4991510000000  0.5567790000000 1.0
C      1  0.4278740000000  0.4995580000000  0.5102860000000 1.0
C      1  0.3975200000000  0.4751280000000  0.4661960000000 1.0
C      1  0.5294830000000  0.4152070000000  0.5992480000000 1.0
C      1  0.5564550000000  0.5201430000000  0.5014640000000 1.0
C      1  0.4201260000000  0.5239060000000  0.4033420000000 1.0
C      1  0.5497170000000  0.5800870000000  0.5852720000000 1.0
C      1  0.5482340000000  0.5644130000000  0.5163760000000 1.0
C      1  0.4833010000000  0.5558110000000  0.3884690000000 1.0
C      1  0.4747150000000  0.5522710000000  0.5121890000000 1.0
C      1  0.5645220000000  0.4069330000000  0.5483340000000 1.0
C      1  0.5604700000000  0.4562550000000  0.5942360000000 1.0
C      1  0.4578170000000  0.5465660000000  0.6048130000000 1.0
C      1  0.5068050000000  0.5426880000000  0.4489800000000 1.0
C      1  0.3861160000000  0.4616680000000  0.4898570000000 1.0
C      1  0.5840460000000  0.5447730000000  0.5553030000000 1.0
C      1  0.4949910000000  0.4078260000000  0.4375730000000 1.0
C      1  0.5835240000000  0.4951430000000  0.4313240000000 1.0
C      1  0.6012250000000  0.5346020000000  0.4550690000000 1.0
C      1  0.5089340000000  0.4419540000000  0.4664450000000 1.0
C      1  0.4545410000000  0.4376230000000  0.4810370000000 1.0
C      1  0.5840070000000  0.5726090000000  0.5478020000000 1.0
C      1  0.4121800000000  0.4308330000000  0.4561820000000 1.0
C      1  0.4381640000000  0.5082210000000  0.4188950000000 1.0
C      1  0.4772350000000  0.4823770000000  0.4685650000000 1.0
C      1  0.5546000000000  0.5409420000000  0.4587290000000 1.0
C      1  0.4325660000000  0.5916710000000  0.4278300000000 1.0
C      1  0.5543180000000  0.4641080000000  0.4741610000000 1.0
C      1  0.4869820000000  0.4542920000000  0.6088030000000 1.0
C      1  0.6154140000000  0.4853400000000  0.4653030000000 1.0
C      1  0.6029580000000  0.5060120000000  0.4496930000000 1.0
C      1  0.4105200000000  0.4657980000000  0.3907950000000 1.0
C      1  0.5256710000000  0.6048170000000  0.4574520000000 1.0
C      1  0.5608240000000  0.4062140000000  0.4866700000000 1.0
C      1  0.4539790000000  0.3922610000000  0.5018310000000 1.0
C      1  0.4760710000000  0.6077420000000  0.5169220000000 1.0
C      1  0.5448300000000  0.4360740000000  0.6067110000000 1.0
C      1  0.4939040000000  0.4641780000000  0.4584390000000 1.0
C      1  0.5078790000000  0.5088510000000  0.5774370000000 1.0
C      1  0.4130280000000  0.5191840000000  0.6128920000000 1.0
C      1  0.4768980000000  0.5943040000000  0.5435780000000 1.0
C      1  0.4560010000000  0.4638520000000  0.5298210000000 1.0
C      1  0.4470470000000  0.4173640000000  0.5511420000000 1.0
C      1  0.5341320000000  0.4381880000000  0.4062990000000 1.0
C      1  0.5353050000000  0.5525840000000  0.4405600000000 1.0
C      1  0.4146530000000  0.5814500000000  0.4480060000000 1.0
C      1  0.3819430000000  0.5236940000000  0.4686020000000 1.0
C      1  0.3907430000000  0.5725170000000  0.4887920000000 1.0
C      1  0.5468070000000  0.3966500000000  0.5308660000000 1.0
C      1  0.4525370000000  0.4840630000000  0.4186850000000 1.0
C      1  0.5231280000000  0.4840950000000  0.4201280000000 1.0
C      1  0.6049440000000  0.5284970000000  0.5047000000000 1.0
C      1  0.5026910000000  0.4304830000000  0.4908200000000 1.0
C      1  0.4870440000000  0.3886190000000  0.4880390000000 1.0
C      1  0.4370660000000  0.4065270000000  0.5247120000000 1.0
C      1  0.6065990000000  0.4361120000000  0.4892360000000 1.0
C      1  0.4663560000000  0.5077860000000  0.3645860000000 1.0
C      1  0.5020310000000  0.4546170000000  0.5846260000000 1.0
C      1  0.5778520000000  0.4888620000000  0.5426470000000 1.0
C      1  0.4245510000000  0.5135830000000  0.4858810000000 1.0
C      1  0.5520710000000  0.5939640000000  0.4555500000000 1.0
C      1  0.5077370000000  0.5654380000000  0.4029160000000 1.0
C      1  0.5717940000000  0.5798380000000  0.4735280000000 1.0
C      1  0.6103120000000  0.5543480000000  0.5110360000000 1.0
C      1  0.4632880000000  0.5848650000000  0.5669080000000 1.0
C      1  0.3994360000000  0.4412690000000  0.5048330000000 1.0
C      1  0.5846670000000  0.4186740000000  0.4829960000000 1.0
C      1  0.4563830000000  0.4799710000000  0.3674420000000 1.0
C      1  0.5838170000000  0.4266310000000  0.5550130000000 1.0
C      1  0.4818950000000  0.5846320000000  0.4468260000000 1.0
C      1  0.4740950000000  0.4640540000000  0.3853400000000 1.0
C      1  0.5048530000000  0.5891940000000  0.4305040000000 1.0
C      1  0.5727410000000  0.5080710000000  0.6297310000000 1.0
C      1  0.5790450000000  0.4453580000000  0.5756820000000 1.0
C      1  0.5413910000000  0.5328670000000  0.4817850000000 1.0
C      1  0.4710700000000  0.5674530000000  0.5884690000000 1.0
C      1  0.5054320000000  0.6133180000000  0.5077500000000 1.0
C      1  0.4356750000000  0.5732820000000  0.4055690000000 1.0
C      1  0.4397910000000  0.5821330000000  0.4924450000000 1.0
C      1  0.5565850000000  0.5319680000000  0.5899790000000 1.0
C      1  0.4795790000000  0.6020970000000  0.4696600000000 1.0
C      1  0.5834250000000  0.5104080000000  0.5021170000000 1.0
C      1  0.4783270000000  0.4843840000000  0.4062360000000 1.0
C      1  0.4156050000000  0.5516180000000  0.4087200000000 1.0
C      1  0.5221450000000  0.6044190000000  0.5305400000000 1.0
C      1  0.5559420000000  0.5325420000000  0.5589310000000 1.0
C      1  0.5483320000000  0.5766880000000  0.4323960000000 1.0
C      1  0.4380600000000  0.4461950000000  0.5970490000000 1.0
C      1  0.5794730000000  0.4663730000000  0.4325090000000 1.0
C      1  0.4756550000000  0.4219950000000  0.5457450000000 1.0
C      1  0.5315080000000  0.5481960000000  0.3977570000000 1.0
C      1  0.5036720000000  0.4793620000000  0.6480980000000 1.0
C      1  0.6204220000000  0.4305740000000  0.5138100000000 1.0
C      1  0.5334790000000  0.4658530000000  0.4015350000000 1.0
C      1  0.4301880000000  0.4739380000000  0.6039910000000 1.0
C      1  0.5098060000000  0.5570550000000  0.5436670000000 1.0
C      1  0.4724290000000  0.4903230000000  0.4947180000000 1.0
C      1  0.4611320000000  0.6011970000000  0.4923200000000 1.0
C      1  0.4100330000000  0.4920270000000  0.6121860000000 1.0
C      1  0.4421940000000  0.5360740000000  0.4820460000000 1.0
C      1  0.5473000000000  0.6069390000000  0.5433880000000 1.0
C      1  0.5517420000000  0.4839470000000  0.5928050000000 1.0
C      1  0.5636310000000  0.4632570000000  0.5017200000000 1.0
C      1  0.6139930000000  0.4600630000000  0.4752230000000 1.0
C      1  0.5608650000000  0.5079620000000  0.6051700000000 1.0
C      1  0.4768370000000  0.4369410000000  0.4987760000000 1.0
C      1  0.4151840000000  0.5818010000000  0.4765380000000 1.0
C      1  0.4389160000000  0.4412670000000  0.5682290000000 1.0
C      1  0.4953230000000  0.4089860000000  0.5606360000000 1.0
C      1  0.5022090000000  0.5312190000000  0.5952780000000 1.0
C      1  0.4009800000000  0.5601960000000  0.4326570000000 1.0
C      1  0.4877560000000  0.5126870000000  0.5348420000000 1.0
C      1  0.5193580000000  0.4638050000000  0.5640120000000 1.0
C      1  0.4549610000000  0.3815220000000  0.4549120000000 1.0
C      1  0.4627390000000  0.4389300000000  0.6101200000000 1.0
C      1  0.5002600000000  0.5605780000000  0.5905540000000 1.0
C      1  0.4848350000000  0.5015540000000  0.5605690000000 1.0
C      1  0.4719800000000  0.4990760000000  0.6157690000000 1.0
C      1  0.4883890000000  0.4778440000000  0.6256220000000 1.0
C      1  0.4340700000000  0.4211830000000  0.4702510000000 1.0
C      1  0.4307860000000  0.5393290000000  0.6091700000000 1.0
C      1  0.4793540000000  0.5570860000000  0.4520430000000 1.0
C      1  0.5045740000000  0.5851670000000  0.5437620000000 1.0
C      1  0.5386370000000  0.3994330000000  0.5037750000000 1.0
C      1  0.4489110000000  0.5245690000000  0.4380200000000 1.0
C      1  0.4048590000000  0.4560480000000  0.4448760000000 1.0
C      1  0.5628860000000  0.5895250000000  0.5604640000000 1.0
C      1  0.5380950000000  0.4954070000000  0.4417850000000 1.0
C      1  0.4995330000000  0.4977310000000  0.4163830000000 1.0
C      1  0.5204140000000  0.4943330000000  0.5012150000000 1.0
C      1  0.5502400000000  0.5032120000000  0.5479490000000 1.0
C      1  0.4502930000000  0.4829680000000  0.5104680000000 1.0
C      1  0.3793230000000  0.5484790000000  0.4789260000000 1.0
C      1  0.4282000000000  0.4738130000000  0.3710720000000 1.0
C      1  0.4487300000000  0.5558600000000  0.5013030000000 1.0
C      1  0.4984530000000  0.5212990000000  0.4305470000000 1.0
C      1  0.5460680000000  0.4507330000000  0.5202330000000 1.0
C      1  0.4875680000000  0.5409620000000  0.5348080000000 1.0
C      1  0.5321570000000  0.4905440000000  0.5702490000000 1.0
C      1  0.4483090000000  0.4664690000000  0.5560930000000 1.0
C      1  0.6058410000000  0.4294410000000  0.5378100000000 1.0
C      1  0.5124040000000  0.4053710000000  0.5809910000000 1.0
C      1  0.5179580000000  0.4235360000000  0.4474370000000 1.0
C      1  0.4829430000000  0.3890490000000  0.4571030000000 1.0
C      1  0.5108400000000  0.4034430000000  0.4966650000000 1.0
C      1  0.5924810000000  0.5748910000000  0.5198970000000 1.0
C      1  0.4156040000000  0.4576880000000  0.4181810000000 1.0
C      1  0.4446130000000  0.4555110000000  0.4192220000000 1.0
C      1  0.4614740000000  0.4876640000000  0.5699450000000 1.0
C      1  0.3790090000000  0.5865370000000  0.5091110000000 1.0
C      1  0.4862170000000  0.4207920000000  0.4113910000000 1.0
C      1  0.5615230000000  0.5584430000000  0.5996040000000 1.0
C      1  0.5134430000000  0.5388200000000  0.4783420000000 1.0
C      1  0.5214030000000  0.5794720000000  0.5892670000000 1.0
C      1  0.4782720000000  0.5262630000000  0.6116910000000 1.0
C      1  0.4132090000000  0.4207120000000  0.5157190000000 1.0
C      1  0.5372360000000  0.5506280000000  0.5396170000000 1.0
C      1  0.4112210000000  0.5035390000000  0.5314990000000 1.0
C      1  0.5356160000000  0.4860810000000  0.4701080000000 1.0
C      1  0.5415590000000  0.4326200000000  0.4338910000000 1.0
C      1  0.5395220000000  0.5051330000000  0.5192710000000 1.0
C      1  0.5810880000000  0.4834490000000  0.5137870000000 1.0
C      1  0.4963570000000  0.5537780000000  0.4941190000000 1.0
C      1  0.4569490000000  0.5405640000000  0.4582430000000 1.0
C      1  0.6045330000000  0.5257780000000  0.5601930000000 1.0
C      1  0.6474310000000  0.4261620000000  0.5137000000000 1.0
C      1  0.4533790000000  0.4897200000000  0.5967400000000 1.0
C      1  0.5114600000000  0.4235440000000  0.3965240000000 1.0
C      1  0.5803340000000  0.5533810000000  0.4613410000000 1.0
C      1  0.4941100000000  0.4989680000000  0.5101440000000 1.0
C      1  0.5696330000000  0.5779700000000  0.5023450000000 1.0
C      1  0.3606590000000  0.4688320000000  0.4975570000000 1.0
C      1  0.4656320000000  0.4407900000000  0.4036340000000 1.0
C      1  0.5592690000000  0.5096870000000  0.4263920000000 1.0
C      1  0.4022620000000  0.5039520000000  0.4699800000000 1.0
END
