TITL C-612601-4209-1193 50.4758144462881 125000 -1191.41428136275 0 0 193 (C1) n - 1
REM
REM in /home/nfs/bkarasulu/CARBON/AIRSS/Generating-Clusters/TERSOFF/Only-C1/FIRE-HFTN
REM
REM
REM
REM
REM
REM ./C.cell (11c1c37f851c82e70ff6c80c92926a4b)
REM AIRSS Version 0.9.1 bugfix July 2018 build 013d7b7c2542+ Fri, 06 Jul 2018 19:26:36 +0100
REM compiler GCC version 9.2.1 20190827 (Red Hat 9.2.1-1)
REM options -cpp -mtune=generic -march=x86-64 -g -O0 -fpre-include=/usr/include/finclude/math-vector-fortran.h
REM seed 381979809 1005480947 1227671268 1554706937 -2085187704 -1359534782 -995169916 357146629 -458421403 -489212400 219847398 1512583157 -1275073668 211043966 1951872843 -935041674 -765694255 -1530904251 -2109049835 -1416985849 -2009113289 -1591890800 1293138087 -1809579080 1166089689 105920190 -1166841312 -1854512450 741650507 -417537567 -626203585 -265058809 -1074299166
REM
CELL 1.54180   50.00000   50.00000   50.00000   90.00000   90.00000   90.00000
LATT -1
SFAC C  
C      1  0.6713280000000  0.5926840000000  0.4547520000000 1.0
C      1  0.5940490000000  0.5138110000000  0.4761790000000 1.0
C      1  0.3873740000000  0.5057840000000  0.5017080000000 1.0
C      1  0.4293540000000  0.5918320000000  0.5136590000000 1.0
C      1  0.5394340000000  0.5177290000000  0.4665700000000 1.0
C      1  0.5749280000000  0.5844030000000  0.4793840000000 1.0
C      1  0.5217560000000  0.5987360000000  0.5286790000000 1.0
C      1  0.5199530000000  0.4493120000000  0.4909810000000 1.0
C      1  0.5161000000000  0.4502750000000  0.5192250000000 1.0
C      1  0.3932080000000  0.4844860000000  0.5470440000000 1.0
C      1  0.4967910000000  0.4694330000000  0.3779990000000 1.0
C      1  0.4449150000000  0.4705540000000  0.4819030000000 1.0
C      1  0.4628180000000  0.5363010000000  0.3775940000000 1.0
C      1  0.6490270000000  0.5797010000000  0.4583980000000 1.0
C      1  0.4785030000000  0.5110790000000  0.6177010000000 1.0
C      1  0.5666140000000  0.4390150000000  0.5349320000000 1.0
C      1  0.5669910000000  0.4845980000000  0.3914100000000 1.0
C      1  0.5128990000000  0.5604440000000  0.5946750000000 1.0
C      1  0.4846490000000  0.4845590000000  0.5090840000000 1.0
C      1  0.5135120000000  0.3959650000000  0.4337310000000 1.0
C      1  0.4283080000000  0.5969380000000  0.4398970000000 1.0
C      1  0.6035780000000  0.4182890000000  0.4415380000000 1.0
C      1  0.4898810000000  0.4978250000000  0.5347950000000 1.0
C      1  0.6052730000000  0.4731520000000  0.4937710000000 1.0
C      1  0.5558070000000  0.5388200000000  0.4804220000000 1.0
C      1  0.4701250000000  0.4594940000000  0.4333770000000 1.0
C      1  0.5604810000000  0.5159110000000  0.5620310000000 1.0
C      1  0.4184090000000  0.5129320000000  0.4531180000000 1.0
C      1  0.4434710000000  0.4538730000000  0.4255830000000 1.0
C      1  0.4343230000000  0.4745830000000  0.6193820000000 1.0
C      1  0.5258020000000  0.4176090000000  0.5736420000000 1.0
C      1  0.5571190000000  0.4695730000000  0.4136020000000 1.0
C      1  0.4129400000000  0.5739600000000  0.4324720000000 1.0
C      1  0.5403350000000  0.4848100000000  0.4305300000000 1.0
C      1  0.5028620000000  0.5136090000000  0.4343020000000 1.0
C      1  0.4913750000000  0.4438100000000  0.3891970000000 1.0
C      1  0.4692260000000  0.5473710000000  0.5284860000000 1.0
C      1  0.4738700000000  0.4287030000000  0.5123100000000 1.0
C      1  0.5023960000000  0.4995370000000  0.6272050000000 1.0
C      1  0.4991440000000  0.4787060000000  0.5547460000000 1.0
C      1  0.4690060000000  0.5333070000000  0.6029440000000 1.0
C      1  0.5389810000000  0.5810900000000  0.5436490000000 1.0
C      1  0.4523200000000  0.3706350000000  0.4185140000000 1.0
C      1  0.5707280000000  0.5113830000000  0.3874940000000 1.0
C      1  0.3981640000000  0.5551630000000  0.4451220000000 1.0
C      1  0.4899150000000  0.5590590000000  0.4188410000000 1.0
C      1  0.4575740000000  0.5979770000000  0.4369820000000 1.0
C      1  0.4952450000000  0.6235700000000  0.4647420000000 1.0
C      1  0.3904340000000  0.5573590000000  0.5058470000000 1.0
C      1  0.4595390000000  0.3866970000000  0.4632930000000 1.0
C      1  0.4458880000000  0.5561750000000  0.5412830000000 1.0
C      1  0.6162020000000  0.4966440000000  0.4813100000000 1.0
C      1  0.5141920000000  0.6205490000000  0.4838650000000 1.0
C      1  0.4866360000000  0.5261090000000  0.5287770000000 1.0
C      1  0.4141770000000  0.4144490000000  0.4742160000000 1.0
C      1  0.5182830000000  0.4743460000000  0.6210350000000 1.0
C      1  0.5625890000000  0.4679390000000  0.6009950000000 1.0
C      1  0.3899320000000  0.4585600000000  0.5589740000000 1.0
C      1  0.4680990000000  0.5623790000000  0.4642500000000 1.0
C      1  0.5690050000000  0.4472960000000  0.4258170000000 1.0
C      1  0.4980000000000  0.4299370000000  0.5279210000000 1.0
C      1  0.4509340000000  0.4668050000000  0.5601370000000 1.0
C      1  0.5319830000000  0.5342840000000  0.5272490000000 1.0
C      1  0.6252510000000  0.5654710000000  0.4623760000000 1.0
C      1  0.4788370000000  0.3751140000000  0.4816930000000 1.0
C      1  0.4207370000000  0.4953440000000  0.6091230000000 1.0
C      1  0.4517270000000  0.4461030000000  0.4735380000000 1.0
C      1  0.3618420000000  0.5539130000000  0.5517610000000 1.0
C      1  0.4383010000000  0.4886540000000  0.5483100000000 1.0
C      1  0.4844920000000  0.5581850000000  0.5954400000000 1.0
C      1  0.4625910000000  0.5333060000000  0.4703630000000 1.0
C      1  0.4930600000000  0.5298390000000  0.4131170000000 1.0
C      1  0.4173200000000  0.4360940000000  0.5246190000000 1.0
C      1  0.4746390000000  0.6185050000000  0.4477360000000 1.0
C      1  0.4432140000000  0.5429470000000  0.3951400000000 1.0
C      1  0.5596250000000  0.6033730000000  0.4948060000000 1.0
C      1  0.5324220000000  0.6096130000000  0.5032670000000 1.0
C      1  0.3978440000000  0.6003710000000  0.4798350000000 1.0
C      1  0.5255330000000  0.5449640000000  0.5745910000000 1.0
C      1  0.4734130000000  0.4504730000000  0.5947220000000 1.0
C      1  0.5319290000000  0.5756320000000  0.6100390000000 1.0
C      1  0.4658460000000  0.3876940000000  0.4353560000000 1.0
C      1  0.5976570000000  0.5264900000000  0.4502560000000 1.0
C      1  0.4828400000000  0.4235020000000  0.5909760000000 1.0
C      1  0.4287810000000  0.4834500000000  0.3919380000000 1.0
C      1  0.4785890000000  0.4912860000000  0.3810210000000 1.0
C      1  0.5588120000000  0.4926340000000  0.5202110000000 1.0
C      1  0.5160980000000  0.3792270000000  0.5127350000000 1.0
C      1  0.4955930000000  0.4633970000000  0.4461370000000 1.0
C      1  0.5568600000000  0.5566540000000  0.4075570000000 1.0
C      1  0.6026600000000  0.5796050000000  0.4737970000000 1.0
C      1  0.6112610000000  0.4690760000000  0.5211900000000 1.0
C      1  0.5229540000000  0.4636730000000  0.5443460000000 1.0
C      1  0.4437520000000  0.5322420000000  0.5875090000000 1.0
C      1  0.4008710000000  0.4372580000000  0.4819250000000 1.0
C      1  0.5754360000000  0.5704880000000  0.5779590000000 1.0
C      1  0.5429100000000  0.5238040000000  0.5827400000000 1.0
C      1  0.6040350000000  0.4964990000000  0.5593060000000 1.0
C      1  0.3909980000000  0.5323650000000  0.4898220000000 1.0
C      1  0.4674040000000  0.5807050000000  0.4863550000000 1.0
C      1  0.4022080000000  0.4533590000000  0.5059980000000 1.0
C      1  0.4830450000000  0.5189630000000  0.3881690000000 1.0
C      1  0.4328700000000  0.4285180000000  0.4205750000000 1.0
C      1  0.4898360000000  0.3759920000000  0.5284000000000 1.0
C      1  0.5143030000000  0.5586440000000  0.4659140000000 1.0
C      1  0.5886200000000  0.5200830000000  0.5657420000000 1.0
C      1  0.4127650000000  0.6109310000000  0.4595170000000 1.0
C      1  0.4883440000000  0.4022410000000  0.4245010000000 1.0
C      1  0.4443770000000  0.5242130000000  0.4469180000000 1.0
C      1  0.5720960000000  0.3897010000000  0.4813580000000 1.0
C      1  0.5161630000000  0.4464400000000  0.6157140000000 1.0
C      1  0.5031960000000  0.4918200000000  0.4886200000000 1.0
C      1  0.4459750000000  0.4185440000000  0.5237310000000 1.0
C      1  0.5756980000000  0.3652030000000  0.4732240000000 1.0
C      1  0.4774280000000  0.4675000000000  0.5713160000000 1.0
C      1  0.4687710000000  0.5739980000000  0.5762540000000 1.0
C      1  0.4551180000000  0.4583970000000  0.6145260000000 1.0
C      1  0.5485540000000  0.4546510000000  0.5537240000000 1.0
C      1  0.3743070000000  0.5562630000000  0.5289970000000 1.0
C      1  0.5187050000000  0.4725520000000  0.3618370000000 1.0
C      1  0.5444080000000  0.4847200000000  0.6127910000000 1.0
C      1  0.5762390000000  0.5218560000000  0.4328420000000 1.0
C      1  0.5337730000000  0.3992600000000  0.5257100000000 1.0
C      1  0.5245040000000  0.5908380000000  0.6314630000000 1.0
C      1  0.4154480000000  0.4112330000000  0.4116700000000 1.0
C      1  0.5566020000000  0.4171230000000  0.5183340000000 1.0
C      1  0.4367960000000  0.4417030000000  0.5638000000000 1.0
C      1  0.5646240000000  0.5847240000000  0.5554050000000 1.0
C      1  0.3928360000000  0.4814210000000  0.5167060000000 1.0
C      1  0.4260470000000  0.4753320000000  0.4186920000000 1.0
C      1  0.5322730000000  0.4922970000000  0.4827400000000 1.0
C      1  0.4462560000000  0.5543420000000  0.5697420000000 1.0
C      1  0.4676320000000  0.3758070000000  0.5096230000000 1.0
C      1  0.4994880000000  0.4471870000000  0.4712040000000 1.0
C      1  0.4510790000000  0.4852750000000  0.3771000000000 1.0
C      1  0.4125040000000  0.4896700000000  0.4386210000000 1.0
C      1  0.5501200000000  0.5137840000000  0.5356180000000 1.0
C      1  0.4939390000000  0.5198060000000  0.4819060000000 1.0
C      1  0.4434920000000  0.5851910000000  0.5372620000000 1.0
C      1  0.4149730000000  0.4995160000000  0.5611240000000 1.0
C      1  0.4106070000000  0.4407070000000  0.5526920000000 1.0
C      1  0.5593420000000  0.5739410000000  0.6014720000000 1.0
C      1  0.5110580000000  0.4257680000000  0.5965140000000 1.0
C      1  0.4228940000000  0.5120080000000  0.5862760000000 1.0
C      1  0.6373990000000  0.5137330000000  0.4692710000000 1.0
C      1  0.4360890000000  0.3966660000000  0.4791420000000 1.0
C      1  0.4436240000000  0.5358740000000  0.4211310000000 1.0
C      1  0.4411920000000  0.4962030000000  0.5220060000000 1.0
C      1  0.4908540000000  0.3911440000000  0.5530510000000 1.0
C      1  0.6246040000000  0.5375160000000  0.4547850000000 1.0
C      1  0.4570310000000  0.4821800000000  0.5039990000000 1.0
C      1  0.4852750000000  0.5741800000000  0.5086760000000 1.0
C      1  0.4512590000000  0.4180120000000  0.5547790000000 1.0
C      1  0.5088370000000  0.5941510000000  0.3902200000000 1.0
C      1  0.5118450000000  0.4854120000000  0.4348000000000 1.0
C      1  0.5084000000000  0.5616390000000  0.4947770000000 1.0
C      1  0.5818870000000  0.4341690000000  0.4472220000000 1.0
C      1  0.5362870000000  0.5702220000000  0.4511500000000 1.0
C      1  0.4756320000000  0.4355690000000  0.4836760000000 1.0
C      1  0.5139590000000  0.4105710000000  0.5468640000000 1.0
C      1  0.5927760000000  0.5474950000000  0.5738690000000 1.0
C      1  0.5078330000000  0.5340620000000  0.5077170000000 1.0
C      1  0.5291220000000  0.5545780000000  0.5478190000000 1.0
C      1  0.5780530000000  0.5282420000000  0.4933940000000 1.0
C      1  0.4927210000000  0.5931040000000  0.5314390000000 1.0
C      1  0.4324590000000  0.5206150000000  0.5126580000000 1.0
C      1  0.5074930000000  0.3750280000000  0.4852870000000 1.0
C      1  0.5674670000000  0.4154820000000  0.4914880000000 1.0
C      1  0.4042630000000  0.5829530000000  0.5017220000000 1.0
C      1  0.5366990000000  0.5700690000000  0.4225570000000 1.0
C      1  0.5117540000000  0.5753030000000  0.4097160000000 1.0
C      1  0.5433370000000  0.5132010000000  0.6089410000000 1.0
C      1  0.5555680000000  0.4805990000000  0.4951520000000 1.0
C      1  0.5711290000000  0.5322370000000  0.4069080000000 1.0
C      1  0.6451630000000  0.5048600000000  0.5323640000000 1.0
C      1  0.3996980000000  0.5326890000000  0.4623570000000 1.0
C      1  0.5915590000000  0.4700470000000  0.5626720000000 1.0
C      1  0.6217600000000  0.4917160000000  0.5367530000000 1.0
C      1  0.4438660000000  0.3927240000000  0.5077910000000 1.0
C      1  0.4726010000000  0.4067090000000  0.5693460000000 1.0
C      1  0.5745020000000  0.4382090000000  0.4748200000000 1.0
C      1  0.5930990000000  0.4532670000000  0.5376710000000 1.0
C      1  0.4701720000000  0.5929720000000  0.5512530000000 1.0
C      1  0.4434140000000  0.5338840000000  0.4926430000000 1.0
C      1  0.4476560000000  0.5990960000000  0.4931820000000 1.0
C      1  0.4711940000000  0.5719220000000  0.4373650000000 1.0
C      1  0.5779680000000  0.4643720000000  0.4859500000000 1.0
C      1  0.5580610000000  0.5646100000000  0.4683660000000 1.0
C      1  0.4869630000000  0.4215330000000  0.4036380000000 1.0
C      1  0.5115650000000  0.5286420000000  0.4589610000000 1.0
C      1  0.5233390000000  0.5201420000000  0.6283640000000 1.0
C      1  0.5539090000000  0.5069200000000  0.4428870000000 1.0
C      1  0.5664700000000  0.4640820000000  0.5741780000000 1.0
END
