TITL C-612600-6631-228 117.24786204867 125000 -910.634597414006 0 0 147 (C1) n - 1
REM
REM in /home/nfs/bkarasulu/CARBON/AIRSS/Generating-Clusters/TERSOFF/Only-C1/FIRE-HFTN
REM
REM
REM
REM
REM
REM ./C.cell (11c1c37f851c82e70ff6c80c92926a4b)
REM AIRSS Version 0.9.1 bugfix July 2018 build 013d7b7c2542+ Fri, 06 Jul 2018 19:26:36 +0100
REM compiler GCC version 9.2.1 20190827 (Red Hat 9.2.1-1)
REM options -cpp -mtune=generic -march=x86-64 -g -O0 -fpre-include=/usr/include/finclude/math-vector-fortran.h
REM seed 191497832 191068872 1978832500 -1666439389 -1335860036 1017826021 783787491 -816566951 1470623842 -1044361894 -1509474917 2141135952 -832057410 -1648455257 -1958932337 1370050631 944873089 86935641 1405021863 -1687347410 363508138 1505562468 -1439520938 1781526564 945352346 -303387059 717333373 -1792947164 -143982159 441612753 1714404548 983908444 -15321913
REM
CELL 1.54180   50.00000   50.00000   50.00000   90.00000   90.00000   90.00000
LATT -1
SFAC C  
C      1  0.5690690000000  0.5128600000000  0.4891040000000 1.0
C      1  0.4913800000000  0.5807000000000  0.4514120000000 1.0
C      1  0.4123480000000  0.5209220000000  0.4718050000000 1.0
C      1  0.5362280000000  0.5995490000000  0.4500490000000 1.0
C      1  0.4606180000000  0.5118170000000  0.4939580000000 1.0
C      1  0.5464400000000  0.6088940000000  0.4730960000000 1.0
C      1  0.4311750000000  0.5712840000000  0.4813510000000 1.0
C      1  0.5719660000000  0.5602630000000  0.5839080000000 1.0
C      1  0.5393310000000  0.5360940000000  0.5471210000000 1.0
C      1  0.3850960000000  0.4559720000000  0.4897100000000 1.0
C      1  0.4651310000000  0.5471830000000  0.4283450000000 1.0
C      1  0.6064710000000  0.5476030000000  0.5513720000000 1.0
C      1  0.6044610000000  0.4368040000000  0.4870720000000 1.0
C      1  0.5397400000000  0.4689720000000  0.4058770000000 1.0
C      1  0.5128000000000  0.4602470000000  0.4729810000000 1.0
C      1  0.5085850000000  0.4701800000000  0.5647610000000 1.0
C      1  0.5843600000000  0.4188730000000  0.4865960000000 1.0
C      1  0.4468900000000  0.4066860000000  0.4531600000000 1.0
C      1  0.5120080000000  0.4694490000000  0.5021590000000 1.0
C      1  0.6102870000000  0.5565640000000  0.5263050000000 1.0
C      1  0.5127240000000  0.5372750000000  0.4114050000000 1.0
C      1  0.5084500000000  0.4027450000000  0.4918330000000 1.0
C      1  0.4182320000000  0.4944990000000  0.4303180000000 1.0
C      1  0.5589160000000  0.4152760000000  0.4994520000000 1.0
C      1  0.4808680000000  0.5320330000000  0.5355510000000 1.0
C      1  0.4149800000000  0.5008600000000  0.5532800000000 1.0
C      1  0.3785740000000  0.4979630000000  0.5216860000000 1.0
C      1  0.5164480000000  0.5026260000000  0.3747590000000 1.0
C      1  0.4243540000000  0.5234450000000  0.4252590000000 1.0
C      1  0.5268740000000  0.4446690000000  0.4175500000000 1.0
C      1  0.4200070000000  0.4545840000000  0.5690370000000 1.0
C      1  0.5291470000000  0.5531350000000  0.5675450000000 1.0
C      1  0.4975680000000  0.4631950000000  0.5893440000000 1.0
C      1  0.4093180000000  0.4064110000000  0.5676360000000 1.0
C      1  0.5715270000000  0.5858910000000  0.5716780000000 1.0
C      1  0.5025920000000  0.4955810000000  0.4396290000000 1.0
C      1  0.4326750000000  0.4057760000000  0.5220270000000 1.0
C      1  0.4225270000000  0.4482680000000  0.4621310000000 1.0
C      1  0.5972070000000  0.5530730000000  0.4746370000000 1.0
C      1  0.5973030000000  0.5088450000000  0.4895440000000 1.0
C      1  0.5220050000000  0.5353570000000  0.4577200000000 1.0
C      1  0.5921500000000  0.5416370000000  0.5750530000000 1.0
C      1  0.4642620000000  0.5021920000000  0.6030820000000 1.0
C      1  0.5462590000000  0.5476440000000  0.5902230000000 1.0
C      1  0.4567330000000  0.4760570000000  0.4535130000000 1.0
C      1  0.4999090000000  0.4493810000000  0.4274250000000 1.0
C      1  0.4475470000000  0.4571560000000  0.4730370000000 1.0
C      1  0.5560100000000  0.4885140000000  0.4823750000000 1.0
C      1  0.5644280000000  0.5017660000000  0.5931830000000 1.0
C      1  0.4342040000000  0.5794630000000  0.5283730000000 1.0
C      1  0.4809640000000  0.5450260000000  0.6172760000000 1.0
C      1  0.4719140000000  0.5946410000000  0.5002060000000 1.0
C      1  0.4394300000000  0.4332910000000  0.5219900000000 1.0
C      1  0.4417090000000  0.5788270000000  0.4552480000000 1.0
C      1  0.5153810000000  0.5129000000000  0.6078600000000 1.0
C      1  0.5042360000000  0.4206640000000  0.5130470000000 1.0
C      1  0.5396310000000  0.4067270000000  0.4527970000000 1.0
C      1  0.5528180000000  0.5462730000000  0.5246940000000 1.0
C      1  0.5575920000000  0.5450350000000  0.4175380000000 1.0
C      1  0.5520730000000  0.4913380000000  0.5287220000000 1.0
C      1  0.4855980000000  0.5999430000000  0.5254380000000 1.0
C      1  0.4531520000000  0.4490960000000  0.5001020000000 1.0
C      1  0.5048550000000  0.5317940000000  0.4816090000000 1.0
C      1  0.4198370000000  0.4832210000000  0.5765040000000 1.0
C      1  0.5361790000000  0.4049440000000  0.4817100000000 1.0
C      1  0.4548100000000  0.5394010000000  0.5451210000000 1.0
C      1  0.4465610000000  0.4807510000000  0.4243400000000 1.0
C      1  0.5283380000000  0.4798540000000  0.3823940000000 1.0
C      1  0.5097410000000  0.5259950000000  0.3860780000000 1.0
C      1  0.4552550000000  0.3934180000000  0.4780520000000 1.0
C      1  0.5646350000000  0.4539370000000  0.5657480000000 1.0
C      1  0.4919870000000  0.5051340000000  0.5345670000000 1.0
C      1  0.5386840000000  0.4212690000000  0.4296000000000 1.0
C      1  0.6047520000000  0.5261630000000  0.4666800000000 1.0
C      1  0.5429960000000  0.4367120000000  0.5561790000000 1.0
C      1  0.4893470000000  0.5801920000000  0.4811820000000 1.0
C      1  0.4013750000000  0.4666620000000  0.4684720000000 1.0
C      1  0.4442890000000  0.5856190000000  0.5026580000000 1.0
C      1  0.4994360000000  0.5573050000000  0.4957800000000 1.0
C      1  0.5598570000000  0.4680140000000  0.4639970000000 1.0
C      1  0.4836120000000  0.3910200000000  0.4827720000000 1.0
C      1  0.5306090000000  0.5595350000000  0.4184470000000 1.0
C      1  0.5884580000000  0.5156680000000  0.5857380000000 1.0
C      1  0.4215850000000  0.4202280000000  0.4580470000000 1.0
C      1  0.5788210000000  0.4790150000000  0.5266270000000 1.0
C      1  0.4747260000000  0.4375340000000  0.4206040000000 1.0
C      1  0.4098720000000  0.5382880000000  0.5212780000000 1.0
C      1  0.6117480000000  0.4614090000000  0.4952000000000 1.0
C      1  0.4498240000000  0.5295240000000  0.4104690000000 1.0
C      1  0.4418330000000  0.5080250000000  0.5118910000000 1.0
C      1  0.4308140000000  0.5524500000000  0.5363360000000 1.0
C      1  0.5423900000000  0.5200690000000  0.6004470000000 1.0
C      1  0.3881360000000  0.4269850000000  0.4922550000000 1.0
C      1  0.4401420000000  0.4926690000000  0.5948850000000 1.0
C      1  0.5191030000000  0.4490450000000  0.5488580000000 1.0
C      1  0.4659030000000  0.5740190000000  0.4387610000000 1.0
C      1  0.5094230000000  0.5736520000000  0.5648090000000 1.0
C      1  0.4518940000000  0.4727520000000  0.5393850000000 1.0
C      1  0.5585300000000  0.4863780000000  0.4197960000000 1.0
C      1  0.4978610000000  0.5780990000000  0.5392800000000 1.0
C      1  0.5607380000000  0.6075410000000  0.5245480000000 1.0
C      1  0.4596710000000  0.5026150000000  0.4066220000000 1.0
C      1  0.6070450000000  0.5613790000000  0.5000070000000 1.0
C      1  0.5113840000000  0.4965810000000  0.5539760000000 1.0
C      1  0.5964900000000  0.5150970000000  0.4409530000000 1.0
C      1  0.4056490000000  0.4936510000000  0.4586620000000 1.0
C      1  0.3970220000000  0.5150900000000  0.5349090000000 1.0
C      1  0.4763570000000  0.5234290000000  0.4746010000000 1.0
C      1  0.4124240000000  0.5427380000000  0.4919380000000 1.0
C      1  0.5593300000000  0.4271110000000  0.5256320000000 1.0
C      1  0.5344420000000  0.4884030000000  0.5032990000000 1.0
C      1  0.5740780000000  0.4731910000000  0.4402710000000 1.0
C      1  0.5373310000000  0.5073110000000  0.5481330000000 1.0
C      1  0.5183240000000  0.5808780000000  0.4373860000000 1.0
C      1  0.4307000000000  0.3955350000000  0.4956640000000 1.0
C      1  0.4870210000000  0.5183170000000  0.6101070000000 1.0
C      1  0.5632010000000  0.4743530000000  0.5852390000000 1.0
C      1  0.5710460000000  0.5599980000000  0.4659240000000 1.0
C      1  0.5247820000000  0.5174370000000  0.4990310000000 1.0
C      1  0.4076300000000  0.4311740000000  0.5785180000000 1.0
C      1  0.5006150000000  0.4690630000000  0.4486440000000 1.0
C      1  0.4378780000000  0.4964160000000  0.5367070000000 1.0
C      1  0.4949880000000  0.5541830000000  0.5237700000000 1.0
C      1  0.5388710000000  0.4499770000000  0.4669130000000 1.0
C      1  0.5121280000000  0.4458860000000  0.5215390000000 1.0
C      1  0.5795620000000  0.4545400000000  0.5408750000000 1.0
C      1  0.5670760000000  0.6005760000000  0.5496350000000 1.0
C      1  0.4543360000000  0.4550660000000  0.4109610000000 1.0
C      1  0.5119680000000  0.5213780000000  0.4351480000000 1.0
C      1  0.4367280000000  0.4498220000000  0.5461780000000 1.0
C      1  0.4891010000000  0.4847080000000  0.5137100000000 1.0
C      1  0.4845890000000  0.5701270000000  0.6088560000000 1.0
C      1  0.3753550000000  0.4747350000000  0.5083930000000 1.0
C      1  0.4907720000000  0.4501590000000  0.6108920000000 1.0
C      1  0.4316840000000  0.5307540000000  0.4526500000000 1.0
C      1  0.4649640000000  0.4141920000000  0.4330650000000 1.0
C      1  0.4204620000000  0.3958420000000  0.5454140000000 1.0
C      1  0.5538810000000  0.6102980000000  0.4988050000000 1.0
C      1  0.4079540000000  0.4086730000000  0.4812850000000 1.0
C      1  0.4604820000000  0.5329120000000  0.4537880000000 1.0
C      1  0.5999320000000  0.4847910000000  0.5062680000000 1.0
C      1  0.5994760000000  0.4859590000000  0.4406820000000 1.0
C      1  0.5509820000000  0.5312900000000  0.5014080000000 1.0
C      1  0.4963250000000  0.5822580000000  0.5880880000000 1.0
C      1  0.5462310000000  0.5501570000000  0.4613700000000 1.0
C      1  0.5709860000000  0.5195100000000  0.4234360000000 1.0
C      1  0.4671120000000  0.4681510000000  0.5162000000000 1.0
END
