TITL C-612603-7354-749 -0.0268106117930714 125000 -975.613027705393 0 0 159 (C1) n - 1
REM
REM in /home/nfs/bkarasulu/CARBON/AIRSS/Generating-Clusters/TERSOFF/Only-C1/FIRE-HFTN
REM
REM
REM
REM
REM
REM ./C.cell (11c1c37f851c82e70ff6c80c92926a4b)
REM AIRSS Version 0.9.1 bugfix July 2018 build 013d7b7c2542+ Fri, 06 Jul 2018 19:26:36 +0100
REM compiler GCC version 9.2.1 20190827 (Red Hat 9.2.1-1)
REM options -cpp -mtune=generic -march=x86-64 -g -O0 -fpre-include=/usr/include/finclude/math-vector-fortran.h
REM seed 277769562 1013159789 -910686149 -557916880 -1136844555 1074579584 1323131464 -1743643000 -902091776 -167183000 1201953661 1249708460 -2062553519 1265615073 1411258946 479531938 1517477902 -1731657425 251956553 617333347 1042368131 474370665 1698927203 1684038307 1254632444 1259083495 -314384672 -741404301 -2120799083 -663772881 1335542972 -1977879127 510160531
REM
CELL 1.54180   50.00000   50.00000   50.00000   90.00000   90.00000   90.00000
LATT -1
SFAC C  
C      1  0.5216300000000  0.5664070000000  0.4252380000000 1.0
C      1  0.4101540000000  0.4288800000000  0.5213290000000 1.0
C      1  0.5298250000000  0.4933160000000  0.4569630000000 1.0
C      1  0.4677380000000  0.4389200000000  0.5878770000000 1.0
C      1  0.4014920000000  0.4420380000000  0.4957950000000 1.0
C      1  0.4808670000000  0.5822800000000  0.5088110000000 1.0
C      1  0.5829900000000  0.4907410000000  0.5980550000000 1.0
C      1  0.5939320000000  0.4961060000000  0.5274510000000 1.0
C      1  0.5026720000000  0.3819770000000  0.4451130000000 1.0
C      1  0.4473340000000  0.4134680000000  0.5522800000000 1.0
C      1  0.4039020000000  0.4360260000000  0.5499070000000 1.0
C      1  0.5609120000000  0.4669440000000  0.4944560000000 1.0
C      1  0.4118850000000  0.4802960000000  0.4559990000000 1.0
C      1  0.4187730000000  0.4839730000000  0.5091190000000 1.0
C      1  0.5409060000000  0.5903440000000  0.5686210000000 1.0
C      1  0.5914710000000  0.5055250000000  0.5005760000000 1.0
C      1  0.4761480000000  0.5835280000000  0.4346580000000 1.0
C      1  0.5387820000000  0.4118310000000  0.4651090000000 1.0
C      1  0.5551240000000  0.4225850000000  0.5142110000000 1.0
C      1  0.5342860000000  0.5177770000000  0.5885300000000 1.0
C      1  0.5334700000000  0.4728630000000  0.4992850000000 1.0
C      1  0.4007760000000  0.5028560000000  0.4975110000000 1.0
C      1  0.4766300000000  0.5326570000000  0.5067780000000 1.0
C      1  0.4727780000000  0.4053490000000  0.3994960000000 1.0
C      1  0.4291590000000  0.5529590000000  0.5544960000000 1.0
C      1  0.5491740000000  0.4247040000000  0.5431010000000 1.0
C      1  0.5797640000000  0.5076070000000  0.5499320000000 1.0
C      1  0.4452090000000  0.6009320000000  0.4772140000000 1.0
C      1  0.4906540000000  0.5196640000000  0.6132150000000 1.0
C      1  0.4548700000000  0.5474360000000  0.5958930000000 1.0
C      1  0.3972870000000  0.5527380000000  0.5095930000000 1.0
C      1  0.5194940000000  0.4784130000000  0.4360930000000 1.0
C      1  0.4516610000000  0.3889610000000  0.3973230000000 1.0
C      1  0.4718340000000  0.4433340000000  0.5270790000000 1.0
C      1  0.5722920000000  0.4431290000000  0.5053880000000 1.0
C      1  0.3922850000000  0.5279390000000  0.5011070000000 1.0
C      1  0.4407790000000  0.4491970000000  0.5849680000000 1.0
C      1  0.4903470000000  0.4437650000000  0.5055940000000 1.0
C      1  0.5863190000000  0.4940140000000  0.6236960000000 1.0
C      1  0.5212170000000  0.5493010000000  0.5323620000000 1.0
C      1  0.5278330000000  0.4924740000000  0.5777940000000 1.0
C      1  0.4711270000000  0.5605320000000  0.3894850000000 1.0
C      1  0.5218110000000  0.4498890000000  0.4334410000000 1.0
C      1  0.4759220000000  0.4029140000000  0.4813400000000 1.0
C      1  0.5279290000000  0.5584750000000  0.6086840000000 1.0
C      1  0.4857580000000  0.4990980000000  0.3728290000000 1.0
C      1  0.5057680000000  0.4406960000000  0.4112330000000 1.0
C      1  0.3922230000000  0.4598880000000  0.5594480000000 1.0
C      1  0.5702940000000  0.5900630000000  0.5240110000000 1.0
C      1  0.4574080000000  0.4921680000000  0.4871470000000 1.0
C      1  0.4870200000000  0.4964560000000  0.5537360000000 1.0
C      1  0.6042760000000  0.5298380000000  0.4927590000000 1.0
C      1  0.4207430000000  0.5883860000000  0.4874380000000 1.0
C      1  0.5137880000000  0.4584860000000  0.5138750000000 1.0
C      1  0.5699760000000  0.4374100000000  0.5586000000000 1.0
C      1  0.4782500000000  0.3855680000000  0.5032880000000 1.0
C      1  0.6119430000000  0.4391130000000  0.4086210000000 1.0
C      1  0.5454940000000  0.4053890000000  0.4931510000000 1.0
C      1  0.4502640000000  0.4456320000000  0.4775440000000 1.0
C      1  0.4096300000000  0.5767900000000  0.4630810000000 1.0
C      1  0.5135000000000  0.6175730000000  0.5092760000000 1.0
C      1  0.5517010000000  0.6015400000000  0.5428150000000 1.0
C      1  0.5463760000000  0.5652840000000  0.5856340000000 1.0
C      1  0.4946930000000  0.5188770000000  0.4307290000000 1.0
C      1  0.5624090000000  0.5302530000000  0.5499470000000 1.0
C      1  0.5012820000000  0.5781010000000  0.4890240000000 1.0
C      1  0.5339150000000  0.6196660000000  0.5287760000000 1.0
C      1  0.5276280000000  0.3898550000000  0.4507730000000 1.0
C      1  0.4631830000000  0.6047970000000  0.5652310000000 1.0
C      1  0.5685820000000  0.4390150000000  0.4383520000000 1.0
C      1  0.4584570000000  0.4638520000000  0.5370180000000 1.0
C      1  0.5048110000000  0.5875710000000  0.4374310000000 1.0
C      1  0.4183020000000  0.5217150000000  0.5917600000000 1.0
C      1  0.4014490000000  0.4597260000000  0.4731940000000 1.0
C      1  0.4203240000000  0.4889220000000  0.5371330000000 1.0
C      1  0.4279160000000  0.3862220000000  0.4095520000000 1.0
C      1  0.5866130000000  0.5592870000000  0.4562340000000 1.0
C      1  0.5804220000000  0.5384540000000  0.4109870000000 1.0
C      1  0.4166720000000  0.5732830000000  0.5109780000000 1.0
C      1  0.4792400000000  0.5197290000000  0.4553180000000 1.0
C      1  0.4878050000000  0.5347340000000  0.4783420000000 1.0
C      1  0.5817700000000  0.4848620000000  0.4829720000000 1.0
C      1  0.4983780000000  0.4842870000000  0.3926790000000 1.0
C      1  0.5905490000000  0.4391110000000  0.4235160000000 1.0
C      1  0.4628690000000  0.5199370000000  0.6053380000000 1.0
C      1  0.4118990000000  0.4803480000000  0.5624940000000 1.0
C      1  0.4799360000000  0.3905890000000  0.4564500000000 1.0
C      1  0.6001890000000  0.4674890000000  0.5332640000000 1.0
C      1  0.5176130000000  0.4488880000000  0.3641560000000 1.0
C      1  0.4735330000000  0.5093680000000  0.3516850000000 1.0
C      1  0.5999520000000  0.4479590000000  0.5122590000000 1.0
C      1  0.5689620000000  0.5754550000000  0.4993650000000 1.0
C      1  0.5360140000000  0.5449080000000  0.4820030000000 1.0
C      1  0.5242030000000  0.6013160000000  0.4568300000000 1.0
C      1  0.4319030000000  0.4766660000000  0.5840690000000 1.0
C      1  0.5023100000000  0.4937920000000  0.4191400000000 1.0
C      1  0.4748600000000  0.4314300000000  0.4850100000000 1.0
C      1  0.4648550000000  0.5055890000000  0.5107440000000 1.0
C      1  0.4639420000000  0.5631490000000  0.4157000000000 1.0
C      1  0.5860270000000  0.4607860000000  0.5581550000000 1.0
C      1  0.6155290000000  0.4523150000000  0.4886590000000 1.0
C      1  0.5001060000000  0.5310780000000  0.5261900000000 1.0
C      1  0.4534840000000  0.5906010000000  0.4514150000000 1.0
C      1  0.4910110000000  0.5474980000000  0.5671170000000 1.0
C      1  0.5481570000000  0.5420720000000  0.5279550000000 1.0
C      1  0.4733240000000  0.4196550000000  0.5665900000000 1.0
C      1  0.4635580000000  0.5601740000000  0.5157920000000 1.0
C      1  0.5729060000000  0.5810940000000  0.4713880000000 1.0
C      1  0.5020810000000  0.3867890000000  0.5470660000000 1.0
C      1  0.6053870000000  0.5404030000000  0.4661830000000 1.0
C      1  0.6262300000000  0.5325550000000  0.4500890000000 1.0
C      1  0.5159110000000  0.4578730000000  0.5431130000000 1.0
C      1  0.4385280000000  0.5699320000000  0.5314270000000 1.0
C      1  0.5423240000000  0.4348830000000  0.4476900000000 1.0
C      1  0.4419940000000  0.4374720000000  0.4512500000000 1.0
C      1  0.5167390000000  0.5308630000000  0.6081180000000 1.0
C      1  0.5002450000000  0.4127390000000  0.5580500000000 1.0
C      1  0.5250040000000  0.4937280000000  0.4830960000000 1.0
C      1  0.6188230000000  0.5438010000000  0.5123670000000 1.0
C      1  0.4313800000000  0.5019600000000  0.4473470000000 1.0
C      1  0.4343290000000  0.4115610000000  0.5256820000000 1.0
C      1  0.4756500000000  0.5629940000000  0.5853390000000 1.0
C      1  0.4402240000000  0.4698890000000  0.4923180000000 1.0
C      1  0.4613610000000  0.4399540000000  0.4308540000000 1.0
C      1  0.5553560000000  0.5503080000000  0.5021180000000 1.0
C      1  0.4873580000000  0.6085820000000  0.5188670000000 1.0
C      1  0.4906800000000  0.3766790000000  0.5250720000000 1.0
C      1  0.5492490000000  0.5711830000000  0.4309250000000 1.0
C      1  0.4209760000000  0.4194840000000  0.4459880000000 1.0
C      1  0.4674050000000  0.4898560000000  0.5348680000000 1.0
C      1  0.6318590000000  0.5566110000000  0.5309440000000 1.0
C      1  0.5099280000000  0.4803270000000  0.5595910000000 1.0
C      1  0.4154310000000  0.3990140000000  0.4295840000000 1.0
C      1  0.4908940000000  0.5235640000000  0.5529160000000 1.0
C      1  0.5808520000000  0.4865620000000  0.5706890000000 1.0
C      1  0.5092510000000  0.5531270000000  0.4789100000000 1.0
C      1  0.4299400000000  0.5732870000000  0.4436370000000 1.0
C      1  0.6038460000000  0.4702350000000  0.4712950000000 1.0
C      1  0.4269160000000  0.4296380000000  0.5671820000000 1.0
C      1  0.4614480000000  0.5191970000000  0.3307810000000 1.0
C      1  0.4839290000000  0.5908330000000  0.5788340000000 1.0
C      1  0.5727100000000  0.5550290000000  0.4310690000000 1.0
C      1  0.5092400000000  0.5644540000000  0.5527530000000 1.0
C      1  0.5098540000000  0.5411650000000  0.4221600000000 1.0
C      1  0.5075720000000  0.4575450000000  0.3879670000000 1.0
C      1  0.4388360000000  0.5518860000000  0.4267210000000 1.0
C      1  0.5220530000000  0.4310770000000  0.5517690000000 1.0
C      1  0.5446890000000  0.3784520000000  0.4996810000000 1.0
C      1  0.4807530000000  0.4278730000000  0.4143220000000 1.0
C      1  0.4458480000000  0.5962050000000  0.5461910000000 1.0
C      1  0.5113850000000  0.5893410000000  0.5668640000000 1.0
C      1  0.4286840000000  0.5253270000000  0.4305280000000 1.0
C      1  0.4570170000000  0.5027090000000  0.4611310000000 1.0
C      1  0.5157510000000  0.6027860000000  0.4837490000000 1.0
C      1  0.5512920000000  0.5909080000000  0.4532750000000 1.0
C      1  0.4296820000000  0.5458010000000  0.5815450000000 1.0
C      1  0.4391610000000  0.5014090000000  0.5975450000000 1.0
C      1  0.4847840000000  0.4454860000000  0.6080410000000 1.0
C      1  0.5517600000000  0.5377490000000  0.5753330000000 1.0
END
