TITL C-612604-1799-373 -0.152723820655 125000 -104.428340626152 0 0 20 (C1) n - 1
REM
REM in /home/nfs/bkarasulu/CARBON/AIRSS/Generating-Clusters/TERSOFF/Only-C1/FIRE-HFTN
REM
REM
REM
REM
REM
REM ./C.cell (11c1c37f851c82e70ff6c80c92926a4b)
REM AIRSS Version 0.9.1 bugfix July 2018 build 013d7b7c2542+ Fri, 06 Jul 2018 19:26:36 +0100
REM compiler GCC version 9.2.1 20190827 (Red Hat 9.2.1-1)
REM options -cpp -mtune=generic -march=x86-64 -g -O0 -fpre-include=/usr/include/finclude/math-vector-fortran.h
REM seed 1585588196 874902199 -1493081498 -1009448454 11418757 468480630 783879804 -348882584 1175899733 1486145010 -1798349988 -1985870528 -128750262 100878116 1903002987 1850657490 580910917 1481289689 2131683265 -1318821808 1442073255 1622003633 -1728687721 -1440197995 670827936 996759074 -363904336 -805200618 -1617216594 -2032774368 -1145500784 944481894 -1836235786
REM
CELL 1.54180   50.00000   50.00000   50.00000   90.00000   90.00000   90.00000
LATT -1
SFAC C  
C      1  0.5220620000000  0.5159570000000  0.5474270000000 1.0
C      1  0.5134410000000  0.4263560000000  0.5012080000000 1.0
C      1  0.4853900000000  0.4925250000000  0.4643880000000 1.0
C      1  0.4425050000000  0.5325140000000  0.5064670000000 1.0
C      1  0.4728900000000  0.4935540000000  0.4400040000000 1.0
C      1  0.5516930000000  0.4937360000000  0.5168860000000 1.0
C      1  0.5136660000000  0.5779650000000  0.4286540000000 1.0
C      1  0.5028830000000  0.4465600000000  0.4877000000000 1.0
C      1  0.4207780000000  0.5389340000000  0.5193640000000 1.0
C      1  0.5062670000000  0.5590140000000  0.4449550000000 1.0
C      1  0.4986870000000  0.5397130000000  0.4614260000000 1.0
C      1  0.5351330000000  0.3870970000000  0.5286380000000 1.0
C      1  0.5147320000000  0.5240540000000  0.5715660000000 1.0
C      1  0.5286210000000  0.5076600000000  0.5215470000000 1.0
C      1  0.4935810000000  0.4681260000000  0.4754530000000 1.0
C      1  0.5112570000000  0.5136820000000  0.5005110000000 1.0
C      1  0.5073470000000  0.5320650000000  0.5952490000000 1.0
C      1  0.5243600000000  0.4065470000000  0.5150260000000 1.0
C      1  0.4646610000000  0.5259510000000  0.4935370000000 1.0
C      1  0.4900460000000  0.5179900000000  0.4799930000000 1.0
END
