TITL C-612600-6631-969 0.00016874704529146 125000 -539.099036442519 0 0 90 (C1) n - 1
REM
REM in /home/nfs/bkarasulu/CARBON/AIRSS/Generating-Clusters/TERSOFF/Only-C1/FIRE-HFTN
REM
REM
REM
REM
REM
REM ./C.cell (11c1c37f851c82e70ff6c80c92926a4b)
REM AIRSS Version 0.9.1 bugfix July 2018 build 013d7b7c2542+ Fri, 06 Jul 2018 19:26:36 +0100
REM compiler GCC version 9.2.1 20190827 (Red Hat 9.2.1-1)
REM options -cpp -mtune=generic -march=x86-64 -g -O0 -fpre-include=/usr/include/finclude/math-vector-fortran.h
REM seed 2017076064 1435198182 -1925196435 867349927 535644145 2048423137 2027269114 -1988647641 -374145203 -935319691 717928182 -216599865 -885897817 -1325917814 271786268 -928445008 1759098855 -2053037279 1478187173 720185783 555788273 1706008604 1051152603 226701514 1374413864 -1213668851 -1098467488 264743675 -1033428476 -1747436103 1018615937 186384737 3517786
REM
CELL 1.54180   50.00000   50.00000   50.00000   90.00000   90.00000   90.00000
LATT -1
SFAC C  
C      1  0.4908700000000  0.5184700000000  0.5490820000000 1.0
C      1  0.5811080000000  0.4401650000000  0.4927910000000 1.0
C      1  0.4832060000000  0.4777800000000  0.4242820000000 1.0
C      1  0.4732840000000  0.4509690000000  0.4296230000000 1.0
C      1  0.5247800000000  0.4693210000000  0.4743950000000 1.0
C      1  0.5767400000000  0.4347420000000  0.5201880000000 1.0
C      1  0.4022160000000  0.4857210000000  0.4725250000000 1.0
C      1  0.4225000000000  0.4418630000000  0.5202810000000 1.0
C      1  0.5265870000000  0.4770540000000  0.5229700000000 1.0
C      1  0.4704720000000  0.5010110000000  0.4352160000000 1.0
C      1  0.5528560000000  0.5274150000000  0.4324660000000 1.0
C      1  0.6073350000000  0.4747480000000  0.5317220000000 1.0
C      1  0.4594330000000  0.4691570000000  0.4803900000000 1.0
C      1  0.5570830000000  0.5113220000000  0.4559980000000 1.0
C      1  0.4381920000000  0.5086400000000  0.5200490000000 1.0
C      1  0.4643290000000  0.5025630000000  0.5103160000000 1.0
C      1  0.4985920000000  0.4935630000000  0.6197840000000 1.0
C      1  0.4870690000000  0.4372020000000  0.4509540000000 1.0
C      1  0.4719120000000  0.6242200000000  0.5044410000000 1.0
C      1  0.5340490000000  0.5385960000000  0.5550080000000 1.0
C      1  0.4344740000000  0.5056420000000  0.5678250000000 1.0
C      1  0.5675330000000  0.4869550000000  0.5015590000000 1.0
C      1  0.4950440000000  0.5058990000000  0.5724490000000 1.0
C      1  0.4627980000000  0.4974180000000  0.4814330000000 1.0
C      1  0.5482780000000  0.4951240000000  0.5226120000000 1.0
C      1  0.4923630000000  0.5764350000000  0.4699940000000 1.0
C      1  0.4563120000000  0.5421330000000  0.4659540000000 1.0
C      1  0.4977170000000  0.4202710000000  0.5170490000000 1.0
C      1  0.4898140000000  0.5796480000000  0.4990750000000 1.0
C      1  0.6035200000000  0.4680080000000  0.4440070000000 1.0
C      1  0.4022660000000  0.4463530000000  0.5004380000000 1.0
C      1  0.5186530000000  0.5449250000000  0.4883300000000 1.0
C      1  0.5192990000000  0.5179440000000  0.4817750000000 1.0
C      1  0.4672230000000  0.5426980000000  0.5858850000000 1.0
C      1  0.5633420000000  0.5739460000000  0.4417930000000 1.0
C      1  0.4838660000000  0.5553400000000  0.4278770000000 1.0
C      1  0.4709910000000  0.4348650000000  0.5158590000000 1.0
C      1  0.4385480000000  0.4517760000000  0.4709750000000 1.0
C      1  0.4750420000000  0.4178150000000  0.4696490000000 1.0
C      1  0.5270560000000  0.4589730000000  0.5010140000000 1.0
C      1  0.4730910000000  0.4601570000000  0.5045120000000 1.0
C      1  0.5421290000000  0.5789950000000  0.4574280000000 1.0
C      1  0.4986270000000  0.5010900000000  0.6447340000000 1.0
C      1  0.5893800000000  0.5058660000000  0.4968190000000 1.0
C      1  0.4908130000000  0.6053950000000  0.5105900000000 1.0
C      1  0.4446060000000  0.4253820000000  0.5093560000000 1.0
C      1  0.4389320000000  0.5464970000000  0.4895930000000 1.0
C      1  0.4052900000000  0.5098880000000  0.4838980000000 1.0
C      1  0.5810370000000  0.5172740000000  0.4719680000000 1.0
C      1  0.5279030000000  0.5294390000000  0.4193760000000 1.0
C      1  0.4475480000000  0.5243630000000  0.5822730000000 1.0
C      1  0.4538080000000  0.4394030000000  0.4143710000000 1.0
C      1  0.4703210000000  0.5758490000000  0.5525520000000 1.0
C      1  0.5122590000000  0.6120160000000  0.5273120000000 1.0
C      1  0.4259320000000  0.4644400000000  0.5383750000000 1.0
C      1  0.4921100000000  0.5357980000000  0.5285850000000 1.0
C      1  0.4926410000000  0.4046740000000  0.4899750000000 1.0
C      1  0.4473520000000  0.4244600000000  0.4789620000000 1.0
C      1  0.5356260000000  0.4712940000000  0.4179690000000 1.0
C      1  0.5200940000000  0.5663700000000  0.4686000000000 1.0
C      1  0.5730110000000  0.4647400000000  0.4813060000000 1.0
C      1  0.5693170000000  0.5504200000000  0.4299620000000 1.0
C      1  0.5506140000000  0.4236900000000  0.5236780000000 1.0
C      1  0.5109950000000  0.4507210000000  0.4581890000000 1.0
C      1  0.5572010000000  0.4651050000000  0.4327340000000 1.0
C      1  0.5006410000000  0.5540660000000  0.5093490000000 1.0
C      1  0.5001700000000  0.4601590000000  0.5838840000000 1.0
C      1  0.4302250000000  0.4928220000000  0.5427890000000 1.0
C      1  0.5027500000000  0.4737200000000  0.5376620000000 1.0
C      1  0.5044580000000  0.5421450000000  0.4167470000000 1.0
C      1  0.5934600000000  0.4515660000000  0.5362810000000 1.0
C      1  0.4800310000000  0.4812690000000  0.5221540000000 1.0
C      1  0.5328000000000  0.6168490000000  0.5426040000000 1.0
C      1  0.5264220000000  0.4316590000000  0.5097920000000 1.0
C      1  0.5336810000000  0.4973020000000  0.4685270000000 1.0
C      1  0.6090680000000  0.4969740000000  0.5156160000000 1.0
C      1  0.5011570000000  0.4242400000000  0.5477190000000 1.0
C      1  0.5773960000000  0.4662730000000  0.4526420000000 1.0
C      1  0.4113970000000  0.4594620000000  0.4767310000000 1.0
C      1  0.4425100000000  0.5671010000000  0.5088420000000 1.0
C      1  0.4739890000000  0.5615900000000  0.4538140000000 1.0
C      1  0.5099060000000  0.4784000000000  0.4145280000000 1.0
C      1  0.5137430000000  0.5535450000000  0.5669100000000 1.0
C      1  0.4850430000000  0.5597630000000  0.5710400000000 1.0
C      1  0.4979030000000  0.4867550000000  0.5928560000000 1.0
C      1  0.4625050000000  0.5143540000000  0.4592480000000 1.0
C      1  0.5016050000000  0.4518030000000  0.5571750000000 1.0
C      1  0.4521350000000  0.5754540000000  0.5325920000000 1.0
C      1  0.5457970000000  0.5189530000000  0.5393910000000 1.0
C      1  0.4238170000000  0.5237610000000  0.4999530000000 1.0
END
