TITL C-612607-4507-1140 535690.666079656 125000 -783.731354291955 0 0 131 (C1) n - 1
REM
REM in /home/nfs/bkarasulu/CARBON/AIRSS/Generating-Clusters/TERSOFF/Only-C1/FIRE-HFTN
REM
REM
REM
REM
REM
REM ./C.cell (11c1c37f851c82e70ff6c80c92926a4b)
REM AIRSS Version 0.9.1 bugfix July 2018 build 013d7b7c2542+ Fri, 06 Jul 2018 19:26:36 +0100
REM compiler GCC version 9.2.1 20190827 (Red Hat 9.2.1-1)
REM options -cpp -mtune=generic -march=x86-64 -g -O0 -fpre-include=/usr/include/finclude/math-vector-fortran.h
REM seed 1106720827 -117062251 714070309 810335317 109585865 -1037528696 1928523901 -975141664 -1223551702 -1297607908 -630073033 -1681511914 -523719171 -208749834 991732210 295328900 803735460 66137897 707683351 -1956922431 -1225437749 -856588211 -539948898 607440712 -1292183888 -47058052 -1653740422 806312968 1949189252 1752286738 -823392918 -1353858472 -66752608
REM
CELL 1.54180   50.00000   50.00000   50.00000   90.00000   90.00000   90.00000
LATT -1
SFAC C  
C      1  0.4652690000000  0.5078260000000  0.5390170000000 1.0
C      1  0.5178250000000  0.4720570000000  0.4964810000000 1.0
C      1  0.5122220000000  0.5042370000000  0.4497090000000 1.0
C      1  0.4069540000000  0.4207700000000  0.4767890000000 1.0
C      1  0.4227700000000  0.4397550000000  0.4904200000000 1.0
C      1  0.5770660000000  0.5781160000000  0.4899430000000 1.0
C      1  0.5271350000000  0.6143750000000  0.4492090000000 1.0
C      1  0.4927200000000  0.5592820000000  0.6089800000000 1.0
C      1  0.5829560000000  0.5070960000000  0.4481770000000 1.0
C      1  0.5275280000000  0.4375360000000  0.5987330000000 1.0
C      1  0.5383490000000  0.5082380000000  0.5404800000000 1.0
C      1  0.4284350000000  0.3744640000000  0.4892030000000 1.0
C      1  0.5951170000000  0.5615060000000  0.5008800000000 1.0
C      1  0.4225630000000  0.6266400000000  0.6042490000000 1.0
C      1  0.4241120000000  0.4620640000000  0.5074350000000 1.0
C      1  0.5684480000000  0.5319430000000  0.4527320000000 1.0
C      1  0.4608630000000  0.4202000000000  0.4482240000000 1.0
C      1  0.5005150000000  0.5935500000000  0.5704120000000 1.0
C      1  0.3903540000000  0.4998280000000  0.5870580000000 1.0
C      1  0.4449760000000  0.4275190000000  0.4275210000000 1.0
C      1  0.5358540000000  0.4177850000000  0.5827690000000 1.0
C      1  0.6105580000000  0.5074230000000  0.4564450000000 1.0
C      1  0.5599540000000  0.4943170000000  0.5022170000000 1.0
C      1  0.4320590000000  0.4697650000000  0.3986980000000 1.0
C      1  0.4049760000000  0.6307830000000  0.5848460000000 1.0
C      1  0.3738650000000  0.6208120000000  0.5437620000000 1.0
C      1  0.5116320000000  0.5926130000000  0.5458360000000 1.0
C      1  0.6704410000000  0.3831200000000  0.4637580000000 1.0
C      1  0.6020510000000  0.5892140000000  0.4150760000000 1.0
C      1  0.5349450000000  0.4565150000000  0.5385600000000 1.0
C      1  0.4388980000000  0.4501810000000  0.5633660000000 1.0
C      1  0.5347510000000  0.4346710000000  0.4608570000000 1.0
C      1  0.3625390000000  0.5839170000000  0.5086940000000 1.0
C      1  0.5386590000000  0.4865920000000  0.4850130000000 1.0
C      1  0.4396560000000  0.6195590000000  0.6226180000000 1.0
C      1  0.5625430000000  0.4069980000000  0.5110370000000 1.0
C      1  0.4956320000000  0.5405980000000  0.5101980000000 1.0
C      1  0.5563260000000  0.5257690000000  0.5962150000000 1.0
C      1  0.3841490000000  0.4283540000000  0.4637130000000 1.0
C      1  0.5237290000000  0.4490340000000  0.4383810000000 1.0
C      1  0.4042340000000  0.5226370000000  0.4909130000000 1.0
C      1  0.4140440000000  0.3937100000000  0.4777740000000 1.0
C      1  0.3689350000000  0.5605470000000  0.4979070000000 1.0
C      1  0.5217510000000  0.5543280000000  0.5104890000000 1.0
C      1  0.3688470000000  0.5118120000000  0.5956260000000 1.0
C      1  0.6279470000000  0.5253770000000  0.4438920000000 1.0
C      1  0.5479640000000  0.4801830000000  0.4006060000000 1.0
C      1  0.5004330000000  0.5341890000000  0.4133580000000 1.0
C      1  0.6447560000000  0.3871210000000  0.4657460000000 1.0
C      1  0.4914970000000  0.5235310000000  0.5367350000000 1.0
C      1  0.5453710000000  0.4056400000000  0.5609470000000 1.0
C      1  0.5462980000000  0.5006170000000  0.5883330000000 1.0
C      1  0.5219870000000  0.4626630000000  0.6060240000000 1.0
C      1  0.4865730000000  0.4284310000000  0.5283620000000 1.0
C      1  0.5616440000000  0.4365160000000  0.4706780000000 1.0
C      1  0.4405550000000  0.4852800000000  0.5034830000000 1.0
C      1  0.5224150000000  0.4904160000000  0.6009720000000 1.0
C      1  0.5061430000000  0.4282800000000  0.5065690000000 1.0
C      1  0.4637520000000  0.4131290000000  0.5350100000000 1.0
C      1  0.5320520000000  0.4644330000000  0.4167510000000 1.0
C      1  0.4259320000000  0.5078350000000  0.4946620000000 1.0
C      1  0.5103670000000  0.4699630000000  0.5489570000000 1.0
C      1  0.4967440000000  0.5328700000000  0.6127890000000 1.0
C      1  0.4363100000000  0.4453090000000  0.4092200000000 1.0
C      1  0.4386090000000  0.4792940000000  0.4520370000000 1.0
C      1  0.3835150000000  0.5391130000000  0.4923200000000 1.0
C      1  0.6012060000000  0.5652240000000  0.4279310000000 1.0
C      1  0.6135720000000  0.4943590000000  0.4819220000000 1.0
C      1  0.5547970000000  0.4023410000000  0.5361610000000 1.0
C      1  0.5377640000000  0.5047260000000  0.3930610000000 1.0
C      1  0.4761800000000  0.4987490000000  0.5862270000000 1.0
C      1  0.5258010000000  0.4490350000000  0.5120680000000 1.0
C      1  0.5438790000000  0.5387750000000  0.5004530000000 1.0
C      1  0.4123880000000  0.4881760000000  0.5780800000000 1.0
C      1  0.4321320000000  0.4967540000000  0.3992590000000 1.0
C      1  0.4034690000000  0.4643110000000  0.5256110000000 1.0
C      1  0.4906780000000  0.5503020000000  0.4600010000000 1.0
C      1  0.4466290000000  0.3717580000000  0.5085110000000 1.0
C      1  0.5517620000000  0.4931430000000  0.5613290000000 1.0
C      1  0.4600510000000  0.5177080000000  0.4328870000000 1.0
C      1  0.3645890000000  0.6051160000000  0.5245020000000 1.0
C      1  0.4949860000000  0.4515180000000  0.4425940000000 1.0
C      1  0.4342330000000  0.5715190000000  0.4775860000000 1.0
C      1  0.6241200000000  0.5492620000000  0.4321450000000 1.0
C      1  0.4364410000000  0.4779430000000  0.5681220000000 1.0
C      1  0.4232290000000  0.5436930000000  0.4144420000000 1.0
C      1  0.6151840000000  0.5130540000000  0.5031100000000 1.0
C      1  0.5097610000000  0.4982940000000  0.5346610000000 1.0
C      1  0.5529820000000  0.5171780000000  0.5178470000000 1.0
C      1  0.5217420000000  0.5787150000000  0.5250230000000 1.0
C      1  0.4163750000000  0.5637970000000  0.4306230000000 1.0
C      1  0.4819800000000  0.5364030000000  0.4356190000000 1.0
C      1  0.5578040000000  0.4666150000000  0.5520840000000 1.0
C      1  0.5055720000000  0.4235370000000  0.4781550000000 1.0
C      1  0.5773280000000  0.5542940000000  0.4382890000000 1.0
C      1  0.5314370000000  0.5895800000000  0.4615280000000 1.0
C      1  0.4387630000000  0.5204910000000  0.4135280000000 1.0
C      1  0.6190750000000  0.3926720000000  0.4692680000000 1.0
C      1  0.5021340000000  0.5403420000000  0.5587330000000 1.0
C      1  0.5725210000000  0.4146980000000  0.4858700000000 1.0
C      1  0.4622030000000  0.4903470000000  0.4419570000000 1.0
C      1  0.5462280000000  0.5484080000000  0.5855880000000 1.0
C      1  0.4595710000000  0.3872280000000  0.5258850000000 1.0
C      1  0.4935050000000  0.5813380000000  0.5934460000000 1.0
C      1  0.5725440000000  0.4805150000000  0.4474270000000 1.0
C      1  0.5787650000000  0.4597410000000  0.4663190000000 1.0
C      1  0.5470790000000  0.5308240000000  0.4719320000000 1.0
C      1  0.5820580000000  0.4547160000000  0.5546430000000 1.0
C      1  0.5948070000000  0.4012110000000  0.4755950000000 1.0
C      1  0.5318180000000  0.5071580000000  0.4673820000000 1.0
C      1  0.4125810000000  0.4765760000000  0.4520990000000 1.0
C      1  0.4848690000000  0.4303750000000  0.4588830000000 1.0
C      1  0.5228560000000  0.6376840000000  0.4383670000000 1.0
C      1  0.4984200000000  0.5066680000000  0.6018190000000 1.0
C      1  0.4835410000000  0.4747690000000  0.4314310000000 1.0
C      1  0.4956390000000  0.4867630000000  0.5077240000000 1.0
C      1  0.4453780000000  0.4268840000000  0.5517380000000 1.0
C      1  0.5113510000000  0.5101510000000  0.4027140000000 1.0
C      1  0.4794170000000  0.5470860000000  0.4869400000000 1.0
C      1  0.5004460000000  0.4867240000000  0.4134100000000 1.0
C      1  0.4663470000000  0.4907610000000  0.5143420000000 1.0
C      1  0.6079320000000  0.5387390000000  0.5070860000000 1.0
C      1  0.4205560000000  0.5742080000000  0.4548390000000 1.0
C      1  0.4541390000000  0.5590280000000  0.4902210000000 1.0
C      1  0.4900010000000  0.4504690000000  0.5469690000000 1.0
C      1  0.5551380000000  0.5863440000000  0.4767800000000 1.0
C      1  0.5117670000000  0.5694830000000  0.4579920000000 1.0
C      1  0.4583780000000  0.4959660000000  0.5644210000000 1.0
C      1  0.3881290000000  0.6293300000000  0.5644280000000 1.0
C      1  0.5245120000000  0.5500830000000  0.5699400000000 1.0
C      1  0.6013950000000  0.4681020000000  0.4825820000000 1.0
END
