TITL C-612600-6631-444 0.030271388617311 125000 -1094.31907324199 0 0 179 (C1) n - 1
REM
REM in /home/nfs/bkarasulu/CARBON/AIRSS/Generating-Clusters/TERSOFF/Only-C1/FIRE-HFTN
REM
REM
REM
REM
REM
REM ./C.cell (11c1c37f851c82e70ff6c80c92926a4b)
REM AIRSS Version 0.9.1 bugfix July 2018 build 013d7b7c2542+ Fri, 06 Jul 2018 19:26:36 +0100
REM compiler GCC version 9.2.1 20190827 (Red Hat 9.2.1-1)
REM options -cpp -mtune=generic -march=x86-64 -g -O0 -fpre-include=/usr/include/finclude/math-vector-fortran.h
REM seed -1352882070 -1293097600 -984666546 962108415 -264619998 1756706844 600035394 -1162833347 383095650 658135051 -945199476 -1601921627 1509722535 1675593291 395905239 -1628896024 -1817420350 -1319580313 -72688257 1761535062 1717465524 -1116543143 1034902648 -822309034 -192997757 367604348 964629161 1075573033 -1450594002 -416158490 -963744026 414980618 -865352531
REM
CELL 1.54180   50.00000   50.00000   50.00000   90.00000   90.00000   90.00000
LATT -1
SFAC C  
C      1  0.4104370000000  0.5757760000000  0.4683430000000 1.0
C      1  0.4012520000000  0.5296520000000  0.4853060000000 1.0
C      1  0.5943630000000  0.4507350000000  0.5653650000000 1.0
C      1  0.4760380000000  0.5568770000000  0.4096870000000 1.0
C      1  0.4888390000000  0.5695830000000  0.5020930000000 1.0
C      1  0.4738210000000  0.5711530000000  0.5686190000000 1.0
C      1  0.4852080000000  0.3946730000000  0.5671970000000 1.0
C      1  0.4485690000000  0.4789770000000  0.4372910000000 1.0
C      1  0.5800390000000  0.4947870000000  0.5545470000000 1.0
C      1  0.4762500000000  0.5519950000000  0.3810890000000 1.0
C      1  0.4622290000000  0.5273330000000  0.3750560000000 1.0
C      1  0.3705270000000  0.5060400000000  0.5248960000000 1.0
C      1  0.5123640000000  0.4022380000000  0.5618640000000 1.0
C      1  0.4067990000000  0.4442220000000  0.4271100000000 1.0
C      1  0.3662770000000  0.4864370000000  0.5051630000000 1.0
C      1  0.5017710000000  0.5730610000000  0.5702240000000 1.0
C      1  0.5352570000000  0.4249560000000  0.4072810000000 1.0
C      1  0.4163510000000  0.6050830000000  0.3929770000000 1.0
C      1  0.3967280000000  0.5093640000000  0.5359000000000 1.0
C      1  0.4945640000000  0.5129310000000  0.4625520000000 1.0
C      1  0.4415790000000  0.5263040000000  0.5716010000000 1.0
C      1  0.4234520000000  0.5735570000000  0.5590260000000 1.0
C      1  0.4458770000000  0.4965010000000  0.5043720000000 1.0
C      1  0.4574700000000  0.5267030000000  0.4403980000000 1.0
C      1  0.4109590000000  0.4369130000000  0.4750490000000 1.0
C      1  0.4704370000000  0.4764770000000  0.5514470000000 1.0
C      1  0.5215690000000  0.4653890000000  0.4729750000000 1.0
C      1  0.5870010000000  0.5532760000000  0.4748220000000 1.0
C      1  0.5528160000000  0.5488220000000  0.5685650000000 1.0
C      1  0.5929230000000  0.5862180000000  0.5102280000000 1.0
C      1  0.4398640000000  0.5268720000000  0.3939110000000 1.0
C      1  0.5525460000000  0.4197150000000  0.4525690000000 1.0
C      1  0.6330540000000  0.4789710000000  0.5184250000000 1.0
C      1  0.4926450000000  0.3646770000000  0.5320180000000 1.0
C      1  0.4038070000000  0.5296590000000  0.4568520000000 1.0
C      1  0.4674420000000  0.4790050000000  0.3797610000000 1.0
C      1  0.5140060000000  0.5952510000000  0.4539290000000 1.0
C      1  0.4636910000000  0.3994270000000  0.4775820000000 1.0
C      1  0.4537580000000  0.6165830000000  0.5529350000000 1.0
C      1  0.4725290000000  0.4602840000000  0.4007620000000 1.0
C      1  0.4034510000000  0.4957000000000  0.4167750000000 1.0
C      1  0.5074710000000  0.5323270000000  0.6236700000000 1.0
C      1  0.5422840000000  0.5860530000000  0.4555100000000 1.0
C      1  0.4800600000000  0.4515640000000  0.6050890000000 1.0
C      1  0.5365980000000  0.5267340000000  0.4550640000000 1.0
C      1  0.4769310000000  0.5341000000000  0.5395330000000 1.0
C      1  0.4748340000000  0.4236940000000  0.6047950000000 1.0
C      1  0.3498180000000  0.5215890000000  0.5337390000000 1.0
C      1  0.5185780000000  0.3949430000000  0.4713730000000 1.0
C      1  0.5776940000000  0.5752350000000  0.4904360000000 1.0
C      1  0.6203270000000  0.5047880000000  0.5207090000000 1.0
C      1  0.5319610000000  0.6220380000000  0.5597460000000 1.0
C      1  0.5535180000000  0.4010590000000  0.5249260000000 1.0
C      1  0.4650690000000  0.5749340000000  0.5176680000000 1.0
C      1  0.4873760000000  0.5170130000000  0.6320390000000 1.0
C      1  0.5088040000000  0.4823020000000  0.5728890000000 1.0
C      1  0.6096310000000  0.4464150000000  0.4902960000000 1.0
C      1  0.5607820000000  0.5728940000000  0.4362970000000 1.0
C      1  0.5601250000000  0.3999210000000  0.4986380000000 1.0
C      1  0.4790130000000  0.5043430000000  0.3728090000000 1.0
C      1  0.4736050000000  0.4121350000000  0.4526210000000 1.0
C      1  0.4546310000000  0.3953270000000  0.5292550000000 1.0
C      1  0.4634380000000  0.5990770000000  0.4759200000000 1.0
C      1  0.5970970000000  0.4377380000000  0.4663920000000 1.0
C      1  0.4111570000000  0.5343900000000  0.5326190000000 1.0
C      1  0.6358860000000  0.4945940000000  0.4486570000000 1.0
C      1  0.4744700000000  0.4499840000000  0.4823560000000 1.0
C      1  0.4752220000000  0.4348310000000  0.5061590000000 1.0
C      1  0.5849950000000  0.4463930000000  0.5384110000000 1.0
C      1  0.5629020000000  0.4259110000000  0.4008790000000 1.0
C      1  0.4811610000000  0.5552950000000  0.4786030000000 1.0
C      1  0.5565370000000  0.5060050000000  0.4592350000000 1.0
C      1  0.4230930000000  0.4467550000000  0.5265490000000 1.0
C      1  0.4489440000000  0.4913610000000  0.6081540000000 1.0
C      1  0.6286590000000  0.4922330000000  0.4753340000000 1.0
C      1  0.5001980000000  0.4593290000000  0.4056750000000 1.0
C      1  0.5247650000000  0.4054030000000  0.5338740000000 1.0
C      1  0.4223430000000  0.5717190000000  0.4941040000000 1.0
C      1  0.5131920000000  0.5312050000000  0.5012510000000 1.0
C      1  0.5541320000000  0.5642270000000  0.4095860000000 1.0
C      1  0.5288770000000  0.4195710000000  0.4345230000000 1.0
C      1  0.6340190000000  0.5104330000000  0.4273230000000 1.0
C      1  0.5389120000000  0.4816580000000  0.4222750000000 1.0
C      1  0.3701280000000  0.4669060000000  0.4874620000000 1.0
C      1  0.5825670000000  0.4748620000000  0.5768930000000 1.0
C      1  0.5072270000000  0.5103630000000  0.3740530000000 1.0
C      1  0.3992060000000  0.4673870000000  0.4149930000000 1.0
C      1  0.4487770000000  0.4648900000000  0.5656130000000 1.0
C      1  0.6119370000000  0.4346090000000  0.5784890000000 1.0
C      1  0.5184470000000  0.4591410000000  0.5619400000000 1.0
C      1  0.5387650000000  0.5404780000000  0.4052680000000 1.0
C      1  0.5602180000000  0.4595560000000  0.5330580000000 1.0
C      1  0.5523240000000  0.5857000000000  0.4827190000000 1.0
C      1  0.5831370000000  0.4301630000000  0.4185670000000 1.0
C      1  0.4940100000000  0.4462420000000  0.5235180000000 1.0
C      1  0.4962320000000  0.5222080000000  0.5220980000000 1.0
C      1  0.5108790000000  0.4797680000000  0.4226090000000 1.0
C      1  0.5346760000000  0.5041350000000  0.5403590000000 1.0
C      1  0.3847800000000  0.4483040000000  0.4750350000000 1.0
C      1  0.4659010000000  0.5016330000000  0.6281700000000 1.0
C      1  0.5394810000000  0.5897610000000  0.5930150000000 1.0
C      1  0.4339240000000  0.4880680000000  0.4828790000000 1.0
C      1  0.5927010000000  0.5058830000000  0.5303670000000 1.0
C      1  0.4168150000000  0.5107700000000  0.3967210000000 1.0
C      1  0.5766670000000  0.5106510000000  0.5038890000000 1.0
C      1  0.4104310000000  0.5562570000000  0.4475030000000 1.0
C      1  0.4566430000000  0.4669410000000  0.5946050000000 1.0
C      1  0.5133000000000  0.5745920000000  0.5441530000000 1.0
C      1  0.4595160000000  0.5740040000000  0.5917020000000 1.0
C      1  0.5412460000000  0.4521320000000  0.5143580000000 1.0
C      1  0.4485270000000  0.5445880000000  0.4182900000000 1.0
C      1  0.5167690000000  0.5718180000000  0.5945250000000 1.0
C      1  0.6283460000000  0.4679680000000  0.4916650000000 1.0
C      1  0.5488960000000  0.5381630000000  0.5955840000000 1.0
C      1  0.5600060000000  0.4896480000000  0.4367030000000 1.0
C      1  0.4839340000000  0.4963700000000  0.5685730000000 1.0
C      1  0.4934050000000  0.4962250000000  0.4386380000000 1.0
C      1  0.6202800000000  0.5151560000000  0.4919200000000 1.0
C      1  0.4335510000000  0.5106730000000  0.5938570000000 1.0
C      1  0.6219770000000  0.5330910000000  0.4201180000000 1.0
C      1  0.5590750000000  0.4944630000000  0.4866660000000 1.0
C      1  0.5551830000000  0.4853930000000  0.5432700000000 1.0
C      1  0.5997040000000  0.4381190000000  0.5157560000000 1.0
C      1  0.5243230000000  0.5381850000000  0.4304560000000 1.0
C      1  0.5786430000000  0.4295770000000  0.4465940000000 1.0
C      1  0.4658180000000  0.5003100000000  0.4317290000000 1.0
C      1  0.4568860000000  0.4546890000000  0.4243800000000 1.0
C      1  0.5080740000000  0.4968120000000  0.5296090000000 1.0
C      1  0.5123070000000  0.5776190000000  0.5160370000000 1.0
C      1  0.5162080000000  0.4399180000000  0.3937710000000 1.0
C      1  0.4897870000000  0.4733960000000  0.5307670000000 1.0
C      1  0.5422060000000  0.4700590000000  0.4913650000000 1.0
C      1  0.4203650000000  0.5846190000000  0.4086010000000 1.0
C      1  0.4231600000000  0.4329450000000  0.4486200000000 1.0
C      1  0.4084860000000  0.5045800000000  0.4438180000000 1.0
C      1  0.4124230000000  0.5463850000000  0.5061200000000 1.0
C      1  0.5514550000000  0.6013670000000  0.5500670000000 1.0
C      1  0.4662080000000  0.4065210000000  0.5846230000000 1.0
C      1  0.5082130000000  0.4591970000000  0.6108400000000 1.0
C      1  0.4397340000000  0.4071580000000  0.5737850000000 1.0
C      1  0.5845470000000  0.5591380000000  0.4467330000000 1.0
C      1  0.4473990000000  0.5856300000000  0.4976640000000 1.0
C      1  0.4258930000000  0.5625610000000  0.4247560000000 1.0
C      1  0.5885470000000  0.5198150000000  0.6266270000000 1.0
C      1  0.5279520000000  0.5248870000000  0.3841170000000 1.0
C      1  0.5114140000000  0.3800340000000  0.5182550000000 1.0
C      1  0.5171890000000  0.5231850000000  0.4751440000000 1.0
C      1  0.5236940000000  0.5467690000000  0.6063570000000 1.0
C      1  0.5690740000000  0.5265290000000  0.6106530000000 1.0
C      1  0.4283040000000  0.4872200000000  0.4557160000000 1.0
C      1  0.4634770000000  0.4086180000000  0.5049490000000 1.0
C      1  0.4245090000000  0.5448850000000  0.5559570000000 1.0
C      1  0.5354580000000  0.4643810000000  0.6073100000000 1.0
C      1  0.4879420000000  0.6006770000000  0.4623060000000 1.0
C      1  0.5102690000000  0.3775680000000  0.4907850000000 1.0
C      1  0.4790020000000  0.6260800000000  0.5502210000000 1.0
C      1  0.4958060000000  0.4599510000000  0.4698450000000 1.0
C      1  0.4990310000000  0.5519480000000  0.4260220000000 1.0
C      1  0.5340260000000  0.6175270000000  0.5885100000000 1.0
C      1  0.4524010000000  0.4304640000000  0.4404940000000 1.0
C      1  0.4737430000000  0.3802260000000  0.5450010000000 1.0
C      1  0.5045070000000  0.4090550000000  0.4493080000000 1.0
C      1  0.4673770000000  0.5612350000000  0.5420340000000 1.0
C      1  0.5546460000000  0.5784660000000  0.5688250000000 1.0
C      1  0.5601200000000  0.4707960000000  0.5961210000000 1.0
C      1  0.5459670000000  0.4037670000000  0.4747590000000 1.0
C      1  0.5059910000000  0.6286260000000  0.5502280000000 1.0
C      1  0.4339700000000  0.4033870000000  0.5472890000000 1.0
C      1  0.4084390000000  0.4869000000000  0.5484330000000 1.0
C      1  0.4688250000000  0.5199500000000  0.5628270000000 1.0
C      1  0.4335220000000  0.5987010000000  0.5560920000000 1.0
C      1  0.5948090000000  0.5287310000000  0.4875750000000 1.0
C      1  0.4734190000000  0.5332040000000  0.4632100000000 1.0
C      1  0.4218920000000  0.4373580000000  0.5012580000000 1.0
C      1  0.4249740000000  0.4639180000000  0.5493020000000 1.0
C      1  0.5424720000000  0.5309380000000  0.5485680000000 1.0
C      1  0.6045010000000  0.5511320000000  0.4288290000000 1.0
C      1  0.5333880000000  0.5893710000000  0.5026490000000 1.0
C      1  0.5199590000000  0.4362610000000  0.5269540000000 1.0
END
