TITL C-612606-7351-946 0.0634726811381736 125000 -120.590561834662 0 0 21 (C1) n - 1
REM
REM in /home/nfs/bkarasulu/CARBON/AIRSS/Generating-Clusters/TERSOFF/Only-C1/FIRE-HFTN
REM
REM
REM
REM
REM
REM ./C.cell (11c1c37f851c82e70ff6c80c92926a4b)
REM AIRSS Version 0.9.1 bugfix July 2018 build 013d7b7c2542+ Fri, 06 Jul 2018 19:26:36 +0100
REM compiler GCC version 9.2.1 20190827 (Red Hat 9.2.1-1)
REM options -cpp -mtune=generic -march=x86-64 -g -O0 -fpre-include=/usr/include/finclude/math-vector-fortran.h
REM seed 640564196 -1300094706 736318439 1681163562 -1782290577 -298958758 173065702 -1608984080 -1209716169 1285419604 1689557367 -942544441 1232474629 -1239382010 -351579691 -676902972 1832679045 -65231510 -1708072773 2071395375 1280713176 -1914245100 2077081020 1653346566 622757321 -2108111917 1736411588 -1862532242 139096910 -1026013551 1953660880 1470570567 -2029395851
REM
CELL 1.54180   50.00000   50.00000   50.00000   90.00000   90.00000   90.00000
LATT -1
SFAC C  
C      1  0.4939330000000  0.5180990000000  0.5221500000000 1.0
C      1  0.5402350000000  0.5058900000000  0.4963290000000 1.0
C      1  0.4918230000000  0.4563610000000  0.4681980000000 1.0
C      1  0.4141510000000  0.4963380000000  0.4708820000000 1.0
C      1  0.5201200000000  0.5169510000000  0.5124260000000 1.0
C      1  0.4380260000000  0.4962420000000  0.4851100000000 1.0
C      1  0.4865010000000  0.5032210000000  0.5454220000000 1.0
C      1  0.5908810000000  0.5255940000000  0.4973870000000 1.0
C      1  0.4544450000000  0.4696510000000  0.5220830000000 1.0
C      1  0.5334510000000  0.4843670000000  0.4796870000000 1.0
C      1  0.6398660000000  0.5446640000000  0.4984280000000 1.0
C      1  0.6155770000000  0.5352080000000  0.4979120000000 1.0
C      1  0.4958000000000  0.5097010000000  0.5702400000000 1.0
C      1  0.4501580000000  0.4720530000000  0.4943380000000 1.0
C      1  0.4732370000000  0.5278370000000  0.5057480000000 1.0
C      1  0.5163320000000  0.4666790000000  0.4696060000000 1.0
C      1  0.4519730000000  0.5198140000000  0.4916380000000 1.0
C      1  0.3918010000000  0.4961150000000  0.4574810000000 1.0
C      1  0.4688460000000  0.4817050000000  0.5411490000000 1.0
C      1  0.4666420000000  0.4575240000000  0.4769220000000 1.0
C      1  0.5662030000000  0.5159870000000  0.4968630000000 1.0
END
