TITL C-612605-9286-283 0.0431112743643157 125000 -830.809994514996 0 0 136 (C1) n - 1
REM
REM in /home/nfs/bkarasulu/CARBON/AIRSS/Generating-Clusters/TERSOFF/Only-C1/FIRE-HFTN
REM
REM
REM
REM
REM
REM ./C.cell (11c1c37f851c82e70ff6c80c92926a4b)
REM AIRSS Version 0.9.1 bugfix July 2018 build 013d7b7c2542+ Fri, 06 Jul 2018 19:26:36 +0100
REM compiler GCC version 9.2.1 20190827 (Red Hat 9.2.1-1)
REM options -cpp -mtune=generic -march=x86-64 -g -O0 -fpre-include=/usr/include/finclude/math-vector-fortran.h
REM seed 437138805 -1664968768 567919973 -601893518 -1400316522 -1638841898 -1980408232 1702260967 -449881253 2128204948 1970190293 1375558176 1565904016 -2034662308 -1483993990 -1225413865 -322793883 1844097518 -282636077 -1892689700 1034581945 -1534268779 708591346 212264184 -952212558 1187644162 -235027483 555119515 -1135353079 218776700 -1691688893 492000375 1642225774
REM
CELL 1.54180   50.00000   50.00000   50.00000   90.00000   90.00000   90.00000
LATT -1
SFAC C  
C      1  0.5159930000000  0.4621740000000  0.4153040000000 1.0
C      1  0.5825010000000  0.4294240000000  0.6096280000000 1.0
C      1  0.4039880000000  0.4770760000000  0.5427170000000 1.0
C      1  0.4663660000000  0.4421340000000  0.4500990000000 1.0
C      1  0.5672240000000  0.4876120000000  0.4279880000000 1.0
C      1  0.4540690000000  0.5782420000000  0.5044990000000 1.0
C      1  0.4629570000000  0.4786610000000  0.4821870000000 1.0
C      1  0.4902970000000  0.5882820000000  0.4750290000000 1.0
C      1  0.5306140000000  0.5426620000000  0.4170600000000 1.0
C      1  0.5045020000000  0.5523780000000  0.4120790000000 1.0
C      1  0.5068060000000  0.5201250000000  0.5602270000000 1.0
C      1  0.5648440000000  0.4225500000000  0.6286170000000 1.0
C      1  0.5702230000000  0.4221590000000  0.5606560000000 1.0
C      1  0.4337730000000  0.6335490000000  0.5314760000000 1.0
C      1  0.4211700000000  0.4976450000000  0.4602710000000 1.0
C      1  0.4789830000000  0.4596730000000  0.4686550000000 1.0
C      1  0.3359700000000  0.5215810000000  0.4943630000000 1.0
C      1  0.4017110000000  0.4724110000000  0.5704190000000 1.0
C      1  0.3861770000000  0.5855120000000  0.5289330000000 1.0
C      1  0.4345170000000  0.5286110000000  0.5819390000000 1.0
C      1  0.4697740000000  0.4729930000000  0.5551930000000 1.0
C      1  0.4595730000000  0.4961830000000  0.4014540000000 1.0
C      1  0.4960540000000  0.5001590000000  0.4369670000000 1.0
C      1  0.5832250000000  0.4288020000000  0.5829100000000 1.0
C      1  0.5043520000000  0.5073120000000  0.3777870000000 1.0
C      1  0.5046060000000  0.4710990000000  0.5032330000000 1.0
C      1  0.5452660000000  0.3881400000000  0.4742450000000 1.0
C      1  0.6089330000000  0.5802390000000  0.5070860000000 1.0
C      1  0.4209520000000  0.5410510000000  0.4385070000000 1.0
C      1  0.6096040000000  0.5090890000000  0.4311090000000 1.0
C      1  0.4498700000000  0.4244810000000  0.4988420000000 1.0
C      1  0.5602970000000  0.5066450000000  0.4708730000000 1.0
C      1  0.5049660000000  0.4107480000000  0.4415690000000 1.0
C      1  0.4385220000000  0.6299150000000  0.5573800000000 1.0
C      1  0.4801700000000  0.5197280000000  0.5710040000000 1.0
C      1  0.5466910000000  0.4833240000000  0.4799740000000 1.0
C      1  0.5695400000000  0.5517820000000  0.5012510000000 1.0
C      1  0.4562430000000  0.5897420000000  0.5788010000000 1.0
C      1  0.4100360000000  0.5756140000000  0.5254190000000 1.0
C      1  0.4591340000000  0.6322440000000  0.6015050000000 1.0
C      1  0.4505910000000  0.6173920000000  0.5792120000000 1.0
C      1  0.4683320000000  0.6064950000000  0.4713950000000 1.0
C      1  0.5484420000000  0.5933660000000  0.5095840000000 1.0
C      1  0.4741890000000  0.6308010000000  0.6235870000000 1.0
C      1  0.4801090000000  0.5138310000000  0.3919860000000 1.0
C      1  0.5232140000000  0.4049060000000  0.6080940000000 1.0
C      1  0.3860110000000  0.5033910000000  0.5038840000000 1.0
C      1  0.5238110000000  0.4070190000000  0.5544310000000 1.0
C      1  0.4431380000000  0.4830950000000  0.4187490000000 1.0
C      1  0.4391090000000  0.4999620000000  0.5856700000000 1.0
C      1  0.5716570000000  0.4771090000000  0.3796970000000 1.0
C      1  0.5509340000000  0.4347300000000  0.4312660000000 1.0
C      1  0.4307710000000  0.4752080000000  0.4439220000000 1.0
C      1  0.5211380000000  0.5317620000000  0.4652460000000 1.0
C      1  0.4552970000000  0.4936010000000  0.5026620000000 1.0
C      1  0.4676440000000  0.5660970000000  0.5890280000000 1.0
C      1  0.5255970000000  0.4721150000000  0.4628760000000 1.0
C      1  0.5015440000000  0.4063190000000  0.5367110000000 1.0
C      1  0.5050230000000  0.4601940000000  0.4779040000000 1.0
C      1  0.3599560000000  0.5123650000000  0.4987080000000 1.0
C      1  0.5255840000000  0.5565530000000  0.5305210000000 1.0
C      1  0.4898090000000  0.3816680000000  0.5306870000000 1.0
C      1  0.4622330000000  0.4333960000000  0.5231400000000 1.0
C      1  0.5163550000000  0.5977100000000  0.4724990000000 1.0
C      1  0.5364780000000  0.5303150000000  0.4415370000000 1.0
C      1  0.4346780000000  0.5642020000000  0.5190650000000 1.0
C      1  0.4402470000000  0.5376280000000  0.5248050000000 1.0
C      1  0.4641130000000  0.4945350000000  0.5727440000000 1.0
C      1  0.4938740000000  0.4454170000000  0.4108340000000 1.0
C      1  0.4983820000000  0.4722350000000  0.5488410000000 1.0
C      1  0.3941320000000  0.5015370000000  0.5314220000000 1.0
C      1  0.4901530000000  0.4302890000000  0.5272430000000 1.0
C      1  0.5843740000000  0.4699260000000  0.4447170000000 1.0
C      1  0.4504230000000  0.4560950000000  0.5381390000000 1.0
C      1  0.5236080000000  0.5432860000000  0.5560290000000 1.0
C      1  0.4816600000000  0.5664450000000  0.4960590000000 1.0
C      1  0.5037740000000  0.5223190000000  0.4860200000000 1.0
C      1  0.4794300000000  0.5383590000000  0.4845450000000 1.0
C      1  0.5957920000000  0.5323950000000  0.4210080000000 1.0
C      1  0.5488320000000  0.3899050000000  0.4462160000000 1.0
C      1  0.4990000000000  0.3931690000000  0.4634240000000 1.0
C      1  0.4231340000000  0.4619490000000  0.5285590000000 1.0
C      1  0.5401180000000  0.4122100000000  0.6274760000000 1.0
C      1  0.5495150000000  0.5657800000000  0.5166220000000 1.0
C      1  0.4154160000000  0.4531340000000  0.5022870000000 1.0
C      1  0.4820270000000  0.5400490000000  0.4032510000000 1.0
C      1  0.6142850000000  0.4914400000000  0.4774350000000 1.0
C      1  0.6024070000000  0.4892110000000  0.5016860000000 1.0
C      1  0.5536490000000  0.4818050000000  0.5091570000000 1.0
C      1  0.4380400000000  0.4484630000000  0.4554790000000 1.0
C      1  0.5465960000000  0.5321880000000  0.3953090000000 1.0
C      1  0.6070080000000  0.4875850000000  0.4503970000000 1.0
C      1  0.5750780000000  0.5322420000000  0.4005820000000 1.0
C      1  0.5167980000000  0.4952680000000  0.5493790000000 1.0
C      1  0.5866030000000  0.4450470000000  0.5002550000000 1.0
C      1  0.5557830000000  0.4062210000000  0.5174230000000 1.0
C      1  0.5569410000000  0.5100880000000  0.4428480000000 1.0
C      1  0.4886070000000  0.6117220000000  0.6357710000000 1.0
C      1  0.4573430000000  0.5313190000000  0.4683250000000 1.0
C      1  0.4493170000000  0.6041910000000  0.4923080000000 1.0
C      1  0.5146790000000  0.4802500000000  0.4373530000000 1.0
C      1  0.5333030000000  0.4975260000000  0.5247710000000 1.0
C      1  0.4334260000000  0.5234790000000  0.4555090000000 1.0
C      1  0.5584440000000  0.4081630000000  0.4894400000000 1.0
C      1  0.5718120000000  0.4320070000000  0.4790610000000 1.0
C      1  0.4845250000000  0.5686190000000  0.6114430000000 1.0
C      1  0.5500650000000  0.4116660000000  0.5442460000000 1.0
C      1  0.5030310000000  0.4554450000000  0.5265250000000 1.0
C      1  0.4773330000000  0.3590470000000  0.5272420000000 1.0
C      1  0.5341760000000  0.4116580000000  0.4348730000000 1.0
C      1  0.5383850000000  0.5528310000000  0.5771240000000 1.0
C      1  0.5111050000000  0.4998240000000  0.5041830000000 1.0
C      1  0.5918750000000  0.5666080000000  0.4906350000000 1.0
C      1  0.4307130000000  0.4393480000000  0.4825640000000 1.0
C      1  0.5810060000000  0.4718280000000  0.5090540000000 1.0
C      1  0.5369750000000  0.6045690000000  0.4880580000000 1.0
C      1  0.5191910000000  0.4032780000000  0.5818320000000 1.0
C      1  0.4023350000000  0.4968480000000  0.4815110000000 1.0
C      1  0.5423320000000  0.4532210000000  0.4108940000000 1.0
C      1  0.4105500000000  0.5349000000000  0.5685080000000 1.0
C      1  0.6082250000000  0.4319270000000  0.5111180000000 1.0
C      1  0.5710430000000  0.4439780000000  0.4517220000000 1.0
C      1  0.4482320000000  0.5131730000000  0.5189320000000 1.0
C      1  0.5961710000000  0.5655430000000  0.4627250000000 1.0
C      1  0.5601630000000  0.4740990000000  0.4041010000000 1.0
C      1  0.4847080000000  0.4291720000000  0.4322150000000 1.0
C      1  0.5011000000000  0.5649820000000  0.5188130000000 1.0
C      1  0.5302350000000  0.5164200000000  0.3777270000000 1.0
C      1  0.4183640000000  0.4817090000000  0.5894230000000 1.0
C      1  0.5178700000000  0.3824680000000  0.4800060000000 1.0
C      1  0.5661860000000  0.5267680000000  0.4893680000000 1.0
C      1  0.4611090000000  0.5405840000000  0.5792620000000 1.0
C      1  0.4928370000000  0.5858160000000  0.6301840000000 1.0
C      1  0.3955580000000  0.5239830000000  0.5488340000000 1.0
C      1  0.5973040000000  0.5548840000000  0.4382380000000 1.0
C      1  0.4370410000000  0.6245750000000  0.5065970000000 1.0
END
