TITL C-612601-4209-1024 167.058727345588 125000 -721.435073374905 0 0 118 (C1) n - 1
REM
REM in /home/nfs/bkarasulu/CARBON/AIRSS/Generating-Clusters/TERSOFF/Only-C1/FIRE-HFTN
REM
REM
REM
REM
REM
REM ./C.cell (11c1c37f851c82e70ff6c80c92926a4b)
REM AIRSS Version 0.9.1 bugfix July 2018 build 013d7b7c2542+ Fri, 06 Jul 2018 19:26:36 +0100
REM compiler GCC version 9.2.1 20190827 (Red Hat 9.2.1-1)
REM options -cpp -mtune=generic -march=x86-64 -g -O0 -fpre-include=/usr/include/finclude/math-vector-fortran.h
REM seed 1337104742 -1543846936 -645405795 982616008 -1274181218 429713391 154894508 -1205184725 1375816974 1416195440 -771709124 -1411048199 1842232568 -1405060988 1802687198 -1897476565 1140908458 169747930 788622506 900285735 2027457991 230036371 1774675501 656323196 -1788470791 -1726795606 1915477967 577607694 1680536562 -1228766563 1666557509 1823399948 1167977774
REM
CELL 1.54180   50.00000   50.00000   50.00000   90.00000   90.00000   90.00000
LATT -1
SFAC C  
C      1  0.5341320000000  0.5984690000000  0.4782840000000 1.0
C      1  0.5668720000000  0.5351930000000  0.5818440000000 1.0
C      1  0.4547010000000  0.4731640000000  0.5356250000000 1.0
C      1  0.5185250000000  0.4617090000000  0.5052370000000 1.0
C      1  0.4398000000000  0.5042460000000  0.4031940000000 1.0
C      1  0.5185120000000  0.4753350000000  0.4363540000000 1.0
C      1  0.4967590000000  0.3770350000000  0.5266340000000 1.0
C      1  0.5155070000000  0.4107130000000  0.4837300000000 1.0
C      1  0.6012260000000  0.4637050000000  0.5010680000000 1.0
C      1  0.5571710000000  0.4878310000000  0.5537070000000 1.0
C      1  0.4248090000000  0.5765850000000  0.4688660000000 1.0
C      1  0.3929000000000  0.5008310000000  0.5161700000000 1.0
C      1  0.4450840000000  0.4162280000000  0.5137460000000 1.0
C      1  0.5159780000000  0.5135970000000  0.5379380000000 1.0
C      1  0.5057240000000  0.6033930000000  0.5246810000000 1.0
C      1  0.6091040000000  0.4895540000000  0.5095110000000 1.0
C      1  0.4139090000000  0.4544580000000  0.5110980000000 1.0
C      1  0.5346000000000  0.5977540000000  0.5673650000000 1.0
C      1  0.5853840000000  0.5379530000000  0.5621460000000 1.0
C      1  0.5377940000000  0.5430130000000  0.4212830000000 1.0
C      1  0.5509590000000  0.4721420000000  0.4723460000000 1.0
C      1  0.4551130000000  0.5266220000000  0.4123000000000 1.0
C      1  0.4243450000000  0.4439120000000  0.4560730000000 1.0
C      1  0.5254920000000  0.5128690000000  0.4652550000000 1.0
C      1  0.5316040000000  0.5783380000000  0.5853910000000 1.0
C      1  0.5407370000000  0.5294760000000  0.5908780000000 1.0
C      1  0.5402020000000  0.5456980000000  0.4950060000000 1.0
C      1  0.4493880000000  0.4492520000000  0.4656240000000 1.0
C      1  0.4563050000000  0.5191540000000  0.5130180000000 1.0
C      1  0.4329630000000  0.5899060000000  0.5137890000000 1.0
C      1  0.3938030000000  0.4740250000000  0.5126500000000 1.0
C      1  0.5604500000000  0.5986430000000  0.4890550000000 1.0
C      1  0.5079270000000  0.4401240000000  0.5194460000000 1.0
C      1  0.4365460000000  0.5226830000000  0.5720260000000 1.0
C      1  0.4930650000000  0.4097380000000  0.4254960000000 1.0
C      1  0.4948650000000  0.4981120000000  0.4006690000000 1.0
C      1  0.4815250000000  0.5684870000000  0.4269740000000 1.0
C      1  0.4824250000000  0.5258990000000  0.4007670000000 1.0
C      1  0.5133790000000  0.6034050000000  0.4972300000000 1.0
C      1  0.4400950000000  0.4658690000000  0.5122960000000 1.0
C      1  0.5203000000000  0.4951240000000  0.4142340000000 1.0
C      1  0.5403030000000  0.4529360000000  0.4888440000000 1.0
C      1  0.5898150000000  0.5208390000000  0.4678120000000 1.0
C      1  0.5015860000000  0.3860680000000  0.4718140000000 1.0
C      1  0.5224280000000  0.4767290000000  0.5841130000000 1.0
C      1  0.4837790000000  0.4447790000000  0.5690930000000 1.0
C      1  0.4558920000000  0.5098530000000  0.4861160000000 1.0
C      1  0.4727290000000  0.4418110000000  0.4508680000000 1.0
C      1  0.4721650000000  0.3982980000000  0.4699560000000 1.0
C      1  0.4996980000000  0.4204750000000  0.5604900000000 1.0
C      1  0.5337560000000  0.4875720000000  0.4573500000000 1.0
C      1  0.5318580000000  0.5859400000000  0.4527520000000 1.0
C      1  0.4204050000000  0.5712290000000  0.4965870000000 1.0
C      1  0.5937190000000  0.5177210000000  0.5442110000000 1.0
C      1  0.5422380000000  0.5149860000000  0.4170770000000 1.0
C      1  0.4937640000000  0.4682870000000  0.5829320000000 1.0
C      1  0.5992110000000  0.5154150000000  0.5162250000000 1.0
C      1  0.4889510000000  0.4391300000000  0.4057010000000 1.0
C      1  0.4389650000000  0.5865440000000  0.4480220000000 1.0
C      1  0.4050900000000  0.5248200000000  0.5255290000000 1.0
C      1  0.5242370000000  0.5049660000000  0.5932080000000 1.0
C      1  0.4518620000000  0.4809610000000  0.4151740000000 1.0
C      1  0.4489910000000  0.5473310000000  0.5780220000000 1.0
C      1  0.4801430000000  0.5795540000000  0.5596080000000 1.0
C      1  0.4954670000000  0.5434110000000  0.5902130000000 1.0
C      1  0.4907860000000  0.5067980000000  0.5424150000000 1.0
C      1  0.4804380000000  0.5953130000000  0.5359180000000 1.0
C      1  0.4776650000000  0.4719030000000  0.4028030000000 1.0
C      1  0.5868220000000  0.5020210000000  0.4466600000000 1.0
C      1  0.5685340000000  0.4385320000000  0.5365950000000 1.0
C      1  0.4504110000000  0.4999850000000  0.5829110000000 1.0
C      1  0.5845700000000  0.4926620000000  0.5546850000000 1.0
C      1  0.5411940000000  0.5055360000000  0.5389130000000 1.0
C      1  0.5683040000000  0.5062420000000  0.4254880000000 1.0
C      1  0.4908660000000  0.5537420000000  0.4038160000000 1.0
C      1  0.4555020000000  0.6000340000000  0.5239140000000 1.0
C      1  0.4186000000000  0.4261860000000  0.5068230000000 1.0
C      1  0.5980700000000  0.4764590000000  0.4517460000000 1.0
C      1  0.5259960000000  0.6073830000000  0.5439860000000 1.0
C      1  0.5447060000000  0.4427330000000  0.5518850000000 1.0
C      1  0.5196520000000  0.5368650000000  0.4778550000000 1.0
C      1  0.4735010000000  0.4147530000000  0.4457370000000 1.0
C      1  0.5092140000000  0.3893120000000  0.4399970000000 1.0
C      1  0.4461230000000  0.5133770000000  0.4585600000000 1.0
C      1  0.5868960000000  0.5300450000000  0.4946770000000 1.0
C      1  0.4788250000000  0.5498600000000  0.4494920000000 1.0
C      1  0.4168700000000  0.5232080000000  0.5515770000000 1.0
C      1  0.5678410000000  0.5507940000000  0.4987350000000 1.0
C      1  0.4945690000000  0.3935690000000  0.5490270000000 1.0
C      1  0.6023930000000  0.4603250000000  0.4729680000000 1.0
C      1  0.4514520000000  0.4248950000000  0.5402270000000 1.0
C      1  0.5004140000000  0.4821300000000  0.4989850000000 1.0
C      1  0.4542120000000  0.4895020000000  0.4429680000000 1.0
C      1  0.4602210000000  0.5873300000000  0.4308940000000 1.0
C      1  0.4551260000000  0.4641410000000  0.4888500000000 1.0
C      1  0.4953150000000  0.4213990000000  0.5025610000000 1.0
C      1  0.4556720000000  0.5339070000000  0.4412950000000 1.0
C      1  0.5198410000000  0.4324500000000  0.5437600000000 1.0
C      1  0.5228000000000  0.5525220000000  0.5910250000000 1.0
C      1  0.4955840000000  0.5146740000000  0.5946490000000 1.0
C      1  0.4651140000000  0.5457300000000  0.5148920000000 1.0
C      1  0.4752860000000  0.4860180000000  0.4846990000000 1.0
C      1  0.5364510000000  0.5666480000000  0.4343550000000 1.0
C      1  0.4087710000000  0.5478240000000  0.5085710000000 1.0
C      1  0.4678470000000  0.4115640000000  0.4964120000000 1.0
C      1  0.5748970000000  0.5780670000000  0.4987780000000 1.0
C      1  0.4791930000000  0.4845620000000  0.4555070000000 1.0
C      1  0.4749050000000  0.5581820000000  0.5772700000000 1.0
C      1  0.5431300000000  0.4671290000000  0.5667200000000 1.0
C      1  0.4941690000000  0.5494370000000  0.4735700000000 1.0
C      1  0.4992600000000  0.3698530000000  0.4996340000000 1.0
C      1  0.4615240000000  0.4493330000000  0.5513200000000 1.0
C      1  0.4935850000000  0.4622980000000  0.4458870000000 1.0
C      1  0.5874110000000  0.4464570000000  0.5189540000000 1.0
C      1  0.4652830000000  0.5001330000000  0.5332010000000 1.0
C      1  0.4809630000000  0.5578470000000  0.4969430000000 1.0
C      1  0.4772970000000  0.4926750000000  0.5891490000000 1.0
C      1  0.5388970000000  0.4257480000000  0.4810180000000 1.0
END
