TITL C-612603-7354-893 326.204159953539 125000 -905.891555181176 0 0 149 (C1) n - 1
REM
REM in /home/nfs/bkarasulu/CARBON/AIRSS/Generating-Clusters/TERSOFF/Only-C1/FIRE-HFTN
REM
REM
REM
REM
REM
REM ./C.cell (11c1c37f851c82e70ff6c80c92926a4b)
REM AIRSS Version 0.9.1 bugfix July 2018 build 013d7b7c2542+ Fri, 06 Jul 2018 19:26:36 +0100
REM compiler GCC version 9.2.1 20190827 (Red Hat 9.2.1-1)
REM options -cpp -mtune=generic -march=x86-64 -g -O0 -fpre-include=/usr/include/finclude/math-vector-fortran.h
REM seed 1145956345 1811414606 -1474474399 -1491581157 -866226837 -164315269 -585425120 -867616149 -689290543 118493644 -864876192 -1720908439 -1922124015 1407615379 -653151572 1200516912 -1920768109 1500721553 1682956280 1092306480 -2146674343 830660728 -404830761 -1722687227 1530732516 -1377931384 -1883765677 -978463757 597142264 -509746338 -2096274803 448830521 -934440710
REM
CELL 1.54180   50.00000   50.00000   50.00000   90.00000   90.00000   90.00000
LATT -1
SFAC C  
C      1  0.4225560000000  0.4215010000000  0.5161340000000 1.0
C      1  0.5807550000000  0.5768160000000  0.5620540000000 1.0
C      1  0.5726860000000  0.4871550000000  0.5627150000000 1.0
C      1  0.5535940000000  0.3861500000000  0.5472380000000 1.0
C      1  0.4521930000000  0.4701660000000  0.3950430000000 1.0
C      1  0.4963610000000  0.4879800000000  0.4509940000000 1.0
C      1  0.5044360000000  0.6302440000000  0.5213120000000 1.0
C      1  0.4235970000000  0.4700090000000  0.5221460000000 1.0
C      1  0.5443390000000  0.5775230000000  0.4823300000000 1.0
C      1  0.5411620000000  0.5304090000000  0.5588540000000 1.0
C      1  0.4268960000000  0.5526680000000  0.4785380000000 1.0
C      1  0.4324870000000  0.4821090000000  0.4793210000000 1.0
C      1  0.4703880000000  0.4934150000000  0.3977700000000 1.0
C      1  0.5560220000000  0.4648540000000  0.5560350000000 1.0
C      1  0.4920170000000  0.5639310000000  0.4209950000000 1.0
C      1  0.4398560000000  0.5334010000000  0.5672850000000 1.0
C      1  0.4862850000000  0.4508220000000  0.4812450000000 1.0
C      1  0.5414610000000  0.5165990000000  0.3998930000000 1.0
C      1  0.4916480000000  0.4448990000000  0.3858180000000 1.0
C      1  0.5567780000000  0.4506920000000  0.4152910000000 1.0
C      1  0.4947230000000  0.4491840000000  0.5091990000000 1.0
C      1  0.5287170000000  0.3714090000000  0.4727140000000 1.0
C      1  0.4437930000000  0.5139600000000  0.5874520000000 1.0
C      1  0.5462980000000  0.4617040000000  0.5288280000000 1.0
C      1  0.5281940000000  0.4468310000000  0.4169990000000 1.0
C      1  0.5553280000000  0.4379390000000  0.4657930000000 1.0
C      1  0.4668900000000  0.5832820000000  0.5047010000000 1.0
C      1  0.5109710000000  0.5237220000000  0.4770560000000 1.0
C      1  0.5357650000000  0.5179060000000  0.5837650000000 1.0
C      1  0.5732790000000  0.5794040000000  0.4853920000000 1.0
C      1  0.5629060000000  0.5032140000000  0.5168650000000 1.0
C      1  0.5414210000000  0.5130560000000  0.5356640000000 1.0
C      1  0.5090660000000  0.4620460000000  0.4009730000000 1.0
C      1  0.5815960000000  0.5336780000000  0.4269570000000 1.0
C      1  0.3655060000000  0.4858970000000  0.4424510000000 1.0
C      1  0.5139220000000  0.4467530000000  0.6061200000000 1.0
C      1  0.5684850000000  0.4742730000000  0.5133530000000 1.0
C      1  0.5975170000000  0.4182830000000  0.5854140000000 1.0
C      1  0.5735490000000  0.5201180000000  0.4971380000000 1.0
C      1  0.4290920000000  0.4720630000000  0.5666700000000 1.0
C      1  0.5154580000000  0.4207240000000  0.5998330000000 1.0
C      1  0.4422800000000  0.3816190000000  0.5661360000000 1.0
C      1  0.4270320000000  0.5809980000000  0.4384230000000 1.0
C      1  0.5276620000000  0.4692400000000  0.4841110000000 1.0
C      1  0.4674970000000  0.5342410000000  0.5287630000000 1.0
C      1  0.5391890000000  0.5720560000000  0.4345570000000 1.0
C      1  0.5488320000000  0.4652690000000  0.4665380000000 1.0
C      1  0.6173870000000  0.4361740000000  0.5875290000000 1.0
C      1  0.5582210000000  0.4042010000000  0.4967620000000 1.0
C      1  0.4128390000000  0.5607300000000  0.4525930000000 1.0
C      1  0.5972560000000  0.5588830000000  0.5219200000000 1.0
C      1  0.5570070000000  0.4861000000000  0.4513420000000 1.0
C      1  0.3974840000000  0.5199010000000  0.5111360000000 1.0
C      1  0.4207760000000  0.4267630000000  0.4622940000000 1.0
C      1  0.5698500000000  0.4299730000000  0.4903860000000 1.0
C      1  0.4963610000000  0.4948550000000  0.5500340000000 1.0
C      1  0.5535790000000  0.5826270000000  0.5550580000000 1.0
C      1  0.5953370000000  0.5552960000000  0.5498450000000 1.0
C      1  0.5006000000000  0.5404260000000  0.4104640000000 1.0
C      1  0.4287730000000  0.5818350000000  0.5353040000000 1.0
C      1  0.4821980000000  0.6458820000000  0.5248640000000 1.0
C      1  0.4435540000000  0.5302440000000  0.4673280000000 1.0
C      1  0.5964020000000  0.5020620000000  0.5674500000000 1.0
C      1  0.4920530000000  0.4143140000000  0.4363860000000 1.0
C      1  0.4421100000000  0.4657400000000  0.4582180000000 1.0
C      1  0.6246110000000  0.4617790000000  0.5846930000000 1.0
C      1  0.4646700000000  0.4470940000000  0.3853220000000 1.0
C      1  0.4804330000000  0.5863710000000  0.4347770000000 1.0
C      1  0.5275550000000  0.4974930000000  0.5990900000000 1.0
C      1  0.5373930000000  0.4176390000000  0.4560100000000 1.0
C      1  0.4056830000000  0.5110860000000  0.5384680000000 1.0
C      1  0.5441320000000  0.6070170000000  0.5423390000000 1.0
C      1  0.4888830000000  0.5853410000000  0.5747280000000 1.0
C      1  0.4524400000000  0.4936990000000  0.4979030000000 1.0
C      1  0.5591840000000  0.4431430000000  0.5727350000000 1.0
C      1  0.4950900000000  0.5797050000000  0.5041550000000 1.0
C      1  0.4793180000000  0.5612670000000  0.5691480000000 1.0
C      1  0.5009620000000  0.6069570000000  0.5651510000000 1.0
C      1  0.4696000000000  0.4528480000000  0.5544390000000 1.0
C      1  0.5052970000000  0.6206860000000  0.4710850000000 1.0
C      1  0.3772480000000  0.5086730000000  0.4967420000000 1.0
C      1  0.5350050000000  0.5343050000000  0.4672390000000 1.0
C      1  0.3966300000000  0.3965100000000  0.5694890000000 1.0
C      1  0.4763810000000  0.4800110000000  0.5653460000000 1.0
C      1  0.4107850000000  0.5453030000000  0.5040170000000 1.0
C      1  0.4920180000000  0.5144640000000  0.4582560000000 1.0
C      1  0.6177370000000  0.4866820000000  0.5776550000000 1.0
C      1  0.4737240000000  0.4554610000000  0.5264570000000 1.0
C      1  0.5581070000000  0.6211970000000  0.5218140000000 1.0
C      1  0.5385600000000  0.5584680000000  0.5557570000000 1.0
C      1  0.4633440000000  0.4494580000000  0.4664710000000 1.0
C      1  0.4605310000000  0.5182970000000  0.5084200000000 1.0
C      1  0.4164870000000  0.5569750000000  0.5307700000000 1.0
C      1  0.4637130000000  0.5431550000000  0.5551380000000 1.0
C      1  0.5520120000000  0.3972090000000  0.5730050000000 1.0
C      1  0.4624380000000  0.3659700000000  0.5714230000000 1.0
C      1  0.4523040000000  0.5924750000000  0.5272050000000 1.0
C      1  0.4946930000000  0.6050160000000  0.4515080000000 1.0
C      1  0.5232840000000  0.4581140000000  0.5114870000000 1.0
C      1  0.4669270000000  0.4067750000000  0.4437670000000 1.0
C      1  0.5135670000000  0.5155600000000  0.4034370000000 1.0
C      1  0.5178030000000  0.6293610000000  0.4954680000000 1.0
C      1  0.5704960000000  0.4182000000000  0.5781900000000 1.0
C      1  0.4667760000000  0.5251970000000  0.4557150000000 1.0
C      1  0.5461320000000  0.6307430000000  0.4991340000000 1.0
C      1  0.4005670000000  0.5392940000000  0.4381080000000 1.0
C      1  0.4034850000000  0.5142610000000  0.4255000000000 1.0
C      1  0.5164710000000  0.6158360000000  0.5437030000000 1.0
C      1  0.4416000000000  0.4083260000000  0.4540590000000 1.0
C      1  0.5817140000000  0.4538700000000  0.4259070000000 1.0
C      1  0.5369460000000  0.5617710000000  0.4596620000000 1.0
C      1  0.5584410000000  0.3911190000000  0.5214260000000 1.0
C      1  0.4522380000000  0.5156510000000  0.4020850000000 1.0
C      1  0.4140360000000  0.4842770000000  0.5446830000000 1.0
C      1  0.4084830000000  0.4665670000000  0.4251230000000 1.0
C      1  0.3906460000000  0.4888380000000  0.4324570000000 1.0
C      1  0.4411670000000  0.4453430000000  0.5593180000000 1.0
C      1  0.5138950000000  0.5061700000000  0.5294140000000 1.0
C      1  0.4521640000000  0.5888980000000  0.4330230000000 1.0
C      1  0.5280530000000  0.4000980000000  0.5878770000000 1.0
C      1  0.5039550000000  0.4689540000000  0.4693690000000 1.0
C      1  0.5658320000000  0.5245470000000  0.4073450000000 1.0
C      1  0.4508830000000  0.4886730000000  0.5772430000000 1.0
C      1  0.5869280000000  0.5838320000000  0.5105340000000 1.0
C      1  0.5610160000000  0.5228240000000  0.4705970000000 1.0
C      1  0.5808820000000  0.5380080000000  0.4544080000000 1.0
C      1  0.5838930000000  0.4552740000000  0.4969510000000 1.0
C      1  0.4263390000000  0.4773860000000  0.4047720000000 1.0
C      1  0.4528280000000  0.4728160000000  0.5176480000000 1.0
C      1  0.6004120000000  0.4625890000000  0.4742910000000 1.0
C      1  0.5941150000000  0.5405130000000  0.4999780000000 1.0
C      1  0.4208540000000  0.4510030000000  0.4451970000000 1.0
C      1  0.4146960000000  0.4636470000000  0.4955300000000 1.0
C      1  0.4161180000000  0.4345010000000  0.4909120000000 1.0
C      1  0.5218960000000  0.5798800000000  0.4999470000000 1.0
C      1  0.4286970000000  0.4231530000000  0.5447590000000 1.0
C      1  0.4410690000000  0.5191960000000  0.6140200000000 1.0
C      1  0.5980970000000  0.4590010000000  0.4471700000000 1.0
C      1  0.4221540000000  0.4001370000000  0.5603450000000 1.0
C      1  0.5403970000000  0.3958820000000  0.4749470000000 1.0
C      1  0.5071980000000  0.5156220000000  0.5037510000000 1.0
C      1  0.4491630000000  0.5726270000000  0.4854090000000 1.0
C      1  0.4991030000000  0.4904750000000  0.4009150000000 1.0
C      1  0.4170970000000  0.5351680000000  0.5504560000000 1.0
C      1  0.5898930000000  0.5567180000000  0.4743020000000 1.0
C      1  0.4253050000000  0.5074190000000  0.4079190000000 1.0
C      1  0.5187090000000  0.4252140000000  0.4353870000000 1.0
C      1  0.5194620000000  0.4729630000000  0.6061890000000 1.0
C      1  0.5988740000000  0.5297370000000  0.5616210000000 1.0
END
