TITL C-612600-6631-793 0.176390905065058 125000 -471.648755569971 0 0 79 (C1) n - 1
REM
REM in /home/nfs/bkarasulu/CARBON/AIRSS/Generating-Clusters/TERSOFF/Only-C1/FIRE-HFTN
REM
REM
REM
REM
REM
REM ./C.cell (11c1c37f851c82e70ff6c80c92926a4b)
REM AIRSS Version 0.9.1 bugfix July 2018 build 013d7b7c2542+ Fri, 06 Jul 2018 19:26:36 +0100
REM compiler GCC version 9.2.1 20190827 (Red Hat 9.2.1-1)
REM options -cpp -mtune=generic -march=x86-64 -g -O0 -fpre-include=/usr/include/finclude/math-vector-fortran.h
REM seed 267124151 1742177124 1169171205 522115825 271346925 549674104 1832891392 113198686 -523923175 277689329 1331780266 -1731698264 1328863324 -2082880173 377965441 -275479337 502050567 924200110 -916269655 412458201 -1054619798 -1724524203 116182814 1079674897 -1059087726 -501377969 1044020430 1224744883 -750116138 1512748572 -1259121850 -896402041 1507458768
REM
CELL 1.54180   50.00000   50.00000   50.00000   90.00000   90.00000   90.00000
LATT -1
SFAC C  
C      1  0.5117960000000  0.4619800000000  0.4505280000000 1.0
C      1  0.4678240000000  0.5466530000000  0.5011990000000 1.0
C      1  0.4886500000000  0.5124280000000  0.5280500000000 1.0
C      1  0.4962200000000  0.5423490000000  0.5792730000000 1.0
C      1  0.5775390000000  0.5340850000000  0.3977980000000 1.0
C      1  0.4493280000000  0.4470140000000  0.4691600000000 1.0
C      1  0.5238760000000  0.4177720000000  0.5177040000000 1.0
C      1  0.5214310000000  0.5470220000000  0.4777020000000 1.0
C      1  0.4520240000000  0.5494750000000  0.5576430000000 1.0
C      1  0.5668560000000  0.5353120000000  0.4215370000000 1.0
C      1  0.5358360000000  0.4193070000000  0.3319150000000 1.0
C      1  0.5717310000000  0.5339510000000  0.6103810000000 1.0
C      1  0.4295290000000  0.5423310000000  0.5414070000000 1.0
C      1  0.5138970000000  0.4124880000000  0.4466680000000 1.0
C      1  0.4614540000000  0.4377270000000  0.5172490000000 1.0
C      1  0.5172230000000  0.6150380000000  0.4753480000000 1.0
C      1  0.5577900000000  0.5082870000000  0.5193460000000 1.0
C      1  0.5458160000000  0.5193990000000  0.5719760000000 1.0
C      1  0.5045290000000  0.5485780000000  0.4343720000000 1.0
C      1  0.5078640000000  0.4768660000000  0.4743820000000 1.0
C      1  0.5599510000000  0.5220640000000  0.5455590000000 1.0
C      1  0.4314400000000  0.5162210000000  0.4836990000000 1.0
C      1  0.5094160000000  0.5232490000000  0.4873780000000 1.0
C      1  0.5319170000000  0.4017130000000  0.3507390000000 1.0
C      1  0.5548040000000  0.5361820000000  0.4465920000000 1.0
C      1  0.4079910000000  0.4798480000000  0.5067950000000 1.0
C      1  0.4183690000000  0.5608070000000  0.5227270000000 1.0
C      1  0.5389340000000  0.5658480000000  0.5182450000000 1.0
C      1  0.4953730000000  0.5682000000000  0.5648090000000 1.0
C      1  0.5281730000000  0.3562450000000  0.3656620000000 1.0
C      1  0.4670680000000  0.5356170000000  0.5788850000000 1.0
C      1  0.4564250000000  0.4314480000000  0.5441110000000 1.0
C      1  0.5747290000000  0.5468270000000  0.5428700000000 1.0
C      1  0.5687000000000  0.5274750000000  0.4702510000000 1.0
C      1  0.5655440000000  0.5674350000000  0.5274770000000 1.0
C      1  0.4875120000000  0.4671270000000  0.4908690000000 1.0
C      1  0.4853370000000  0.5245160000000  0.5024200000000 1.0
C      1  0.5103960000000  0.5934120000000  0.4904000000000 1.0
C      1  0.5185410000000  0.4013440000000  0.4215630000000 1.0
C      1  0.5232730000000  0.5489510000000  0.5343120000000 1.0
C      1  0.4938530000000  0.4737340000000  0.5929550000000 1.0
C      1  0.5276890000000  0.3830420000000  0.3711260000000 1.0
C      1  0.4449920000000  0.4967910000000  0.5465610000000 1.0
C      1  0.5734140000000  0.4881370000000  0.5968710000000 1.0
C      1  0.4559540000000  0.5504220000000  0.4552400000000 1.0
C      1  0.5374900000000  0.4897970000000  0.5114790000000 1.0
C      1  0.4415330000000  0.4423450000000  0.4968290000000 1.0
C      1  0.5279590000000  0.5456260000000  0.4501990000000 1.0
C      1  0.4778870000000  0.5505820000000  0.4393850000000 1.0
C      1  0.5241210000000  0.4007210000000  0.4700020000000 1.0
C      1  0.4783370000000  0.4533910000000  0.5854950000000 1.0
C      1  0.4437300000000  0.5442950000000  0.4823480000000 1.0
C      1  0.5710120000000  0.5193940000000  0.4960370000000 1.0
C      1  0.4172030000000  0.4546630000000  0.5045760000000 1.0
C      1  0.5221630000000  0.4974670000000  0.4876430000000 1.0
C      1  0.4725130000000  0.5675280000000  0.5461650000000 1.0
C      1  0.5303390000000  0.4658420000000  0.5246890000000 1.0
C      1  0.4189080000000  0.5060190000000  0.5078540000000 1.0
C      1  0.4641470000000  0.4381510000000  0.5688230000000 1.0
C      1  0.4712440000000  0.4954380000000  0.5412260000000 1.0
C      1  0.4235480000000  0.5623790000000  0.4959090000000 1.0
C      1  0.5171770000000  0.5214130000000  0.5813880000000 1.0
C      1  0.4272900000000  0.5147290000000  0.5338370000000 1.0
C      1  0.5131730000000  0.4432880000000  0.5223520000000 1.0
C      1  0.4862030000000  0.5914590000000  0.5047810000000 1.0
C      1  0.4734600000000  0.5699090000000  0.5176350000000 1.0
C      1  0.5267310000000  0.4713930000000  0.4297050000000 1.0
C      1  0.5640810000000  0.5136880000000  0.5936020000000 1.0
C      1  0.4985460000000  0.4363310000000  0.4494330000000 1.0
C      1  0.4356850000000  0.4973730000000  0.4630680000000 1.0
C      1  0.5278320000000  0.4021350000000  0.4963700000000 1.0
C      1  0.5229610000000  0.3920790000000  0.3971600000000 1.0
C      1  0.5105950000000  0.5900310000000  0.5705890000000 1.0
C      1  0.4710920000000  0.4345990000000  0.4562030000000 1.0
C      1  0.5104200000000  0.5260610000000  0.5388210000000 1.0
C      1  0.4402200000000  0.4714830000000  0.4580210000000 1.0
C      1  0.4871150000000  0.4485170000000  0.5116740000000 1.0
C      1  0.5270200000000  0.5704290000000  0.4930560000000 1.0
C      1  0.5072580000000  0.4967240000000  0.5918940000000 1.0
END
