TITL C-612607-4507-266 -1.13515604989311 125000 -657.031361966976 0 0 107 (C1) n - 1
REM
REM in /home/nfs/bkarasulu/CARBON/AIRSS/Generating-Clusters/TERSOFF/Only-C1/FIRE-HFTN
REM
REM
REM
REM
REM
REM ./C.cell (11c1c37f851c82e70ff6c80c92926a4b)
REM AIRSS Version 0.9.1 bugfix July 2018 build 013d7b7c2542+ Fri, 06 Jul 2018 19:26:36 +0100
REM compiler GCC version 9.2.1 20190827 (Red Hat 9.2.1-1)
REM options -cpp -mtune=generic -march=x86-64 -g -O0 -fpre-include=/usr/include/finclude/math-vector-fortran.h
REM seed 97663492 -977961333 1388039973 -1835107893 -453602066 -18555447 -321306721 109252347 963596501 1693484951 -1389291310 645652256 1289899640 680326659 -902232952 -1478679872 438776793 -988174523 1456369743 1647346738 427939903 1496149307 -1390287240 1664301923 1385227270 568586950 1316591727 -942402483 602185303 -1080414066 -1351603063 1422081706 -741791473
REM
CELL 1.54180   50.00000   50.00000   50.00000   90.00000   90.00000   90.00000
LATT -1
SFAC C  
C      1  0.4937060000000  0.5108060000000  0.5803290000000 1.0
C      1  0.4379050000000  0.5650330000000  0.5274200000000 1.0
C      1  0.5143020000000  0.5010160000000  0.4423070000000 1.0
C      1  0.4410690000000  0.5354310000000  0.5702720000000 1.0
C      1  0.4468730000000  0.5663730000000  0.4781290000000 1.0
C      1  0.5530080000000  0.4575170000000  0.4481070000000 1.0
C      1  0.5320790000000  0.4791380000000  0.4863890000000 1.0
C      1  0.5509500000000  0.4758060000000  0.4260080000000 1.0
C      1  0.4667750000000  0.5137430000000  0.4282610000000 1.0
C      1  0.5004960000000  0.5409240000000  0.5115440000000 1.0
C      1  0.4472940000000  0.4565300000000  0.4828700000000 1.0
C      1  0.6150660000000  0.5526980000000  0.4985930000000 1.0
C      1  0.4992330000000  0.3884600000000  0.4983800000000 1.0
C      1  0.5233840000000  0.4701970000000  0.5358240000000 1.0
C      1  0.5167170000000  0.4309510000000  0.5721000000000 1.0
C      1  0.5823850000000  0.4877820000000  0.4946710000000 1.0
C      1  0.4143550000000  0.4707850000000  0.5473490000000 1.0
C      1  0.4834580000000  0.4836480000000  0.5091350000000 1.0
C      1  0.4966310000000  0.5397180000000  0.5399790000000 1.0
C      1  0.5892030000000  0.5437090000000  0.4943320000000 1.0
C      1  0.4758860000000  0.4282930000000  0.5126880000000 1.0
C      1  0.4152470000000  0.4947760000000  0.4342570000000 1.0
C      1  0.5376620000000  0.4245570000000  0.5519420000000 1.0
C      1  0.5279690000000  0.4597230000000  0.5098390000000 1.0
C      1  0.5470130000000  0.5847480000000  0.4944920000000 1.0
C      1  0.4885250000000  0.5141440000000  0.4498060000000 1.0
C      1  0.4408580000000  0.5561080000000  0.5528020000000 1.0
C      1  0.4931820000000  0.6145290000000  0.5406680000000 1.0
C      1  0.5363380000000  0.5692400000000  0.5388490000000 1.0
C      1  0.4397880000000  0.4105270000000  0.4845540000000 1.0
C      1  0.5148380000000  0.4431560000000  0.5982370000000 1.0
C      1  0.4970890000000  0.4671380000000  0.5474030000000 1.0
C      1  0.5919310000000  0.4780780000000  0.5490510000000 1.0
C      1  0.5192270000000  0.5523610000000  0.5548630000000 1.0
C      1  0.5067930000000  0.5734730000000  0.4320730000000 1.0
C      1  0.5061350000000  0.4274240000000  0.4405680000000 1.0
C      1  0.4735210000000  0.5016990000000  0.4720170000000 1.0
C      1  0.4814760000000  0.4660220000000  0.4157200000000 1.0
C      1  0.5557130000000  0.5523370000000  0.5249770000000 1.0
C      1  0.3925190000000  0.5240630000000  0.4873370000000 1.0
C      1  0.4304900000000  0.5556320000000  0.5009740000000 1.0
C      1  0.5347060000000  0.5278600000000  0.4749570000000 1.0
C      1  0.4134910000000  0.5323240000000  0.5040880000000 1.0
C      1  0.5060100000000  0.4743450000000  0.4041970000000 1.0
C      1  0.4334450000000  0.4798560000000  0.4184740000000 1.0
C      1  0.5642130000000  0.4391890000000  0.4969510000000 1.0
C      1  0.5844940000000  0.5190340000000  0.4551230000000 1.0
C      1  0.4866840000000  0.5147320000000  0.5520310000000 1.0
C      1  0.5378790000000  0.4333880000000  0.5053190000000 1.0
C      1  0.4541320000000  0.4895750000000  0.5883250000000 1.0
C      1  0.3887590000000  0.5010790000000  0.4737160000000 1.0
C      1  0.4931730000000  0.4421810000000  0.5592220000000 1.0
C      1  0.4610890000000  0.4865200000000  0.4180000000000 1.0
C      1  0.4829620000000  0.5619420000000  0.4431450000000 1.0
C      1  0.4706780000000  0.4567010000000  0.5017530000000 1.0
C      1  0.5079910000000  0.4711180000000  0.6013310000000 1.0
C      1  0.5039150000000  0.6015570000000  0.5192270000000 1.0
C      1  0.5459050000000  0.5259920000000  0.5225870000000 1.0
C      1  0.4994640000000  0.4106960000000  0.5162270000000 1.0
C      1  0.4822290000000  0.4417960000000  0.4316740000000 1.0
C      1  0.5301270000000  0.5896000000000  0.5193840000000 1.0
C      1  0.5304680000000  0.5709340000000  0.4493650000000 1.0
C      1  0.4824850000000  0.4870460000000  0.5939770000000 1.0
C      1  0.4319270000000  0.4796430000000  0.4771750000000 1.0
C      1  0.4090330000000  0.4860570000000  0.4609480000000 1.0
C      1  0.5252790000000  0.4872700000000  0.4199460000000 1.0
C      1  0.5084930000000  0.6061110000000  0.4732400000000 1.0
C      1  0.5734870000000  0.4618070000000  0.5662040000000 1.0
C      1  0.5258470000000  0.4175920000000  0.5255380000000 1.0
C      1  0.4184970000000  0.5147600000000  0.5263490000000 1.0
C      1  0.4522270000000  0.4116560000000  0.5088610000000 1.0
C      1  0.4383360000000  0.5069290000000  0.5709050000000 1.0
C      1  0.4885840000000  0.5515160000000  0.4888460000000 1.0
C      1  0.5509110000000  0.4769540000000  0.5758170000000 1.0
C      1  0.5340220000000  0.5305670000000  0.5680670000000 1.0
C      1  0.5681970000000  0.5373340000000  0.4430870000000 1.0
C      1  0.4919930000000  0.5417530000000  0.4618970000000 1.0
C      1  0.5406270000000  0.4865580000000  0.5503680000000 1.0
C      1  0.5318840000000  0.4881940000000  0.5951880000000 1.0
C      1  0.5864460000000  0.5153450000000  0.4838720000000 1.0
C      1  0.4732580000000  0.5760490000000  0.4894160000000 1.0
C      1  0.5002090000000  0.3858730000000  0.4717030000000 1.0
C      1  0.5652010000000  0.4383780000000  0.5487970000000 1.0
C      1  0.5233220000000  0.5239020000000  0.5032120000000 1.0
C      1  0.4819440000000  0.4894940000000  0.5377950000000 1.0
C      1  0.5609110000000  0.4662790000000  0.4773940000000 1.0
C      1  0.5321220000000  0.4376950000000  0.4459150000000 1.0
C      1  0.4234810000000  0.4971120000000  0.5481650000000 1.0
C      1  0.4191990000000  0.5231570000000  0.4314000000000 1.0
C      1  0.4532270000000  0.5589370000000  0.4480710000000 1.0
C      1  0.4453050000000  0.5342740000000  0.4334900000000 1.0
C      1  0.5446320000000  0.5136120000000  0.5471710000000 1.0
C      1  0.5212700000000  0.5148770000000  0.5876790000000 1.0
C      1  0.4486390000000  0.5017910000000  0.4811860000000 1.0
C      1  0.5325460000000  0.5906810000000  0.4699880000000 1.0
C      1  0.4442940000000  0.4326060000000  0.4674480000000 1.0
C      1  0.5892030000000  0.4732830000000  0.5203550000000 1.0
C      1  0.4901330000000  0.5988660000000  0.4940340000000 1.0
C      1  0.5077330000000  0.5854260000000  0.4075680000000 1.0
C      1  0.5078280000000  0.4968060000000  0.4998720000000 1.0
C      1  0.5021020000000  0.4008730000000  0.4496500000000 1.0
C      1  0.5441200000000  0.5465340000000  0.4550540000000 1.0
C      1  0.5672600000000  0.5628110000000  0.5007170000000 1.0
C      1  0.5784360000000  0.4452160000000  0.5210190000000 1.0
C      1  0.4577980000000  0.4324910000000  0.4428830000000 1.0
C      1  0.5320390000000  0.5011930000000  0.4640990000000 1.0
C      1  0.4066110000000  0.4459790000000  0.5454260000000 1.0
END
