TITL C-612602-9376-1334 91.3730382963281 125000 -939.622770815319 0 0 153 (C1) n - 1
REM
REM in /home/nfs/bkarasulu/CARBON/AIRSS/Generating-Clusters/TERSOFF/Only-C1/FIRE-HFTN
REM
REM
REM
REM
REM
REM ./C.cell (11c1c37f851c82e70ff6c80c92926a4b)
REM AIRSS Version 0.9.1 bugfix July 2018 build 013d7b7c2542+ Fri, 06 Jul 2018 19:26:36 +0100
REM compiler GCC version 9.2.1 20190827 (Red Hat 9.2.1-1)
REM options -cpp -mtune=generic -march=x86-64 -g -O0 -fpre-include=/usr/include/finclude/math-vector-fortran.h
REM seed 121702346 -1397343693 -1593710308 111890970 849892059 -1590289118 -540910993 1464552136 -1653222296 -2089196487 1538984222 1978875664 14720192 -2003014275 2064078323 1720900293 -1180841025 -1458715032 -1919799283 -73212596 -1025780724 561814397 264717190 1071416177 -1993491328 -2073163756 -1800218806 1823751688 -1819628236 -1520429213 -1198849412 1140414237 1136704576
REM
CELL 1.54180   50.00000   50.00000   50.00000   90.00000   90.00000   90.00000
LATT -1
SFAC C  
C      1  0.4941770000000  0.4470010000000  0.4280230000000 1.0
C      1  0.4468170000000  0.5203570000000  0.5328610000000 1.0
C      1  0.5768740000000  0.5262250000000  0.4329580000000 1.0
C      1  0.5688750000000  0.5944240000000  0.4692330000000 1.0
C      1  0.5174300000000  0.4364860000000  0.5112390000000 1.0
C      1  0.4960960000000  0.5234260000000  0.5134840000000 1.0
C      1  0.5494990000000  0.5992870000000  0.5390800000000 1.0
C      1  0.4540100000000  0.5050020000000  0.4549740000000 1.0
C      1  0.5063690000000  0.4518800000000  0.5315350000000 1.0
C      1  0.4824670000000  0.3909530000000  0.5344600000000 1.0
C      1  0.4198620000000  0.5326090000000  0.5262820000000 1.0
C      1  0.5387990000000  0.5336460000000  0.5482080000000 1.0
C      1  0.4563840000000  0.4961340000000  0.5470700000000 1.0
C      1  0.4938530000000  0.3833660000000  0.4644370000000 1.0
C      1  0.4410650000000  0.5749060000000  0.5245740000000 1.0
C      1  0.4860550000000  0.6245480000000  0.5540460000000 1.0
C      1  0.4141330000000  0.5669110000000  0.4831910000000 1.0
C      1  0.5439680000000  0.4879740000000  0.4677250000000 1.0
C      1  0.4937950000000  0.5976170000000  0.4291170000000 1.0
C      1  0.4500970000000  0.5604480000000  0.4535340000000 1.0
C      1  0.4304640000000  0.4410950000000  0.4483790000000 1.0
C      1  0.4226490000000  0.4234580000000  0.4290180000000 1.0
C      1  0.5751080000000  0.4820790000000  0.5304000000000 1.0
C      1  0.5130760000000  0.4591360000000  0.4452940000000 1.0
C      1  0.4532220000000  0.6052060000000  0.4602410000000 1.0
C      1  0.5502030000000  0.4219700000000  0.4436200000000 1.0
C      1  0.4907880000000  0.5401000000000  0.4468970000000 1.0
C      1  0.5922260000000  0.5051850000000  0.5258990000000 1.0
C      1  0.5881070000000  0.4633930000000  0.5465180000000 1.0
C      1  0.5505360000000  0.5518660000000  0.4831150000000 1.0
C      1  0.4325970000000  0.5360420000000  0.4127890000000 1.0
C      1  0.4984070000000  0.5771020000000  0.5362620000000 1.0
C      1  0.5023140000000  0.4235050000000  0.4938360000000 1.0
C      1  0.4850970000000  0.4949350000000  0.5465740000000 1.0
C      1  0.5780100000000  0.4736370000000  0.4141590000000 1.0
C      1  0.6045790000000  0.5036570000000  0.5000450000000 1.0
C      1  0.5300020000000  0.4788970000000  0.4016510000000 1.0
C      1  0.5973400000000  0.5159990000000  0.4510090000000 1.0
C      1  0.4996190000000  0.3735650000000  0.4890450000000 1.0
C      1  0.5319920000000  0.5553420000000  0.5869180000000 1.0
C      1  0.4105900000000  0.4837970000000  0.4477470000000 1.0
C      1  0.4773030000000  0.5158070000000  0.4417520000000 1.0
C      1  0.4936960000000  0.4998450000000  0.6015840000000 1.0
C      1  0.4454010000000  0.5587290000000  0.4246100000000 1.0
C      1  0.4436940000000  0.5049010000000  0.4808110000000 1.0
C      1  0.4048180000000  0.5357290000000  0.4202400000000 1.0
C      1  0.5351530000000  0.4441690000000  0.4555730000000 1.0
C      1  0.5467650000000  0.4824020000000  0.5295570000000 1.0
C      1  0.5538650000000  0.5177660000000  0.4181520000000 1.0
C      1  0.4772770000000  0.5072880000000  0.4133720000000 1.0
C      1  0.4311090000000  0.4900430000000  0.4990180000000 1.0
C      1  0.4629620000000  0.6202350000000  0.5407560000000 1.0
C      1  0.4395510000000  0.4098630000000  0.5410750000000 1.0
C      1  0.5075270000000  0.5026200000000  0.4060560000000 1.0
C      1  0.4620970000000  0.5585130000000  0.5698290000000 1.0
C      1  0.4848010000000  0.4073160000000  0.5600180000000 1.0
C      1  0.5865780000000  0.4720810000000  0.5736840000000 1.0
C      1  0.4512750000000  0.4692600000000  0.5371610000000 1.0
C      1  0.6078410000000  0.4511450000000  0.5014770000000 1.0
C      1  0.5113830000000  0.5485660000000  0.4286470000000 1.0
C      1  0.4031670000000  0.4478720000000  0.4874520000000 1.0
C      1  0.4411980000000  0.5680180000000  0.5541140000000 1.0
C      1  0.5729870000000  0.4159100000000  0.4928390000000 1.0
C      1  0.5411100000000  0.4013130000000  0.5328430000000 1.0
C      1  0.4560520000000  0.4153380000000  0.5659550000000 1.0
C      1  0.3967010000000  0.5509810000000  0.4667680000000 1.0
C      1  0.5761320000000  0.6079900000000  0.4476660000000 1.0
C      1  0.5247250000000  0.4707610000000  0.5437040000000 1.0
C      1  0.4352390000000  0.4942310000000  0.4349080000000 1.0
C      1  0.5559210000000  0.4630120000000  0.4653350000000 1.0
C      1  0.4180930000000  0.5592940000000  0.5113990000000 1.0
C      1  0.4692050000000  0.5346600000000  0.5209080000000 1.0
C      1  0.5107270000000  0.5767420000000  0.4242610000000 1.0
C      1  0.3962290000000  0.5190760000000  0.5691730000000 1.0
C      1  0.4982410000000  0.3760610000000  0.5161240000000 1.0
C      1  0.4985910000000  0.4971360000000  0.4737480000000 1.0
C      1  0.4846040000000  0.4025870000000  0.4477410000000 1.0
C      1  0.4911250000000  0.6127180000000  0.4961490000000 1.0
C      1  0.4461730000000  0.5091090000000  0.4097730000000 1.0
C      1  0.5534150000000  0.4009160000000  0.5081670000000 1.0
C      1  0.5662790000000  0.4533060000000  0.5846550000000 1.0
C      1  0.4501150000000  0.5851470000000  0.4149440000000 1.0
C      1  0.5815890000000  0.4519670000000  0.4579690000000 1.0
C      1  0.5240960000000  0.5242180000000  0.5265390000000 1.0
C      1  0.5385200000000  0.5827490000000  0.5831850000000 1.0
C      1  0.4812170000000  0.5683450000000  0.4909620000000 1.0
C      1  0.5018430000000  0.4755530000000  0.5871710000000 1.0
C      1  0.4388450000000  0.3969080000000  0.4784910000000 1.0
C      1  0.4312220000000  0.4690190000000  0.5175540000000 1.0
C      1  0.5457180000000  0.4274960000000  0.4149970000000 1.0
C      1  0.5746450000000  0.4228290000000  0.4624630000000 1.0
C      1  0.5172140000000  0.4852120000000  0.4572300000000 1.0
C      1  0.4873150000000  0.4526000000000  0.4021460000000 1.0
C      1  0.5974860000000  0.5152950000000  0.5522460000000 1.0
C      1  0.5090790000000  0.4217710000000  0.5698660000000 1.0
C      1  0.4143160000000  0.4463870000000  0.5143680000000 1.0
C      1  0.4574330000000  0.4450750000000  0.4556680000000 1.0
C      1  0.5938850000000  0.4681100000000  0.4373780000000 1.0
C      1  0.5502670000000  0.5058540000000  0.4879050000000 1.0
C      1  0.5513930000000  0.4669640000000  0.6046410000000 1.0
C      1  0.4118380000000  0.5199960000000  0.5909140000000 1.0
C      1  0.5233800000000  0.5443160000000  0.4787490000000 1.0
C      1  0.3985360000000  0.5241960000000  0.5429300000000 1.0
C      1  0.4354570000000  0.5814020000000  0.4677290000000 1.0
C      1  0.5366570000000  0.4166080000000  0.5574430000000 1.0
C      1  0.5888420000000  0.4320010000000  0.5119120000000 1.0
C      1  0.5667630000000  0.5287390000000  0.4843030000000 1.0
C      1  0.5562010000000  0.4907360000000  0.4080320000000 1.0
C      1  0.4835940000000  0.4796000000000  0.4916760000000 1.0
C      1  0.5566740000000  0.5884900000000  0.5157240000000 1.0
C      1  0.5501600000000  0.4943350000000  0.6058560000000 1.0
C      1  0.3910280000000  0.5037880000000  0.4524830000000 1.0
C      1  0.4702730000000  0.6182530000000  0.4793000000000 1.0
C      1  0.4749650000000  0.4286930000000  0.4925320000000 1.0
C      1  0.4365670000000  0.5267760000000  0.5984600000000 1.0
C      1  0.4898500000000  0.5640450000000  0.5619180000000 1.0
C      1  0.5804100000000  0.4361880000000  0.5405820000000 1.0
C      1  0.4877790000000  0.5276440000000  0.5955210000000 1.0
C      1  0.4114420000000  0.4579050000000  0.4611760000000 1.0
C      1  0.5858130000000  0.5017350000000  0.5751570000000 1.0
C      1  0.5608110000000  0.4318010000000  0.5639260000000 1.0
C      1  0.5347960000000  0.4494000000000  0.4013780000000 1.0
C      1  0.5256010000000  0.5264460000000  0.4160510000000 1.0
C      1  0.4891790000000  0.4936960000000  0.5174750000000 1.0
C      1  0.4150730000000  0.4390100000000  0.5652550000000 1.0
C      1  0.5110550000000  0.6186550000000  0.5623110000000 1.0
C      1  0.5042570000000  0.5236290000000  0.4846470000000 1.0
C      1  0.4970300000000  0.5869750000000  0.5074130000000 1.0
C      1  0.4689030000000  0.4545500000000  0.4810840000000 1.0
C      1  0.4769260000000  0.4292490000000  0.4414650000000 1.0
C      1  0.5824900000000  0.6207280000000  0.4258280000000 1.0
C      1  0.5588040000000  0.5781300000000  0.4896080000000 1.0
C      1  0.5479920000000  0.5345700000000  0.5753020000000 1.0
C      1  0.5071280000000  0.4853040000000  0.5608770000000 1.0
C      1  0.4461540000000  0.6044600000000  0.5263560000000 1.0
C      1  0.5043220000000  0.4461450000000  0.5870730000000 1.0
C      1  0.5343730000000  0.6022860000000  0.5628260000000 1.0
C      1  0.4375500000000  0.4321950000000  0.5806250000000 1.0
C      1  0.4765620000000  0.5573500000000  0.4643910000000 1.0
C      1  0.4170820000000  0.4287560000000  0.5375950000000 1.0
C      1  0.6142460000000  0.4769060000000  0.4953540000000 1.0
C      1  0.3937570000000  0.5313870000000  0.4463020000000 1.0
C      1  0.4631090000000  0.5597580000000  0.5107910000000 1.0
C      1  0.5621560000000  0.5129120000000  0.5876410000000 1.0
C      1  0.4608010000000  0.5375010000000  0.5898530000000 1.0
C      1  0.4655290000000  0.6018200000000  0.4328680000000 1.0
C      1  0.5045660000000  0.5491130000000  0.5833900000000 1.0
C      1  0.5934910000000  0.5207460000000  0.4790830000000 1.0
C      1  0.4561030000000  0.4078250000000  0.4965510000000 1.0
C      1  0.6092120000000  0.4909640000000  0.4444430000000 1.0
C      1  0.4766200000000  0.4532430000000  0.5359590000000 1.0
C      1  0.4565610000000  0.3976090000000  0.5226120000000 1.0
C      1  0.5387660000000  0.5034610000000  0.5130420000000 1.0
END
