TITL C-612606-7351-109 3.85277296169908e-05 125000 -759.503904096233 0 0 126 (C1) n - 1
REM
REM in /home/nfs/bkarasulu/CARBON/AIRSS/Generating-Clusters/TERSOFF/Only-C1/FIRE-HFTN
REM
REM
REM
REM
REM
REM ./C.cell (11c1c37f851c82e70ff6c80c92926a4b)
REM AIRSS Version 0.9.1 bugfix July 2018 build 013d7b7c2542+ Fri, 06 Jul 2018 19:26:36 +0100
REM compiler GCC version 9.2.1 20190827 (Red Hat 9.2.1-1)
REM options -cpp -mtune=generic -march=x86-64 -g -O0 -fpre-include=/usr/include/finclude/math-vector-fortran.h
REM seed 1574324212 -2127469881 925845080 -2047877349 1136879005 1153122446 256392457 510961159 -23363631 -1639746886 -2134014954 -1225546540 248086591 -1957620436 2123976319 -1862891330 347435669 346072789 -1300753233 1497829528 -38288472 -816636543 -1922918320 -2044973920 -850013747 -499726476 -329830396 973618494 42888791 112048684 951836425 512378051 -349120650
REM
CELL 1.54180   50.00000   50.00000   50.00000   90.00000   90.00000   90.00000
LATT -1
SFAC C  
C      1  0.4255320000000  0.5305370000000  0.5063230000000 1.0
C      1  0.4791000000000  0.5172480000000  0.5332890000000 1.0
C      1  0.5192690000000  0.4562060000000  0.4318240000000 1.0
C      1  0.5508090000000  0.4956100000000  0.5637530000000 1.0
C      1  0.4712640000000  0.5888440000000  0.5522870000000 1.0
C      1  0.4889050000000  0.4051680000000  0.4742900000000 1.0
C      1  0.5453340000000  0.4471960000000  0.4341600000000 1.0
C      1  0.4762210000000  0.4819230000000  0.4026940000000 1.0
C      1  0.5907290000000  0.4364230000000  0.4935890000000 1.0
C      1  0.4477150000000  0.4657390000000  0.5731530000000 1.0
C      1  0.5152100000000  0.5377440000000  0.4806750000000 1.0
C      1  0.5049070000000  0.5887930000000  0.4572000000000 1.0
C      1  0.5551160000000  0.5185340000000  0.4700030000000 1.0
C      1  0.5412330000000  0.4931130000000  0.4630850000000 1.0
C      1  0.5077720000000  0.5264340000000  0.4552410000000 1.0
C      1  0.4463580000000  0.5319480000000  0.4867930000000 1.0
C      1  0.5761830000000  0.4121770000000  0.4953980000000 1.0
C      1  0.5650670000000  0.4941480000000  0.5399010000000 1.0
C      1  0.5500370000000  0.5595420000000  0.5259820000000 1.0
C      1  0.4279380000000  0.4315730000000  0.5102130000000 1.0
C      1  0.5164330000000  0.4427750000000  0.5307790000000 1.0
C      1  0.5013220000000  0.4753470000000  0.4453610000000 1.0
C      1  0.5908970000000  0.4828600000000  0.4712620000000 1.0
C      1  0.5744270000000  0.5637350000000  0.4823800000000 1.0
C      1  0.5207460000000  0.4017830000000  0.5656190000000 1.0
C      1  0.5972570000000  0.5391630000000  0.5619770000000 1.0
C      1  0.4780940000000  0.6041570000000  0.5306700000000 1.0
C      1  0.4555110000000  0.5315420000000  0.4079210000000 1.0
C      1  0.4829980000000  0.5611940000000  0.5604350000000 1.0
C      1  0.4094290000000  0.5662880000000  0.5665450000000 1.0
C      1  0.5782820000000  0.5141650000000  0.5215530000000 1.0
C      1  0.4187620000000  0.4444470000000  0.5349560000000 1.0
C      1  0.4951740000000  0.5041300000000  0.4034080000000 1.0
C      1  0.5236450000000  0.5021780000000  0.4005670000000 1.0
C      1  0.4506420000000  0.4261150000000  0.4379450000000 1.0
C      1  0.4416310000000  0.5485160000000  0.4640790000000 1.0
C      1  0.4044080000000  0.5696140000000  0.5391870000000 1.0
C      1  0.5393680000000  0.4674800000000  0.4792810000000 1.0
C      1  0.4408200000000  0.4923240000000  0.4345150000000 1.0
C      1  0.4659040000000  0.4086950000000  0.5358250000000 1.0
C      1  0.5154780000000  0.4994110000000  0.4512750000000 1.0
C      1  0.5144530000000  0.4931610000000  0.5108290000000 1.0
C      1  0.5284200000000  0.5296770000000  0.5885880000000 1.0
C      1  0.4128560000000  0.4595820000000  0.4626280000000 1.0
C      1  0.4802490000000  0.5591070000000  0.5121660000000 1.0
C      1  0.4124780000000  0.4504830000000  0.4330860000000 1.0
C      1  0.4240250000000  0.4364800000000  0.4802920000000 1.0
C      1  0.5392250000000  0.5281000000000  0.4921760000000 1.0
C      1  0.4956440000000  0.4454410000000  0.5120040000000 1.0
C      1  0.4395550000000  0.4471290000000  0.4217660000000 1.0
C      1  0.5764650000000  0.5440450000000  0.5783470000000 1.0
C      1  0.4244620000000  0.5375510000000  0.4442870000000 1.0
C      1  0.4905230000000  0.5084290000000  0.5085280000000 1.0
C      1  0.4526080000000  0.4726530000000  0.4162190000000 1.0
C      1  0.5497390000000  0.4072490000000  0.5036090000000 1.0
C      1  0.4379130000000  0.5195000000000  0.4270330000000 1.0
C      1  0.5077040000000  0.4344730000000  0.5962740000000 1.0
C      1  0.5167830000000  0.4632590000000  0.5523430000000 1.0
C      1  0.4627240000000  0.4089470000000  0.4840520000000 1.0
C      1  0.5857240000000  0.4538930000000  0.4710790000000 1.0
C      1  0.4986200000000  0.4181080000000  0.5745170000000 1.0
C      1  0.5121910000000  0.5680560000000  0.5583220000000 1.0
C      1  0.5548550000000  0.5762920000000  0.5017310000000 1.0
C      1  0.5335130000000  0.4423060000000  0.6006370000000 1.0
C      1  0.6009430000000  0.5712920000000  0.4844350000000 1.0
C      1  0.4463520000000  0.5445880000000  0.3857750000000 1.0
C      1  0.5343750000000  0.3963040000000  0.4830350000000 1.0
C      1  0.5486170000000  0.5453110000000  0.5751200000000 1.0
C      1  0.5472860000000  0.6064040000000  0.4639190000000 1.0
C      1  0.5732090000000  0.4484730000000  0.5376000000000 1.0
C      1  0.4806950000000  0.5137770000000  0.5846260000000 1.0
C      1  0.4706870000000  0.5169110000000  0.4890280000000 1.0
C      1  0.4522510000000  0.4132520000000  0.5112470000000 1.0
C      1  0.4117180000000  0.5072790000000  0.5105040000000 1.0
C      1  0.4970070000000  0.4514760000000  0.4851030000000 1.0
C      1  0.5223280000000  0.4425160000000  0.4745220000000 1.0
C      1  0.4578760000000  0.4750250000000  0.4770790000000 1.0
C      1  0.5958290000000  0.4438820000000  0.5208320000000 1.0
C      1  0.5724730000000  0.4984790000000  0.4226880000000 1.0
C      1  0.5542480000000  0.5327900000000  0.5154910000000 1.0
C      1  0.5375370000000  0.4758080000000  0.5068890000000 1.0
C      1  0.5881120000000  0.4943710000000  0.4446750000000 1.0
C      1  0.4444250000000  0.4208010000000  0.4653200000000 1.0
C      1  0.4607990000000  0.4936930000000  0.5739170000000 1.0
C      1  0.5386910000000  0.5973140000000  0.4902830000000 1.0
C      1  0.4830970000000  0.4672700000000  0.4665530000000 1.0
C      1  0.3863890000000  0.5890320000000  0.5304100000000 1.0
C      1  0.5497780000000  0.5009870000000  0.4079250000000 1.0
C      1  0.4354740000000  0.4807000000000  0.4605960000000 1.0
C      1  0.5672800000000  0.5439650000000  0.4612820000000 1.0
C      1  0.5440970000000  0.5746510000000  0.4278390000000 1.0
C      1  0.4988720000000  0.5554640000000  0.4937770000000 1.0
C      1  0.4668680000000  0.4520580000000  0.5545190000000 1.0
C      1  0.4862000000000  0.5690490000000  0.4471090000000 1.0
C      1  0.5308250000000  0.5938970000000  0.4434930000000 1.0
C      1  0.5991970000000  0.5286120000000  0.5371810000000 1.0
C      1  0.5578840000000  0.4704710000000  0.5264480000000 1.0
C      1  0.4765100000000  0.4252310000000  0.5566680000000 1.0
C      1  0.4834210000000  0.5288590000000  0.4136150000000 1.0
C      1  0.4177220000000  0.5533170000000  0.5206850000000 1.0
C      1  0.4729880000000  0.5425810000000  0.5831690000000 1.0
C      1  0.5899110000000  0.4992000000000  0.4958180000000 1.0
C      1  0.5568050000000  0.4418280000000  0.5864980000000 1.0
C      1  0.3980200000000  0.5436250000000  0.4421780000000 1.0
C      1  0.5160680000000  0.4136200000000  0.4711340000000 1.0
C      1  0.4247740000000  0.5596250000000  0.5872380000000 1.0
C      1  0.4645630000000  0.4712780000000  0.5317490000000 1.0
C      1  0.5356340000000  0.4203510000000  0.5252900000000 1.0
C      1  0.4943480000000  0.5429320000000  0.4363520000000 1.0
C      1  0.4913430000000  0.6063860000000  0.5071100000000 1.0
C      1  0.5233840000000  0.4873020000000  0.5675010000000 1.0
C      1  0.5385600000000  0.5605160000000  0.5526190000000 1.0
C      1  0.3866780000000  0.4701230000000  0.4721010000000 1.0
C      1  0.4771800000000  0.5449260000000  0.5359870000000 1.0
C      1  0.5685350000000  0.4451640000000  0.4488060000000 1.0
C      1  0.5605060000000  0.5548270000000  0.4360010000000 1.0
C      1  0.5094770000000  0.5082690000000  0.5823890000000 1.0
C      1  0.4224920000000  0.4573220000000  0.5597190000000 1.0
C      1  0.4594640000000  0.5690390000000  0.4566070000000 1.0
C      1  0.4554910000000  0.4716460000000  0.5052010000000 1.0
C      1  0.4487400000000  0.5508610000000  0.5950890000000 1.0
C      1  0.3696770000000  0.6071430000000  0.5219290000000 1.0
C      1  0.5433870000000  0.4119390000000  0.5516210000000 1.0
C      1  0.5088870000000  0.5979290000000  0.4864390000000 1.0
C      1  0.4649370000000  0.4969570000000  0.5452260000000 1.0
C      1  0.5624290000000  0.4325580000000  0.5601390000000 1.0
END
