TITL C-612606-7351-625 2.61879533206188e-05 125000 -882.111829270712 0 0 141 (C1) n - 1
REM
REM in /home/nfs/bkarasulu/CARBON/AIRSS/Generating-Clusters/TERSOFF/Only-C1/FIRE-HFTN
REM
REM
REM
REM
REM
REM ./C.cell (11c1c37f851c82e70ff6c80c92926a4b)
REM AIRSS Version 0.9.1 bugfix July 2018 build 013d7b7c2542+ Fri, 06 Jul 2018 19:26:36 +0100
REM compiler GCC version 9.2.1 20190827 (Red Hat 9.2.1-1)
REM options -cpp -mtune=generic -march=x86-64 -g -O0 -fpre-include=/usr/include/finclude/math-vector-fortran.h
REM seed 1853296678 607366560 -1384489252 234047229 -1572622628 1061272375 140396430 -88821461 -1753335855 -2121000468 2133663367 1761557319 -1774482163 -1994534393 -161034615 761770891 1197461954 -353716261 -398213113 -29020488 1894924239 -1081245858 -2071061521 -1277302023 -196548085 -943987079 -448148201 -361462839 1237975591 241830303 -1029969090 -1793243121 711312670
REM
CELL 1.54180   50.00000   50.00000   50.00000   90.00000   90.00000   90.00000
LATT -1
SFAC C  
C      1  0.5310370000000  0.4054430000000  0.3850530000000 1.0
C      1  0.4955270000000  0.4989600000000  0.5846110000000 1.0
C      1  0.5054460000000  0.4931210000000  0.5194580000000 1.0
C      1  0.5547720000000  0.4442740000000  0.5347700000000 1.0
C      1  0.5538200000000  0.4730040000000  0.5994540000000 1.0
C      1  0.4141550000000  0.5446590000000  0.4483830000000 1.0
C      1  0.4464250000000  0.5415080000000  0.4981350000000 1.0
C      1  0.4393940000000  0.5382450000000  0.5942690000000 1.0
C      1  0.5033400000000  0.4932720000000  0.4316890000000 1.0
C      1  0.4042950000000  0.5212650000000  0.5029210000000 1.0
C      1  0.5460890000000  0.5008540000000  0.5958890000000 1.0
C      1  0.4063600000000  0.5045280000000  0.5681540000000 1.0
C      1  0.5361010000000  0.5780230000000  0.5190600000000 1.0
C      1  0.4888500000000  0.5406920000000  0.5536100000000 1.0
C      1  0.5638400000000  0.5170210000000  0.5799330000000 1.0
C      1  0.5245930000000  0.5711300000000  0.5982770000000 1.0
C      1  0.4126140000000  0.5163150000000  0.4439380000000 1.0
C      1  0.4709050000000  0.5358060000000  0.4307920000000 1.0
C      1  0.5449650000000  0.4125290000000  0.4065960000000 1.0
C      1  0.3808900000000  0.4770270000000  0.4979210000000 1.0
C      1  0.5689440000000  0.4966250000000  0.5351610000000 1.0
C      1  0.5350770000000  0.6145970000000  0.4696790000000 1.0
C      1  0.4898660000000  0.4378590000000  0.4529350000000 1.0
C      1  0.3915810000000  0.4546070000000  0.4835690000000 1.0
C      1  0.4708750000000  0.5458040000000  0.4853030000000 1.0
C      1  0.4753870000000  0.4086320000000  0.4965310000000 1.0
C      1  0.6036410000000  0.4832670000000  0.4652490000000 1.0
C      1  0.4918370000000  0.4290210000000  0.5090640000000 1.0
C      1  0.4486310000000  0.3951580000000  0.5324850000000 1.0
C      1  0.4043770000000  0.4324530000000  0.4956990000000 1.0
C      1  0.4316400000000  0.4258930000000  0.4921090000000 1.0
C      1  0.6005910000000  0.4622600000000  0.4813850000000 1.0
C      1  0.4501620000000  0.4952400000000  0.5084850000000 1.0
C      1  0.4976490000000  0.5206120000000  0.3932490000000 1.0
C      1  0.5310640000000  0.4824100000000  0.5159090000000 1.0
C      1  0.5511730000000  0.4727630000000  0.5334120000000 1.0
C      1  0.4779430000000  0.4200460000000  0.4341180000000 1.0
C      1  0.6147070000000  0.5514990000000  0.4982330000000 1.0
C      1  0.4432120000000  0.5341290000000  0.6210510000000 1.0
C      1  0.4041770000000  0.4660560000000  0.4587740000000 1.0
C      1  0.4966720000000  0.5504900000000  0.5272320000000 1.0
C      1  0.5015920000000  0.3886360000000  0.5440900000000 1.0
C      1  0.4905910000000  0.3646990000000  0.4818550000000 1.0
C      1  0.4974520000000  0.5086150000000  0.4950690000000 1.0
C      1  0.5634900000000  0.5139640000000  0.5112210000000 1.0
C      1  0.4013370000000  0.4959590000000  0.4605520000000 1.0
C      1  0.5444810000000  0.6383530000000  0.4748030000000 1.0
C      1  0.4608120000000  0.4826510000000  0.5317250000000 1.0
C      1  0.5351790000000  0.5299870000000  0.4390550000000 1.0
C      1  0.5152380000000  0.4347230000000  0.4650350000000 1.0
C      1  0.3956030000000  0.5484530000000  0.5023220000000 1.0
C      1  0.4765180000000  0.4909940000000  0.4413060000000 1.0
C      1  0.4387090000000  0.5834880000000  0.5753280000000 1.0
C      1  0.4025680000000  0.3856000000000  0.5586710000000 1.0
C      1  0.5796070000000  0.5017250000000  0.5609180000000 1.0
C      1  0.4432960000000  0.4408200000000  0.4700830000000 1.0
C      1  0.5275240000000  0.3992310000000  0.5373430000000 1.0
C      1  0.6117620000000  0.4979780000000  0.4201350000000 1.0
C      1  0.4865460000000  0.5426900000000  0.4076480000000 1.0
C      1  0.5016500000000  0.4939070000000  0.4027870000000 1.0
C      1  0.5505340000000  0.3874570000000  0.4921480000000 1.0
C      1  0.5768980000000  0.4356200000000  0.5195500000000 1.0
C      1  0.5492050000000  0.4287610000000  0.4290420000000 1.0
C      1  0.4325970000000  0.5180900000000  0.5063890000000 1.0
C      1  0.4625510000000  0.4345160000000  0.4141610000000 1.0
C      1  0.4709690000000  0.4951170000000  0.4881500000000 1.0
C      1  0.6022080000000  0.5310490000000  0.4540370000000 1.0
C      1  0.4744950000000  0.3877770000000  0.5429520000000 1.0
C      1  0.4805910000000  0.3894300000000  0.4754060000000 1.0
C      1  0.4257240000000  0.4500290000000  0.4486040000000 1.0
C      1  0.5679590000000  0.5420380000000  0.5080680000000 1.0
C      1  0.4448610000000  0.5842830000000  0.4613440000000 1.0
C      1  0.5324800000000  0.6385500000000  0.5496260000000 1.0
C      1  0.4602470000000  0.6213500000000  0.5506760000000 1.0
C      1  0.5435200000000  0.4998810000000  0.4951220000000 1.0
C      1  0.4762990000000  0.6006610000000  0.4953710000000 1.0
C      1  0.4966440000000  0.5902980000000  0.4530260000000 1.0
C      1  0.4904350000000  0.5992440000000  0.5196970000000 1.0
C      1  0.5233370000000  0.5893770000000  0.4649620000000 1.0
C      1  0.5135910000000  0.4374490000000  0.4931120000000 1.0
C      1  0.5186960000000  0.5068800000000  0.5986020000000 1.0
C      1  0.5810340000000  0.4671470000000  0.5936650000000 1.0
C      1  0.4936100000000  0.5696690000000  0.4057750000000 1.0
C      1  0.4227670000000  0.5212790000000  0.5795290000000 1.0
C      1  0.5935440000000  0.5522050000000  0.5164630000000 1.0
C      1  0.4855160000000  0.6199630000000  0.5387790000000 1.0
C      1  0.5430580000000  0.3865340000000  0.5177450000000 1.0
C      1  0.5790590000000  0.5456650000000  0.4475400000000 1.0
C      1  0.4748590000000  0.3953020000000  0.4478070000000 1.0
C      1  0.4955820000000  0.5882920000000  0.4249380000000 1.0
C      1  0.4693350000000  0.4517850000000  0.4670790000000 1.0
C      1  0.4774480000000  0.4450380000000  0.3917920000000 1.0
C      1  0.6189500000000  0.5423100000000  0.4735270000000 1.0
C      1  0.6058280000000  0.5039130000000  0.4461980000000 1.0
C      1  0.4868320000000  0.4408910000000  0.5353150000000 1.0
C      1  0.5087340000000  0.4104290000000  0.3712630000000 1.0
C      1  0.5514500000000  0.5495290000000  0.4509320000000 1.0
C      1  0.5102450000000  0.4527290000000  0.5796010000000 1.0
C      1  0.5636720000000  0.4518540000000  0.4267870000000 1.0
C      1  0.4367900000000  0.4440920000000  0.4229020000000 1.0
C      1  0.5479100000000  0.5611420000000  0.4990340000000 1.0
C      1  0.4883070000000  0.4706560000000  0.5848160000000 1.0
C      1  0.4857240000000  0.4956610000000  0.5388400000000 1.0
C      1  0.4523710000000  0.5597990000000  0.5811860000000 1.0
C      1  0.5214700000000  0.5074440000000  0.4485680000000 1.0
C      1  0.4320060000000  0.5070390000000  0.4257900000000 1.0
C      1  0.5970320000000  0.5598100000000  0.5430730000000 1.0
C      1  0.5377470000000  0.4214140000000  0.4538840000000 1.0
C      1  0.4718900000000  0.5931360000000  0.4684840000000 1.0
C      1  0.5489720000000  0.5607070000000  0.5965680000000 1.0
C      1  0.4251190000000  0.3896860000000  0.5462650000000 1.0
C      1  0.5330570000000  0.4270090000000  0.5437080000000 1.0
C      1  0.5079430000000  0.5767750000000  0.5241560000000 1.0
C      1  0.4207070000000  0.5681300000000  0.4637240000000 1.0
C      1  0.5675430000000  0.5449280000000  0.5829460000000 1.0
C      1  0.4896290000000  0.4707970000000  0.3914390000000 1.0
C      1  0.4993970000000  0.5709420000000  0.5898210000000 1.0
C      1  0.5097460000000  0.4402230000000  0.5538640000000 1.0
C      1  0.5924540000000  0.4445460000000  0.4996260000000 1.0
C      1  0.3911490000000  0.5016610000000  0.4876380000000 1.0
C      1  0.4419620000000  0.6073900000000  0.5640580000000 1.0
C      1  0.5402350000000  0.5663610000000  0.4713440000000 1.0
C      1  0.5059540000000  0.6374240000000  0.5465390000000 1.0
C      1  0.4708970000000  0.4793400000000  0.4656560000000 1.0
C      1  0.5519470000000  0.6210720000000  0.5438610000000 1.0
C      1  0.5940810000000  0.4808700000000  0.5740090000000 1.0
C      1  0.4591990000000  0.5099760000000  0.4299790000000 1.0
C      1  0.4872200000000  0.4261960000000  0.3732520000000 1.0
C      1  0.5333100000000  0.4541280000000  0.5955790000000 1.0
C      1  0.4920740000000  0.5370370000000  0.5020980000000 1.0
C      1  0.4488280000000  0.4086640000000  0.5071100000000 1.0
C      1  0.4736480000000  0.5458840000000  0.4571000000000 1.0
C      1  0.5876610000000  0.5571970000000  0.5678210000000 1.0
C      1  0.4892010000000  0.5129020000000  0.5603950000000 1.0
C      1  0.4799350000000  0.5581690000000  0.5743030000000 1.0
C      1  0.4639140000000  0.4570750000000  0.5446960000000 1.0
C      1  0.4639670000000  0.4607160000000  0.5733970000000 1.0
C      1  0.5519040000000  0.5970740000000  0.5321600000000 1.0
C      1  0.4045220000000  0.5693540000000  0.4873080000000 1.0
C      1  0.5488530000000  0.4003560000000  0.4688800000000 1.0
C      1  0.5217760000000  0.5052590000000  0.4768470000000 1.0
END
