TITL C-612601-4209-1348 8.42830846567668e-06 125000 -396.343094629839 0 0 66 (C1) n - 1
REM
REM in /home/nfs/bkarasulu/CARBON/AIRSS/Generating-Clusters/TERSOFF/Only-C1/FIRE-HFTN
REM
REM
REM
REM
REM
REM ./C.cell (11c1c37f851c82e70ff6c80c92926a4b)
REM AIRSS Version 0.9.1 bugfix July 2018 build 013d7b7c2542+ Fri, 06 Jul 2018 19:26:36 +0100
REM compiler GCC version 9.2.1 20190827 (Red Hat 9.2.1-1)
REM options -cpp -mtune=generic -march=x86-64 -g -O0 -fpre-include=/usr/include/finclude/math-vector-fortran.h
REM seed -1574991457 1383442763 -107632452 -103255362 -1546562316 -1637833942 -1508475444 1244778099 -143495917 161240768 1597924688 2077042771 82928566 1097090440 -871190440 -1538505331 1898586442 -867834302 963711209 1229048314 -532100445 -998370799 885060862 -1264605189 -1034408022 1698098500 -2134547304 -1994232214 -1625068887 534599777 541514069 -1426278322 819341684
REM
CELL 1.54180   50.00000   50.00000   50.00000   90.00000   90.00000   90.00000
LATT -1
SFAC C  
C      1  0.5436530000000  0.4966150000000  0.5725620000000 1.0
C      1  0.4911880000000  0.5811940000000  0.5309030000000 1.0
C      1  0.4271110000000  0.4556670000000  0.5878970000000 1.0
C      1  0.4450790000000  0.5495010000000  0.5008830000000 1.0
C      1  0.4515600000000  0.5154750000000  0.5363800000000 1.0
C      1  0.4680280000000  0.5415310000000  0.4075210000000 1.0
C      1  0.5551990000000  0.4770780000000  0.5061710000000 1.0
C      1  0.5087310000000  0.4705900000000  0.5081950000000 1.0
C      1  0.4512020000000  0.5095970000000  0.4563700000000 1.0
C      1  0.5753750000000  0.4621750000000  0.4922770000000 1.0
C      1  0.5097650000000  0.5773470000000  0.4817620000000 1.0
C      1  0.4960980000000  0.5013480000000  0.3992220000000 1.0
C      1  0.4870840000000  0.4330080000000  0.4824790000000 1.0
C      1  0.4940430000000  0.5083560000000  0.4758600000000 1.0
C      1  0.5146400000000  0.4968070000000  0.5741510000000 1.0
C      1  0.5336270000000  0.5327780000000  0.4693050000000 1.0
C      1  0.4736660000000  0.4983780000000  0.5260160000000 1.0
C      1  0.4862790000000  0.5662370000000  0.5532970000000 1.0
C      1  0.4753340000000  0.5484200000000  0.4341980000000 1.0
C      1  0.5173720000000  0.5568040000000  0.4629360000000 1.0
C      1  0.5235630000000  0.5031930000000  0.4698120000000 1.0
C      1  0.5343160000000  0.5417300000000  0.5187080000000 1.0
C      1  0.4293980000000  0.4987170000000  0.4713150000000 1.0
C      1  0.5348980000000  0.5698780000000  0.5199460000000 1.0
C      1  0.5649370000000  0.4904860000000  0.5543990000000 1.0
C      1  0.4592400000000  0.5382440000000  0.4559780000000 1.0
C      1  0.4802890000000  0.4753190000000  0.5093880000000 1.0
C      1  0.4917500000000  0.4799880000000  0.4387350000000 1.0
C      1  0.4845200000000  0.4774510000000  0.4110020000000 1.0
C      1  0.4193980000000  0.4791000000000  0.5183280000000 1.0
C      1  0.5141440000000  0.4281840000000  0.4916490000000 1.0
C      1  0.5147220000000  0.4431890000000  0.5162980000000 1.0
C      1  0.4979470000000  0.5131260000000  0.5336800000000 1.0
C      1  0.4364050000000  0.5315640000000  0.5189190000000 1.0
C      1  0.4663880000000  0.5458960000000  0.4830460000000 1.0
C      1  0.4975760000000  0.4725920000000  0.5738510000000 1.0
C      1  0.4262160000000  0.4778900000000  0.4906980000000 1.0
C      1  0.5195180000000  0.4926890000000  0.4406360000000 1.0
C      1  0.5396260000000  0.4268670000000  0.4788920000000 1.0
C      1  0.4705940000000  0.4576860000000  0.3988900000000 1.0
C      1  0.5639650000000  0.4394420000000  0.4792090000000 1.0
C      1  0.4416150000000  0.4676540000000  0.5678210000000 1.0
C      1  0.5078960000000  0.5307780000000  0.5143910000000 1.0
C      1  0.6007630000000  0.4690710000000  0.5038020000000 1.0
C      1  0.4689590000000  0.4737510000000  0.5733700000000 1.0
C      1  0.5020760000000  0.5190750000000  0.5613540000000 1.0
C      1  0.5206220000000  0.5380470000000  0.4194500000000 1.0
C      1  0.5188980000000  0.5098780000000  0.4161630000000 1.0
C      1  0.6059890000000  0.4835210000000  0.5266180000000 1.0
C      1  0.4761280000000  0.4950320000000  0.4578120000000 1.0
C      1  0.5236560000000  0.4391210000000  0.5426310000000 1.0
C      1  0.5508350000000  0.4459310000000  0.5442110000000 1.0
C      1  0.5579820000000  0.5284230000000  0.5192040000000 1.0
C      1  0.4898310000000  0.5314220000000  0.4919350000000 1.0
C      1  0.4422030000000  0.4552050000000  0.4850500000000 1.0
C      1  0.5928620000000  0.4944670000000  0.5482530000000 1.0
C      1  0.5040900000000  0.5529180000000  0.4377590000000 1.0
C      1  0.5304460000000  0.4844390000000  0.4941480000000 1.0
C      1  0.4826060000000  0.5405840000000  0.5658430000000 1.0
C      1  0.5566970000000  0.4717810000000  0.5344770000000 1.0
C      1  0.4690230000000  0.4533570000000  0.4926990000000 1.0
C      1  0.4567910000000  0.5284130000000  0.5616500000000 1.0
C      1  0.5110910000000  0.5820090000000  0.5102040000000 1.0
C      1  0.4781750000000  0.5220160000000  0.3916010000000 1.0
C      1  0.4279950000000  0.4729280000000  0.5432720000000 1.0
C      1  0.5083280000000  0.4480400000000  0.5645130000000 1.0
END
