TITL C-612607-4507-920 4.98744860799259 125000 -601.375015194339 0 0 100 (C1) n - 1
REM
REM in /home/nfs/bkarasulu/CARBON/AIRSS/Generating-Clusters/TERSOFF/Only-C1/FIRE-HFTN
REM
REM
REM
REM
REM
REM ./C.cell (11c1c37f851c82e70ff6c80c92926a4b)
REM AIRSS Version 0.9.1 bugfix July 2018 build 013d7b7c2542+ Fri, 06 Jul 2018 19:26:36 +0100
REM compiler GCC version 9.2.1 20190827 (Red Hat 9.2.1-1)
REM options -cpp -mtune=generic -march=x86-64 -g -O0 -fpre-include=/usr/include/finclude/math-vector-fortran.h
REM seed -447334082 -1627264607 1765708963 -1114000109 1897707893 -404323313 -556265081 -881373730 -1460839952 1843223596 -426768698 477533363 1341140520 -2119109168 -316325796 -1228049861 1522719659 1826022513 981055772 934551608 -597208247 -7802837 1302361496 -1908533415 782166099 -173385229 1417189707 -1976937601 -1594534039 -1296728939 -916199547 352434474 -1456101698
REM
CELL 1.54180   50.00000   50.00000   50.00000   90.00000   90.00000   90.00000
LATT -1
SFAC C  
C      1  0.5274800000000  0.6046660000000  0.5109030000000 1.0
C      1  0.4784310000000  0.5095830000000  0.5546190000000 1.0
C      1  0.5267450000000  0.5901090000000  0.4861970000000 1.0
C      1  0.5555570000000  0.5505870000000  0.4897160000000 1.0
C      1  0.3907170000000  0.4841880000000  0.5945930000000 1.0
C      1  0.5511490000000  0.5765140000000  0.4795300000000 1.0
C      1  0.4419070000000  0.5001130000000  0.5098380000000 1.0
C      1  0.4056820000000  0.5268700000000  0.4844450000000 1.0
C      1  0.4267850000000  0.5246850000000  0.4624640000000 1.0
C      1  0.4925070000000  0.5304330000000  0.4663650000000 1.0
C      1  0.4962480000000  0.4503950000000  0.4534780000000 1.0
C      1  0.4503670000000  0.4295870000000  0.5247860000000 1.0
C      1  0.5733410000000  0.5301240000000  0.3999390000000 1.0
C      1  0.5182540000000  0.4737210000000  0.4996640000000 1.0
C      1  0.4953430000000  0.4324140000000  0.5050820000000 1.0
C      1  0.4438070000000  0.4767120000000  0.4974030000000 1.0
C      1  0.5281280000000  0.5667370000000  0.5758550000000 1.0
C      1  0.5889220000000  0.4757560000000  0.5319120000000 1.0
C      1  0.4947950000000  0.3952460000000  0.4800170000000 1.0
C      1  0.5486740000000  0.4371770000000  0.5582860000000 1.0
C      1  0.5084850000000  0.4504590000000  0.4885750000000 1.0
C      1  0.5586370000000  0.4859110000000  0.5736680000000 1.0
C      1  0.5193420000000  0.5229720000000  0.4752180000000 1.0
C      1  0.5667290000000  0.5320430000000  0.5762150000000 1.0
C      1  0.5386600000000  0.4187760000000  0.4629620000000 1.0
C      1  0.5571370000000  0.4919740000000  0.4493640000000 1.0
C      1  0.4371340000000  0.4416460000000  0.4285250000000 1.0
C      1  0.5239660000000  0.5135240000000  0.5418130000000 1.0
C      1  0.4805800000000  0.5302040000000  0.5333760000000 1.0
C      1  0.4805410000000  0.5559120000000  0.5779900000000 1.0
C      1  0.5647240000000  0.4649860000000  0.4585890000000 1.0
C      1  0.4461610000000  0.5664950000000  0.4488250000000 1.0
C      1  0.4570790000000  0.5256540000000  0.4715500000000 1.0
C      1  0.4102980000000  0.4960870000000  0.5821810000000 1.0
C      1  0.5591170000000  0.5046640000000  0.4947230000000 1.0
C      1  0.5119950000000  0.4059850000000  0.4585760000000 1.0
C      1  0.4575130000000  0.4563870000000  0.4838220000000 1.0
C      1  0.5230340000000  0.5225160000000  0.5956340000000 1.0
C      1  0.5534790000000  0.5510060000000  0.5380470000000 1.0
C      1  0.5440550000000  0.4458260000000  0.4513740000000 1.0
C      1  0.4979120000000  0.4922580000000  0.5032300000000 1.0
C      1  0.4254750000000  0.5470620000000  0.4433330000000 1.0
C      1  0.5540480000000  0.4216640000000  0.5372110000000 1.0
C      1  0.5221970000000  0.4812170000000  0.4210780000000 1.0
C      1  0.5467180000000  0.4963050000000  0.4234730000000 1.0
C      1  0.5578100000000  0.4131060000000  0.5121800000000 1.0
C      1  0.4956490000000  0.4222980000000  0.4417600000000 1.0
C      1  0.5087060000000  0.5471900000000  0.5884060000000 1.0
C      1  0.4871920000000  0.5719620000000  0.5056920000000 1.0
C      1  0.5827360000000  0.4619960000000  0.4807150000000 1.0
C      1  0.5009850000000  0.4963490000000  0.4102690000000 1.0
C      1  0.5833010000000  0.5205480000000  0.5538300000000 1.0
C      1  0.3994420000000  0.5357640000000  0.5110250000000 1.0
C      1  0.4868630000000  0.5148980000000  0.5105290000000 1.0
C      1  0.5041730000000  0.4048690000000  0.5059770000000 1.0
C      1  0.5904710000000  0.4660840000000  0.5065220000000 1.0
C      1  0.4688150000000  0.4612410000000  0.4577640000000 1.0
C      1  0.5012370000000  0.5766570000000  0.4808640000000 1.0
C      1  0.5053260000000  0.5005580000000  0.5565620000000 1.0
C      1  0.4485140000000  0.4160350000000  0.4338540000000 1.0
C      1  0.4831640000000  0.5588810000000  0.5304660000000 1.0
C      1  0.5487520000000  0.5111070000000  0.5870240000000 1.0
C      1  0.4308680000000  0.5352970000000  0.5594690000000 1.0
C      1  0.4313640000000  0.5076780000000  0.5682780000000 1.0
C      1  0.4335440000000  0.4248030000000  0.5695450000000 1.0
C      1  0.5240500000000  0.6016550000000  0.5375320000000 1.0
C      1  0.5253200000000  0.5363480000000  0.4070840000000 1.0
C      1  0.4926790000000  0.5593430000000  0.4586920000000 1.0
C      1  0.4539370000000  0.5164460000000  0.4176510000000 1.0
C      1  0.5536130000000  0.4111940000000  0.4858160000000 1.0
C      1  0.4212580000000  0.5375360000000  0.5311330000000 1.0
C      1  0.4723640000000  0.5597110000000  0.4374910000000 1.0
C      1  0.4650720000000  0.4311870000000  0.4990830000000 1.0
C      1  0.4555580000000  0.4939140000000  0.5614430000000 1.0
C      1  0.5290300000000  0.5392430000000  0.4980030000000 1.0
C      1  0.4745420000000  0.5364830000000  0.4187000000000 1.0
C      1  0.5525320000000  0.5555830000000  0.5665200000000 1.0
C      1  0.5205910000000  0.4599720000000  0.4399490000000 1.0
C      1  0.5779320000000  0.5356670000000  0.5296910000000 1.0
C      1  0.4995320000000  0.5252290000000  0.4099770000000 1.0
C      1  0.4461930000000  0.4036470000000  0.4595000000000 1.0
C      1  0.4753010000000  0.4138120000000  0.4244130000000 1.0
C      1  0.4476340000000  0.4909340000000  0.4237610000000 1.0
C      1  0.5487500000000  0.4596470000000  0.5728570000000 1.0
C      1  0.5310230000000  0.5363690000000  0.5266120000000 1.0
C      1  0.5798140000000  0.4918980000000  0.5535950000000 1.0
C      1  0.5141240000000  0.5850240000000  0.5579490000000 1.0
C      1  0.4547800000000  0.4660960000000  0.5571560000000 1.0
C      1  0.5731420000000  0.5296940000000  0.5019930000000 1.0
C      1  0.5494820000000  0.5213250000000  0.4097740000000 1.0
C      1  0.4422410000000  0.5283780000000  0.5140630000000 1.0
C      1  0.5444420000000  0.5077630000000  0.4692020000000 1.0
C      1  0.4519220000000  0.5498570000000  0.5746880000000 1.0
C      1  0.5443610000000  0.4828060000000  0.5067770000000 1.0
C      1  0.4884160000000  0.5724750000000  0.5546640000000 1.0
C      1  0.4524890000000  0.5453860000000  0.4935750000000 1.0
C      1  0.4504360000000  0.4657800000000  0.4360860000000 1.0
C      1  0.4461590000000  0.4400460000000  0.5506260000000 1.0
C      1  0.4469450000000  0.5698340000000  0.4784450000000 1.0
C      1  0.4655660000000  0.4052490000000  0.4803240000000 1.0
END
