TITL C-612604-1799-71 0.451564363303454 125000 -298.151597629232 0 0 51 (C1) n - 1
REM
REM in /home/nfs/bkarasulu/CARBON/AIRSS/Generating-Clusters/TERSOFF/Only-C1/FIRE-HFTN
REM
REM
REM
REM
REM
REM ./C.cell (11c1c37f851c82e70ff6c80c92926a4b)
REM AIRSS Version 0.9.1 bugfix July 2018 build 013d7b7c2542+ Fri, 06 Jul 2018 19:26:36 +0100
REM compiler GCC version 9.2.1 20190827 (Red Hat 9.2.1-1)
REM options -cpp -mtune=generic -march=x86-64 -g -O0 -fpre-include=/usr/include/finclude/math-vector-fortran.h
REM seed -1122302942 2089624172 -322007249 761887127 1994972628 -1580716935 -616233070 -1972182365 -227634167 -698180779 -622768313 -1718367568 182456780 -1588686080 966623703 548395897 -703469088 614956957 250346635 619837267 -534621000 347891785 -41964084 -467146606 -741375549 -590313341 1059132326 -1917617105 740335431 590279460 -1712337826 -490522458 1967764582
REM
CELL 1.54180   50.00000   50.00000   50.00000   90.00000   90.00000   90.00000
LATT -1
SFAC C  
C      1  0.4659320000000  0.5035080000000  0.4773930000000 1.0
C      1  0.5189420000000  0.5534350000000  0.5545940000000 1.0
C      1  0.4393420000000  0.5825670000000  0.4813920000000 1.0
C      1  0.4567000000000  0.3964430000000  0.5518400000000 1.0
C      1  0.5092860000000  0.5027240000000  0.4238830000000 1.0
C      1  0.4917070000000  0.4447890000000  0.4642350000000 1.0
C      1  0.4416780000000  0.4945150000000  0.5445930000000 1.0
C      1  0.4874580000000  0.5087410000000  0.4911940000000 1.0
C      1  0.5351480000000  0.5340740000000  0.5417980000000 1.0
C      1  0.5282970000000  0.4758340000000  0.4619550000000 1.0
C      1  0.5089350000000  0.4627030000000  0.4792420000000 1.0
C      1  0.5533610000000  0.4630360000000  0.5500030000000 1.0
C      1  0.5406520000000  0.4432740000000  0.5338720000000 1.0
C      1  0.4926460000000  0.4124350000000  0.5020190000000 1.0
C      1  0.3928300000000  0.6057410000000  0.4892810000000 1.0
C      1  0.4938400000000  0.4563140000000  0.4376970000000 1.0
C      1  0.5131770000000  0.4784460000000  0.4368570000000 1.0
C      1  0.4971850000000  0.4978150000000  0.5367210000000 1.0
C      1  0.4527960000000  0.5441630000000  0.5330710000000 1.0
C      1  0.4867240000000  0.4206850000000  0.4771460000000 1.0
C      1  0.5503760000000  0.5473730000000  0.4760350000000 1.0
C      1  0.5111450000000  0.5421130000000  0.3966150000000 1.0
C      1  0.4859470000000  0.4774620000000  0.5518410000000 1.0
C      1  0.5300040000000  0.5485560000000  0.4948570000000 1.0
C      1  0.4413270000000  0.5207350000000  0.5390290000000 1.0
C      1  0.5532170000000  0.4387440000000  0.5091310000000 1.0
C      1  0.4714060000000  0.5572620000000  0.4547500000000 1.0
C      1  0.4525060000000  0.4447170000000  0.5448490000000 1.0
C      1  0.5265300000000  0.5287660000000  0.5148690000000 1.0
C      1  0.5016520000000  0.5292930000000  0.4188750000000 1.0
C      1  0.4581020000000  0.4720820000000  0.5485170000000 1.0
C      1  0.4845380000000  0.5429490000000  0.4365250000000 1.0
C      1  0.5025450000000  0.4560880000000  0.5593040000000 1.0
C      1  0.4159050000000  0.5943020000000  0.4852430000000 1.0
C      1  0.5658100000000  0.5420220000000  0.4551810000000 1.0
C      1  0.4948240000000  0.5635760000000  0.5478460000000 1.0
C      1  0.5546670000000  0.4691900000000  0.4685640000000 1.0
C      1  0.4927980000000  0.4209350000000  0.5288040000000 1.0
C      1  0.5095200000000  0.5678330000000  0.4941590000000 1.0
C      1  0.5886240000000  0.5253920000000  0.4108680000000 1.0
C      1  0.5046770000000  0.5106280000000  0.5130670000000 1.0
C      1  0.4820210000000  0.5682030000000  0.5008460000000 1.0
C      1  0.5570300000000  0.4887380000000  0.5563880000000 1.0
C      1  0.5780640000000  0.5341090000000  0.4330510000000 1.0
C      1  0.5624150000000  0.4512750000000  0.4872180000000 1.0
C      1  0.4669340000000  0.4204300000000  0.5419710000000 1.0
C      1  0.4474210000000  0.3738340000000  0.5608890000000 1.0
C      1  0.5134360000000  0.4370940000000  0.5409810000000 1.0
C      1  0.4638020000000  0.5694420000000  0.4789990000000 1.0
C      1  0.5512280000000  0.5147550000000  0.5541880000000 1.0
C      1  0.4748910000000  0.5608620000000  0.5277520000000 1.0
END
