TITL C-612605-9286-433 -6201.43571345295 125000 -1208.83201444219 0 0 195 (C1) n - 1
REM
REM in /home/nfs/bkarasulu/CARBON/AIRSS/Generating-Clusters/TERSOFF/Only-C1/FIRE-HFTN
REM
REM
REM
REM
REM
REM ./C.cell (11c1c37f851c82e70ff6c80c92926a4b)
REM AIRSS Version 0.9.1 bugfix July 2018 build 013d7b7c2542+ Fri, 06 Jul 2018 19:26:36 +0100
REM compiler GCC version 9.2.1 20190827 (Red Hat 9.2.1-1)
REM options -cpp -mtune=generic -march=x86-64 -g -O0 -fpre-include=/usr/include/finclude/math-vector-fortran.h
REM seed 348282477 -150380689 1836446380 -2090307911 -1392712317 1211981205 -983624012 -1950639488 1139728328 -887995962 116386258 354453489 -2082062503 31460204 -766780184 1176942424 2120259406 -2042022531 1089207677 590805312 1045589311 165959844 1780129777 -505075201 1621542158 1069397442 -948527291 -284978843 -1800266189 -1541360947 1303190204 -226113344 1502858572
REM
CELL 1.54180   50.00000   50.00000   50.00000   90.00000   90.00000   90.00000
LATT -1
SFAC C  
C      1  0.5214360000000  0.5037150000000  0.6127920000000 1.0
C      1  0.5819490000000  0.5165850000000  0.4922160000000 1.0
C      1  0.4854750000000  0.5948940000000  0.4418160000000 1.0
C      1  0.5579860000000  0.5281760000000  0.5476540000000 1.0
C      1  0.5815880000000  0.4641560000000  0.4548980000000 1.0
C      1  0.4614570000000  0.5189250000000  0.5819780000000 1.0
C      1  0.6222080000000  0.4866730000000  0.4818250000000 1.0
C      1  0.6157110000000  0.5376910000000  0.4451260000000 1.0
C      1  0.4543420000000  0.5458250000000  0.4648700000000 1.0
C      1  0.5867170000000  0.4936710000000  0.5941820000000 1.0
C      1  0.4080190000000  0.5495210000000  0.5185820000000 1.0
C      1  0.4181930000000  0.5508850000000  0.5453170000000 1.0
C      1  0.4780320000000  0.5984020000000  0.4943100000000 1.0
C      1  0.5232410000000  0.3829310000000  0.5299910000000 1.0
C      1  0.5392560000000  0.4442800000000  0.5087730000000 1.0
C      1  0.5888720000000  0.4261920000000  0.3865160000000 1.0
C      1  0.5396070000000  0.5267500000000  0.4475650000000 1.0
C      1  0.4560900000000  0.4490230000000  0.4667240000000 1.0
C      1  0.5919660000000  0.5014300000000  0.4254350000000 1.0
C      1  0.4075330000000  0.5010130000000  0.4965090000000 1.0
C      1  0.5223710000000  0.3793000000000  0.5009270000000 1.0
C      1  0.4848600000000  0.6096750000000  0.4683100000000 1.0
C      1  0.6079340000000  0.4234690000000  0.6022140000000 1.0
C      1  0.3520910000000  0.5045900000000  0.5190340000000 1.0
C      1  0.6075640000000  0.5689980000000  0.5113240000000 1.0
C      1  0.5392340000000  0.4885800000000  0.4988910000000 1.0
C      1  0.5505250000000  0.4240330000000  0.4512450000000 1.0
C      1  0.5882990000000  0.4427940000000  0.4703720000000 1.0
C      1  0.5228340000000  0.5735180000000  0.5795030000000 1.0
C      1  0.6107090000000  0.3980280000000  0.6071320000000 1.0
C      1  0.5844490000000  0.4196280000000  0.4840240000000 1.0
C      1  0.4798580000000  0.5955560000000  0.5583480000000 1.0
C      1  0.4951190000000  0.5122920000000  0.4835220000000 1.0
C      1  0.4095650000000  0.4259720000000  0.5104670000000 1.0
C      1  0.5532580000000  0.5702620000000  0.4125870000000 1.0
C      1  0.4829800000000  0.4784150000000  0.5987930000000 1.0
C      1  0.4707690000000  0.5438900000000  0.5181470000000 1.0
C      1  0.5691280000000  0.4204930000000  0.4032270000000 1.0
C      1  0.3670700000000  0.5256240000000  0.5085580000000 1.0
C      1  0.4740460000000  0.4224950000000  0.5164430000000 1.0
C      1  0.5405330000000  0.5945160000000  0.5739050000000 1.0
C      1  0.4676650000000  0.5132590000000  0.5549750000000 1.0
C      1  0.5251240000000  0.5768180000000  0.4133260000000 1.0
C      1  0.4134960000000  0.4257740000000  0.5393330000000 1.0
C      1  0.5653760000000  0.5017280000000  0.5357270000000 1.0
C      1  0.4305010000000  0.4440470000000  0.4549240000000 1.0
C      1  0.4900310000000  0.4534340000000  0.5520190000000 1.0
C      1  0.4569750000000  0.5449290000000  0.4932100000000 1.0
C      1  0.5211960000000  0.4211080000000  0.5689280000000 1.0
C      1  0.3957130000000  0.4503570000000  0.5037250000000 1.0
C      1  0.5410830000000  0.4623640000000  0.4865460000000 1.0
C      1  0.4334150000000  0.4985930000000  0.4832990000000 1.0
C      1  0.4747720000000  0.4691170000000  0.3912460000000 1.0
C      1  0.6099850000000  0.5088930000000  0.4939690000000 1.0
C      1  0.4717090000000  0.4202040000000  0.4030080000000 1.0
C      1  0.5408420000000  0.4977280000000  0.5929810000000 1.0
C      1  0.4467400000000  0.5703660000000  0.4528920000000 1.0
C      1  0.5586210000000  0.5464690000000  0.4562010000000 1.0
C      1  0.5291430000000  0.4887950000000  0.5697640000000 1.0
C      1  0.5611270000000  0.4732160000000  0.5433570000000 1.0
C      1  0.4879890000000  0.5230080000000  0.4340150000000 1.0
C      1  0.5164100000000  0.5525540000000  0.5358870000000 1.0
C      1  0.4100440000000  0.4523940000000  0.5493810000000 1.0
C      1  0.6226350000000  0.4679770000000  0.5836830000000 1.0
C      1  0.5799020000000  0.4656540000000  0.6028050000000 1.0
C      1  0.5544530000000  0.5540580000000  0.5062800000000 1.0
C      1  0.4618370000000  0.3997170000000  0.4509910000000 1.0
C      1  0.4354040000000  0.4358970000000  0.4274210000000 1.0
C      1  0.4740120000000  0.3757690000000  0.5040380000000 1.0
C      1  0.5574580000000  0.5341390000000  0.5759470000000 1.0
C      1  0.4509310000000  0.4668260000000  0.5227080000000 1.0
C      1  0.5721910000000  0.5460660000000  0.4834560000000 1.0
C      1  0.4710640000000  0.4706350000000  0.4771440000000 1.0
C      1  0.5653800000000  0.5111880000000  0.5912520000000 1.0
C      1  0.5248320000000  0.4524960000000  0.6090960000000 1.0
C      1  0.3815250000000  0.5899950000000  0.5060050000000 1.0
C      1  0.3959040000000  0.5251460000000  0.5077640000000 1.0
C      1  0.4615470000000  0.4141900000000  0.5970060000000 1.0
C      1  0.6167460000000  0.5084160000000  0.4397420000000 1.0
C      1  0.5850690000000  0.3798810000000  0.5119240000000 1.0
C      1  0.4317680000000  0.5880870000000  0.4685460000000 1.0
C      1  0.5195970000000  0.4920700000000  0.5457030000000 1.0
C      1  0.4262570000000  0.4830910000000  0.4343080000000 1.0
C      1  0.4918460000000  0.6208390000000  0.5538580000000 1.0
C      1  0.4567270000000  0.5896700000000  0.5405700000000 1.0
C      1  0.4936000000000  0.5780410000000  0.5781520000000 1.0
C      1  0.4972880000000  0.5790710000000  0.5020320000000 1.0
C      1  0.4333870000000  0.4627750000000  0.4135610000000 1.0
C      1  0.3562810000000  0.5770920000000  0.5000830000000 1.0
C      1  0.4756670000000  0.5180840000000  0.5286170000000 1.0
C      1  0.4294980000000  0.5893630000000  0.4967830000000 1.0
C      1  0.3357760000000  0.4854710000000  0.5274210000000 1.0
C      1  0.3875350000000  0.4611170000000  0.5619590000000 1.0
C      1  0.5127110000000  0.5962370000000  0.4300770000000 1.0
C      1  0.4334600000000  0.4679890000000  0.5459610000000 1.0
C      1  0.6194420000000  0.5481820000000  0.4714050000000 1.0
C      1  0.6274610000000  0.5318080000000  0.4953610000000 1.0
C      1  0.4651700000000  0.5004040000000  0.6036260000000 1.0
C      1  0.4638090000000  0.5791520000000  0.4322380000000 1.0
C      1  0.5246690000000  0.6182360000000  0.4447220000000 1.0
C      1  0.5715800000000  0.4872260000000  0.4406810000000 1.0
C      1  0.3204190000000  0.4658780000000  0.5351580000000 1.0
C      1  0.4823790000000  0.4963800000000  0.3957410000000 1.0
C      1  0.5950690000000  0.5475310000000  0.4263290000000 1.0
C      1  0.4446990000000  0.3901350000000  0.5399200000000 1.0
C      1  0.5090960000000  0.4408790000000  0.4191410000000 1.0
C      1  0.3340150000000  0.5942750000000  0.4959370000000 1.0
C      1  0.5203360000000  0.4140890000000  0.4202480000000 1.0
C      1  0.6257340000000  0.5343440000000  0.5454080000000 1.0
C      1  0.4079110000000  0.5350750000000  0.5650510000000 1.0
C      1  0.6087490000000  0.4340900000000  0.3708610000000 1.0
C      1  0.4635320000000  0.5646700000000  0.4078330000000 1.0
C      1  0.4484970000000  0.4689680000000  0.5695210000000 1.0
C      1  0.5132210000000  0.4279980000000  0.5963790000000 1.0
C      1  0.6039290000000  0.4502650000000  0.5967030000000 1.0
C      1  0.5085120000000  0.5600620000000  0.3967080000000 1.0
C      1  0.5373960000000  0.4000170000000  0.4610040000000 1.0
C      1  0.5380220000000  0.4488840000000  0.4600410000000 1.0
C      1  0.5539130000000  0.4555830000000  0.6097590000000 1.0
C      1  0.4960310000000  0.3778720000000  0.4861480000000 1.0
C      1  0.5468780000000  0.5118850000000  0.3865800000000 1.0
C      1  0.4943600000000  0.5061570000000  0.5106430000000 1.0
C      1  0.4513740000000  0.5027800000000  0.6277070000000 1.0
C      1  0.4525450000000  0.4812640000000  0.4975540000000 1.0
C      1  0.5012560000000  0.4999110000000  0.4184820000000 1.0
C      1  0.3345300000000  0.6212940000000  0.4991770000000 1.0
C      1  0.5185860000000  0.4572840000000  0.4403390000000 1.0
C      1  0.4405180000000  0.4001880000000  0.4716170000000 1.0
C      1  0.4294780000000  0.4080220000000  0.5550810000000 1.0
C      1  0.4108780000000  0.4652830000000  0.4516070000000 1.0
C      1  0.3578510000000  0.6333750000000  0.5063950000000 1.0
C      1  0.5414490000000  0.4525000000000  0.5362360000000 1.0
C      1  0.5205510000000  0.4249500000000  0.5030880000000 1.0
C      1  0.4959540000000  0.5491640000000  0.6174670000000 1.0
C      1  0.6282900000000  0.4423740000000  0.3557200000000 1.0
C      1  0.4539360000000  0.5966890000000  0.5112950000000 1.0
C      1  0.5341980000000  0.5478160000000  0.5884640000000 1.0
C      1  0.6218270000000  0.5157730000000  0.5644290000000 1.0
C      1  0.5129400000000  0.6472260000000  0.5147920000000 1.0
C      1  0.5975310000000  0.5636020000000  0.4841970000000 1.0
C      1  0.4927160000000  0.5615720000000  0.5236310000000 1.0
C      1  0.5613030000000  0.5578740000000  0.3878220000000 1.0
C      1  0.5115930000000  0.5341380000000  0.4473710000000 1.0
C      1  0.4230290000000  0.4096660000000  0.4906860000000 1.0
C      1  0.5716590000000  0.3958970000000  0.4941730000000 1.0
C      1  0.5109000000000  0.4844920000000  0.4429370000000 1.0
C      1  0.4921250000000  0.4883260000000  0.4671450000000 1.0
C      1  0.5182510000000  0.5332150000000  0.6097310000000 1.0
C      1  0.5131020000000  0.3971540000000  0.4441010000000 1.0
C      1  0.4796220000000  0.5620370000000  0.5976470000000 1.0
C      1  0.5075940000000  0.4773310000000  0.6131370000000 1.0
C      1  0.5433260000000  0.5461540000000  0.5307320000000 1.0
C      1  0.4635130000000  0.5214180000000  0.3582310000000 1.0
C      1  0.4894560000000  0.3896210000000  0.4588980000000 1.0
C      1  0.3877070000000  0.4723460000000  0.4647680000000 1.0
C      1  0.4640060000000  0.3959780000000  0.5209470000000 1.0
C      1  0.4061460000000  0.5759300000000  0.5067480000000 1.0
C      1  0.3801870000000  0.6182200000000  0.5098910000000 1.0
C      1  0.5705730000000  0.5611110000000  0.4344980000000 1.0
C      1  0.6293970000000  0.4891450000000  0.4557980000000 1.0
C      1  0.4398260000000  0.5023520000000  0.4527070000000 1.0
C      1  0.5100140000000  0.5637730000000  0.4825880000000 1.0
C      1  0.4551440000000  0.4148920000000  0.4255240000000 1.0
C      1  0.4760610000000  0.5220550000000  0.3827860000000 1.0
C      1  0.4760740000000  0.4648680000000  0.5748410000000 1.0
C      1  0.5494740000000  0.4192190000000  0.4224150000000 1.0
C      1  0.5455050000000  0.4994150000000  0.4450270000000 1.0
C      1  0.3545710000000  0.5493600000000  0.5006630000000 1.0
C      1  0.5267960000000  0.5035090000000  0.4019300000000 1.0
C      1  0.5679420000000  0.5301660000000  0.3889850000000 1.0
C      1  0.3919240000000  0.4763250000000  0.4925080000000 1.0
C      1  0.5236340000000  0.3966520000000  0.5537380000000 1.0
C      1  0.4398370000000  0.4125810000000  0.5811220000000 1.0
C      1  0.5153170000000  0.6434020000000  0.4885190000000 1.0
C      1  0.5038760000000  0.6388520000000  0.5383920000000 1.0
C      1  0.5088160000000  0.6269300000000  0.4670900000000 1.0
C      1  0.4719300000000  0.4473590000000  0.5298580000000 1.0
C      1  0.4873060000000  0.4184840000000  0.6036290000000 1.0
C      1  0.5631960000000  0.5017790000000  0.5066860000000 1.0
C      1  0.4825750000000  0.5485320000000  0.3940280000000 1.0
C      1  0.4389360000000  0.5056780000000  0.6504200000000 1.0
C      1  0.6244560000000  0.5470380000000  0.5203970000000 1.0
C      1  0.5048700000000  0.5376990000000  0.4743290000000 1.0
C      1  0.4583040000000  0.5459630000000  0.5892660000000 1.0
C      1  0.4367350000000  0.5717450000000  0.5502070000000 1.0
C      1  0.5449940000000  0.3887100000000  0.4854660000000 1.0
C      1  0.5874820000000  0.5246050000000  0.4086020000000 1.0
C      1  0.5592990000000  0.6115360000000  0.5677920000000 1.0
C      1  0.5176160000000  0.4934550000000  0.5182600000000 1.0
C      1  0.4603400000000  0.5230870000000  0.4474920000000 1.0
C      1  0.6124900000000  0.4949050000000  0.5806280000000 1.0
C      1  0.5179670000000  0.4442290000000  0.5521610000000 1.0
C      1  0.4466930000000  0.4666380000000  0.3895040000000 1.0
C      1  0.4874210000000  0.4446240000000  0.4012140000000 1.0
C      1  0.4947380000000  0.4233510000000  0.4978810000000 1.0
END
