TITL C-612604-1799-527 101.539613004815 125000 -803.454118252466 0 0 132 (C1) n - 1
REM
REM in /home/nfs/bkarasulu/CARBON/AIRSS/Generating-Clusters/TERSOFF/Only-C1/FIRE-HFTN
REM
REM
REM
REM
REM
REM ./C.cell (11c1c37f851c82e70ff6c80c92926a4b)
REM AIRSS Version 0.9.1 bugfix July 2018 build 013d7b7c2542+ Fri, 06 Jul 2018 19:26:36 +0100
REM compiler GCC version 9.2.1 20190827 (Red Hat 9.2.1-1)
REM options -cpp -mtune=generic -march=x86-64 -g -O0 -fpre-include=/usr/include/finclude/math-vector-fortran.h
REM seed 1490794803 -1198862286 1438351251 -1332542288 -1554965135 -973570583 -164349282 503732646 -125360346 -1368052852 125176812 -948121268 -128966728 1335455207 1061203387 1141769157 -384112200 360924773 1637082708 1897190262 -113761828 875247679 1461913224 663864997 1150972691 675311529 -1810376149 2119743237 -1056688826 -104033666 -567234436 651133529 498235389
REM
CELL 1.54180   50.00000   50.00000   50.00000   90.00000   90.00000   90.00000
LATT -1
SFAC C  
C      1  0.4675640000000  0.4337080000000  0.4090770000000 1.0
C      1  0.4900740000000  0.4461390000000  0.4016830000000 1.0
C      1  0.5136750000000  0.4603850000000  0.4097140000000 1.0
C      1  0.5521190000000  0.5876100000000  0.4913620000000 1.0
C      1  0.4842820000000  0.5500600000000  0.4332990000000 1.0
C      1  0.5097500000000  0.4729000000000  0.4724650000000 1.0
C      1  0.5683300000000  0.5695390000000  0.4754750000000 1.0
C      1  0.4066340000000  0.4646750000000  0.4385550000000 1.0
C      1  0.4126070000000  0.5161010000000  0.5100060000000 1.0
C      1  0.4521860000000  0.4193890000000  0.4534160000000 1.0
C      1  0.5328090000000  0.5088900000000  0.5853950000000 1.0
C      1  0.4608400000000  0.5165800000000  0.4059710000000 1.0
C      1  0.4661330000000  0.4909060000000  0.4545850000000 1.0
C      1  0.5393610000000  0.5278900000000  0.6050380000000 1.0
C      1  0.4562860000000  0.6049310000000  0.4762420000000 1.0
C      1  0.4515670000000  0.4620490000000  0.4973600000000 1.0
C      1  0.5086750000000  0.5569620000000  0.5197780000000 1.0
C      1  0.4263870000000  0.4550880000000  0.4866540000000 1.0
C      1  0.4911510000000  0.4312000000000  0.6104900000000 1.0
C      1  0.5222990000000  0.5126320000000  0.4293280000000 1.0
C      1  0.5710460000000  0.5403120000000  0.4842750000000 1.0
C      1  0.5117900000000  0.4603910000000  0.5703490000000 1.0
C      1  0.4685110000000  0.4180890000000  0.5408580000000 1.0
C      1  0.5543860000000  0.5407190000000  0.5097020000000 1.0
C      1  0.5400820000000  0.5000370000000  0.4918330000000 1.0
C      1  0.4834100000000  0.5501150000000  0.5083350000000 1.0
C      1  0.5158640000000  0.4657120000000  0.5185870000000 1.0
C      1  0.5872360000000  0.4483200000000  0.4960430000000 1.0
C      1  0.4325950000000  0.5028010000000  0.6099960000000 1.0
C      1  0.5268640000000  0.5440450000000  0.5027230000000 1.0
C      1  0.4038210000000  0.5868740000000  0.5094010000000 1.0
C      1  0.4960830000000  0.5640700000000  0.5995490000000 1.0
C      1  0.4649100000000  0.5471640000000  0.5297840000000 1.0
C      1  0.5584640000000  0.5467950000000  0.6032660000000 1.0
C      1  0.4335890000000  0.4587910000000  0.4315340000000 1.0
C      1  0.4132900000000  0.5123710000000  0.4474990000000 1.0
C      1  0.5983260000000  0.5054040000000  0.4244710000000 1.0
C      1  0.4193280000000  0.4276590000000  0.4902520000000 1.0
C      1  0.5749070000000  0.5684820000000  0.4244040000000 1.0
C      1  0.4030840000000  0.4862240000000  0.4578290000000 1.0
C      1  0.4402420000000  0.5142510000000  0.5162580000000 1.0
C      1  0.4761130000000  0.5172790000000  0.5948950000000 1.0
C      1  0.4473120000000  0.5072160000000  0.5430850000000 1.0
C      1  0.4127870000000  0.4227510000000  0.5175050000000 1.0
C      1  0.5305560000000  0.4637560000000  0.4560130000000 1.0
C      1  0.5506700000000  0.4775370000000  0.4445700000000 1.0
C      1  0.4618450000000  0.5597110000000  0.4492800000000 1.0
C      1  0.5315360000000  0.4902060000000  0.5176420000000 1.0
C      1  0.5628240000000  0.4442040000000  0.4116880000000 1.0
C      1  0.4904430000000  0.4126620000000  0.5597190000000 1.0
C      1  0.5941330000000  0.4945870000000  0.5187260000000 1.0
C      1  0.4379670000000  0.5066150000000  0.4225840000000 1.0
C      1  0.4873150000000  0.4322390000000  0.4915420000000 1.0
C      1  0.5289330000000  0.4042740000000  0.4863400000000 1.0
C      1  0.4301740000000  0.4114270000000  0.4698260000000 1.0
C      1  0.4576580000000  0.4956080000000  0.6009930000000 1.0
C      1  0.5115540000000  0.5291950000000  0.4733690000000 1.0
C      1  0.5516200000000  0.5076140000000  0.4413360000000 1.0
C      1  0.4208520000000  0.4401280000000  0.5390340000000 1.0
C      1  0.5760530000000  0.5771680000000  0.4496190000000 1.0
C      1  0.5783880000000  0.5087820000000  0.5396740000000 1.0
C      1  0.5666250000000  0.5355020000000  0.5354490000000 1.0
C      1  0.5398680000000  0.4088930000000  0.4596080000000 1.0
C      1  0.5459530000000  0.4146500000000  0.5079210000000 1.0
C      1  0.5273690000000  0.5945340000000  0.4794850000000 1.0
C      1  0.4811900000000  0.4238870000000  0.5846440000000 1.0
C      1  0.5545880000000  0.5912400000000  0.5195920000000 1.0
C      1  0.5694500000000  0.4864670000000  0.5569070000000 1.0
C      1  0.5135000000000  0.5009640000000  0.4783180000000 1.0
C      1  0.5087200000000  0.4586420000000  0.5445320000000 1.0
C      1  0.5199750000000  0.5844030000000  0.5555250000000 1.0
C      1  0.4553360000000  0.5865560000000  0.4562360000000 1.0
C      1  0.5862650000000  0.4454580000000  0.4249530000000 1.0
C      1  0.5408960000000  0.4185280000000  0.5358070000000 1.0
C      1  0.4862700000000  0.5184130000000  0.5681140000000 1.0
C      1  0.5588580000000  0.4371410000000  0.5479290000000 1.0
C      1  0.4601670000000  0.5107690000000  0.4972740000000 1.0
C      1  0.4810170000000  0.4555850000000  0.6184090000000 1.0
C      1  0.6083450000000  0.5102610000000  0.5004770000000 1.0
C      1  0.4720680000000  0.5425100000000  0.4084960000000 1.0
C      1  0.4580280000000  0.4438770000000  0.5792100000000 1.0
C      1  0.3735840000000  0.6297710000000  0.5066340000000 1.0
C      1  0.5474840000000  0.5804840000000  0.5453120000000 1.0
C      1  0.5030300000000  0.5840500000000  0.4757460000000 1.0
C      1  0.5703380000000  0.5564780000000  0.5812080000000 1.0
C      1  0.5238720000000  0.5078630000000  0.5383680000000 1.0
C      1  0.6111860000000  0.4844350000000  0.4348590000000 1.0
C      1  0.4606760000000  0.4676710000000  0.5222770000000 1.0
C      1  0.4493040000000  0.4822120000000  0.4338260000000 1.0
C      1  0.4481230000000  0.4344850000000  0.4294590000000 1.0
C      1  0.4438140000000  0.4796780000000  0.5422510000000 1.0
C      1  0.5716570000000  0.5443130000000  0.4134080000000 1.0
C      1  0.5035600000000  0.4559170000000  0.4945520000000 1.0
C      1  0.3883710000000  0.6083540000000  0.5081180000000 1.0
C      1  0.5734020000000  0.5183060000000  0.4237360000000 1.0
C      1  0.6009450000000  0.4546670000000  0.4718600000000 1.0
C      1  0.5674460000000  0.4147820000000  0.4665720000000 1.0
C      1  0.4637020000000  0.6090120000000  0.5021570000000 1.0
C      1  0.4761990000000  0.4193140000000  0.5140180000000 1.0
C      1  0.5172250000000  0.4096080000000  0.5497670000000 1.0
C      1  0.4125670000000  0.5405710000000  0.4939070000000 1.0
C      1  0.5633970000000  0.5576720000000  0.5540480000000 1.0
C      1  0.5875090000000  0.4660700000000  0.5183600000000 1.0
C      1  0.4629330000000  0.4672910000000  0.5984720000000 1.0
C      1  0.5731060000000  0.4609780000000  0.5433750000000 1.0
C      1  0.4220280000000  0.5651710000000  0.5095040000000 1.0
C      1  0.4846080000000  0.5662440000000  0.4848720000000 1.0
C      1  0.4040500000000  0.4878030000000  0.5115550000000 1.0
C      1  0.4678800000000  0.5919030000000  0.5246360000000 1.0
C      1  0.6019160000000  0.4595170000000  0.4440130000000 1.0
C      1  0.4483430000000  0.5380050000000  0.4612750000000 1.0
C      1  0.4769140000000  0.4233180000000  0.4667900000000 1.0
C      1  0.4622990000000  0.5142900000000  0.4700040000000 1.0
C      1  0.5068660000000  0.5342090000000  0.4445380000000 1.0
C      1  0.4827050000000  0.5418510000000  0.6079560000000 1.0
C      1  0.4068710000000  0.4760120000000  0.4849370000000 1.0
C      1  0.5350940000000  0.4413580000000  0.4169470000000 1.0
C      1  0.5296360000000  0.4197710000000  0.4355980000000 1.0
C      1  0.4200000000000  0.5348920000000  0.4656630000000 1.0
C      1  0.5105350000000  0.5784770000000  0.5817560000000 1.0
C      1  0.4459210000000  0.4332960000000  0.5538310000000 1.0
C      1  0.5535080000000  0.4906310000000  0.5793160000000 1.0
C      1  0.4669830000000  0.5262910000000  0.5491050000000 1.0
C      1  0.5702040000000  0.4254030000000  0.4937930000000 1.0
C      1  0.5993090000000  0.5320370000000  0.4874360000000 1.0
C      1  0.4472780000000  0.5696150000000  0.5255830000000 1.0
C      1  0.4830400000000  0.4983170000000  0.4015670000000 1.0
C      1  0.5569890000000  0.5155450000000  0.4715260000000 1.0
C      1  0.5088150000000  0.4903070000000  0.4128940000000 1.0
C      1  0.4165950000000  0.4698900000000  0.5347500000000 1.0
C      1  0.5005810000000  0.5813200000000  0.5345530000000 1.0
C      1  0.5138280000000  0.5130530000000  0.5641450000000 1.0
END
