TITL C-612602-9376-1315 0.670737596923928 125000 -1148.78376622107 0 0 187 (C1) n - 1
REM
REM in /home/nfs/bkarasulu/CARBON/AIRSS/Generating-Clusters/TERSOFF/Only-C1/FIRE-HFTN
REM
REM
REM
REM
REM
REM ./C.cell (11c1c37f851c82e70ff6c80c92926a4b)
REM AIRSS Version 0.9.1 bugfix July 2018 build 013d7b7c2542+ Fri, 06 Jul 2018 19:26:36 +0100
REM compiler GCC version 9.2.1 20190827 (Red Hat 9.2.1-1)
REM options -cpp -mtune=generic -march=x86-64 -g -O0 -fpre-include=/usr/include/finclude/math-vector-fortran.h
REM seed -1835812457 -840110400 -365889037 -1129245045 1784270459 -346770710 -630302805 -637511977 -1518073907 925749447 814848810 -1605876279 -973857420 1288438763 -1530681573 -356352724 -2122540972 1797699107 610543564 -194128434 -2078138439 -1514795444 1601823845 -418207581 1426901589 -648954201 -1845152827 1511090658 430283414 -83878300 1244596919 1999917399 836753337
REM
CELL 1.54180   50.00000   50.00000   50.00000   90.00000   90.00000   90.00000
LATT -1
SFAC C  
C      1  0.5247550000000  0.4994730000000  0.4037540000000 1.0
C      1  0.5880600000000  0.4100020000000  0.5471010000000 1.0
C      1  0.4476630000000  0.5713920000000  0.5197770000000 1.0
C      1  0.3870530000000  0.5226330000000  0.6206610000000 1.0
C      1  0.4957440000000  0.5070460000000  0.5303400000000 1.0
C      1  0.4205660000000  0.4572300000000  0.5568620000000 1.0
C      1  0.4686740000000  0.5661680000000  0.5041400000000 1.0
C      1  0.4308750000000  0.4850630000000  0.4568430000000 1.0
C      1  0.4177750000000  0.4143700000000  0.4745870000000 1.0
C      1  0.3876840000000  0.4698410000000  0.4735910000000 1.0
C      1  0.5208950000000  0.5277010000000  0.4048780000000 1.0
C      1  0.6337710000000  0.5476030000000  0.4635670000000 1.0
C      1  0.5866570000000  0.6017110000000  0.4569010000000 1.0
C      1  0.5892370000000  0.4935050000000  0.5488070000000 1.0
C      1  0.3674980000000  0.5428820000000  0.6186870000000 1.0
C      1  0.4859160000000  0.5036310000000  0.3754810000000 1.0
C      1  0.4546880000000  0.4777530000000  0.4129940000000 1.0
C      1  0.4871430000000  0.3948140000000  0.5526330000000 1.0
C      1  0.4361450000000  0.4092010000000  0.5193810000000 1.0
C      1  0.5370770000000  0.6105420000000  0.5189590000000 1.0
C      1  0.5549520000000  0.5921060000000  0.5615650000000 1.0
C      1  0.4648310000000  0.4990650000000  0.4312010000000 1.0
C      1  0.3965570000000  0.4584520000000  0.5399760000000 1.0
C      1  0.5794450000000  0.5017090000000  0.4851320000000 1.0
C      1  0.5250870000000  0.4843760000000  0.4530560000000 1.0
C      1  0.4562020000000  0.4507470000000  0.4017120000000 1.0
C      1  0.5153190000000  0.3903280000000  0.4820780000000 1.0
C      1  0.4717390000000  0.4186620000000  0.5511040000000 1.0
C      1  0.5419370000000  0.3935450000000  0.4935820000000 1.0
C      1  0.4378760000000  0.5111560000000  0.3865470000000 1.0
C      1  0.4453580000000  0.5829240000000  0.5926580000000 1.0
C      1  0.5527730000000  0.5504730000000  0.4612760000000 1.0
C      1  0.4907820000000  0.6077900000000  0.4312250000000 1.0
C      1  0.4811440000000  0.5024360000000  0.5784300000000 1.0
C      1  0.5299440000000  0.5523640000000  0.3936190000000 1.0
C      1  0.4049780000000  0.5985100000000  0.4800300000000 1.0
C      1  0.5388560000000  0.4879600000000  0.4267890000000 1.0
C      1  0.4039520000000  0.5351500000000  0.4450970000000 1.0
C      1  0.3748580000000  0.5258340000000  0.5125630000000 1.0
C      1  0.5076970000000  0.5702860000000  0.3891050000000 1.0
C      1  0.4870480000000  0.4279160000000  0.4677830000000 1.0
C      1  0.5908600000000  0.5313070000000  0.5814710000000 1.0
C      1  0.5663980000000  0.5830660000000  0.6077430000000 1.0
C      1  0.5012170000000  0.4344050000000  0.3989650000000 1.0
C      1  0.5064560000000  0.5978210000000  0.5553960000000 1.0
C      1  0.6606570000000  0.5110200000000  0.4993890000000 1.0
C      1  0.4726720000000  0.4977350000000  0.6031960000000 1.0
C      1  0.5348030000000  0.5438200000000  0.5285610000000 1.0
C      1  0.5448210000000  0.4258830000000  0.4277670000000 1.0
C      1  0.5782510000000  0.5116780000000  0.4111670000000 1.0
C      1  0.5487990000000  0.3935450000000  0.5207900000000 1.0
C      1  0.5858070000000  0.4490390000000  0.4729890000000 1.0
C      1  0.5310670000000  0.4684950000000  0.4759710000000 1.0
C      1  0.4811550000000  0.5904670000000  0.5604950000000 1.0
C      1  0.3608130000000  0.5559610000000  0.5961340000000 1.0
C      1  0.5064660000000  0.4865840000000  0.3858780000000 1.0
C      1  0.5722640000000  0.5977400000000  0.4329920000000 1.0
C      1  0.5674930000000  0.4880740000000  0.4224940000000 1.0
C      1  0.4019520000000  0.4478060000000  0.5135280000000 1.0
C      1  0.5678130000000  0.4125770000000  0.6077620000000 1.0
C      1  0.5335770000000  0.5463170000000  0.5565650000000 1.0
C      1  0.6307330000000  0.5736280000000  0.4589580000000 1.0
C      1  0.5906510000000  0.5586040000000  0.5733420000000 1.0
C      1  0.5359390000000  0.5100910000000  0.5926560000000 1.0
C      1  0.3946820000000  0.5503200000000  0.4683440000000 1.0
C      1  0.4147590000000  0.5542410000000  0.5517100000000 1.0
C      1  0.4024360000000  0.4720430000000  0.4974700000000 1.0
C      1  0.5420860000000  0.5172220000000  0.5199890000000 1.0
C      1  0.6136520000000  0.5939510000000  0.4570960000000 1.0
C      1  0.5385630000000  0.4188290000000  0.4542300000000 1.0
C      1  0.3840110000000  0.4900340000000  0.5514810000000 1.0
C      1  0.4766760000000  0.3718980000000  0.4593920000000 1.0
C      1  0.4558470000000  0.4823310000000  0.4730390000000 1.0
C      1  0.5882890000000  0.5140290000000  0.5293230000000 1.0
C      1  0.4881320000000  0.5222720000000  0.5075630000000 1.0
C      1  0.4871800000000  0.3749480000000  0.5340120000000 1.0
C      1  0.5410870000000  0.4828930000000  0.5922870000000 1.0
C      1  0.4816780000000  0.4421970000000  0.5375770000000 1.0
C      1  0.4766820000000  0.4927850000000  0.4563610000000 1.0
C      1  0.4594630000000  0.4005000000000  0.5047450000000 1.0
C      1  0.5596560000000  0.4039840000000  0.5446160000000 1.0
C      1  0.6003970000000  0.4234120000000  0.5254310000000 1.0
C      1  0.5684050000000  0.4400860000000  0.4218890000000 1.0
C      1  0.5427500000000  0.4382130000000  0.5774280000000 1.0
C      1  0.4654710000000  0.4046380000000  0.4225360000000 1.0
C      1  0.4812000000000  0.5691830000000  0.4014770000000 1.0
C      1  0.5823820000000  0.4679330000000  0.5365630000000 1.0
C      1  0.3920060000000  0.4876140000000  0.5798640000000 1.0
C      1  0.3954400000000  0.5106660000000  0.4352080000000 1.0
C      1  0.4026420000000  0.6178540000000  0.4979750000000 1.0
C      1  0.6226330000000  0.4632180000000  0.5071580000000 1.0
C      1  0.6288270000000  0.5742390000000  0.5384970000000 1.0
C      1  0.4134690000000  0.4684950000000  0.5818770000000 1.0
C      1  0.4695350000000  0.4413800000000  0.4505660000000 1.0
C      1  0.4770560000000  0.5087150000000  0.5516120000000 1.0
C      1  0.4914830000000  0.5501210000000  0.5042110000000 1.0
C      1  0.4620550000000  0.4685410000000  0.4972800000000 1.0
C      1  0.5828160000000  0.4641840000000  0.4250990000000 1.0
C      1  0.4744200000000  0.4286570000000  0.4077320000000 1.0
C      1  0.4314120000000  0.5432710000000  0.4382920000000 1.0
C      1  0.4410890000000  0.4680150000000  0.5403450000000 1.0
C      1  0.4156710000000  0.4224420000000  0.5033950000000 1.0
C      1  0.4326610000000  0.5091650000000  0.6335450000000 1.0
C      1  0.5243810000000  0.4223860000000  0.4088840000000 1.0
C      1  0.4655770000000  0.5216640000000  0.3847890000000 1.0
C      1  0.4573070000000  0.3883280000000  0.4458160000000 1.0
C      1  0.5823580000000  0.4215520000000  0.4790730000000 1.0
C      1  0.6039170000000  0.4518900000000  0.5255780000000 1.0
C      1  0.5744630000000  0.6081150000000  0.4814030000000 1.0
C      1  0.5552690000000  0.4643540000000  0.5243930000000 1.0
C      1  0.3897620000000  0.5410700000000  0.5551290000000 1.0
C      1  0.4025210000000  0.6502670000000  0.5393400000000 1.0
C      1  0.5918870000000  0.5050500000000  0.5744720000000 1.0
C      1  0.4733900000000  0.4208220000000  0.4912460000000 1.0
C      1  0.4503450000000  0.5135850000000  0.5430270000000 1.0
C      1  0.4098810000000  0.5753760000000  0.4656350000000 1.0
C      1  0.4380430000000  0.5695590000000  0.5461610000000 1.0
C      1  0.5266670000000  0.5455270000000  0.4605280000000 1.0
C      1  0.5939910000000  0.5206860000000  0.4700160000000 1.0
C      1  0.4336400000000  0.5743110000000  0.6148780000000 1.0
C      1  0.4341690000000  0.4941430000000  0.5311060000000 1.0
C      1  0.5944750000000  0.4093760000000  0.5985450000000 1.0
C      1  0.3814030000000  0.5175680000000  0.5396830000000 1.0
C      1  0.5570850000000  0.5587500000000  0.3997690000000 1.0
C      1  0.5116820000000  0.4141010000000  0.4640400000000 1.0
C      1  0.5510720000000  0.4662620000000  0.4959170000000 1.0
C      1  0.5228420000000  0.4978340000000  0.5306760000000 1.0
C      1  0.6114520000000  0.5673340000000  0.5566560000000 1.0
C      1  0.4330950000000  0.3932030000000  0.4614640000000 1.0
C      1  0.4168570000000  0.4357910000000  0.4555630000000 1.0
C      1  0.3928660000000  0.5344870000000  0.4918710000000 1.0
C      1  0.5327880000000  0.5331470000000  0.5797380000000 1.0
C      1  0.4621380000000  0.4581450000000  0.5242510000000 1.0
C      1  0.5612480000000  0.6082520000000  0.5046140000000 1.0
C      1  0.4022090000000  0.6347390000000  0.5184030000000 1.0
C      1  0.4541220000000  0.5281780000000  0.4294710000000 1.0
C      1  0.3936880000000  0.4515660000000  0.4545760000000 1.0
C      1  0.4997030000000  0.5330870000000  0.4229630000000 1.0
C      1  0.4427370000000  0.4423300000000  0.4465070000000 1.0
C      1  0.4435770000000  0.4137470000000  0.5464420000000 1.0
C      1  0.5330900000000  0.6010480000000  0.5457900000000 1.0
C      1  0.3841030000000  0.5011780000000  0.6027480000000 1.0
C      1  0.5573340000000  0.4095030000000  0.4742210000000 1.0
C      1  0.4766060000000  0.3775420000000  0.5078570000000 1.0
C      1  0.6091790000000  0.4649430000000  0.4355890000000 1.0
C      1  0.5030560000000  0.5020520000000  0.4579740000000 1.0
C      1  0.4216720000000  0.5555610000000  0.6294550000000 1.0
C      1  0.5755040000000  0.4737370000000  0.4822260000000 1.0
C      1  0.3704380000000  0.5537060000000  0.5712670000000 1.0
C      1  0.4474730000000  0.5884160000000  0.4317370000000 1.0
C      1  0.5439540000000  0.4108540000000  0.5673860000000 1.0
C      1  0.5304110000000  0.4699930000000  0.5407220000000 1.0
C      1  0.6305550000000  0.4765420000000  0.4832170000000 1.0
C      1  0.4129230000000  0.5288920000000  0.6307300000000 1.0
C      1  0.5493870000000  0.3956720000000  0.5920010000000 1.0
C      1  0.4735900000000  0.5403500000000  0.4089450000000 1.0
C      1  0.5046310000000  0.6231280000000  0.4793770000000 1.0
C      1  0.4379470000000  0.4451110000000  0.3815560000000 1.0
C      1  0.5533000000000  0.4664420000000  0.6127440000000 1.0
C      1  0.5779040000000  0.5416560000000  0.4604980000000 1.0
C      1  0.4312490000000  0.5713160000000  0.4463500000000 1.0
C      1  0.4291740000000  0.4909550000000  0.4057870000000 1.0
C      1  0.5617880000000  0.5867610000000  0.6331240000000 1.0
C      1  0.6384160000000  0.5039040000000  0.4851340000000 1.0
C      1  0.4920450000000  0.3737890000000  0.4837230000000 1.0
C      1  0.4725870000000  0.5900590000000  0.4192440000000 1.0
C      1  0.5172980000000  0.5585380000000  0.5119570000000 1.0
C      1  0.5684460000000  0.5130420000000  0.5094900000000 1.0
C      1  0.5067840000000  0.5291040000000  0.4499450000000 1.0
C      1  0.4549490000000  0.4990670000000  0.6229960000000 1.0
C      1  0.4163570000000  0.5189600000000  0.4948430000000 1.0
C      1  0.4156480000000  0.4914190000000  0.4318060000000 1.0
C      1  0.6223150000000  0.5234590000000  0.4720710000000 1.0
C      1  0.4998790000000  0.6192200000000  0.4534940000000 1.0
C      1  0.6009150000000  0.4074970000000  0.5722440000000 1.0
C      1  0.4181470000000  0.4943500000000  0.5075700000000 1.0
C      1  0.4548970000000  0.5813500000000  0.5663810000000 1.0
C      1  0.6257150000000  0.4670720000000  0.4567980000000 1.0
C      1  0.5705600000000  0.5778540000000  0.5805420000000 1.0
C      1  0.5050170000000  0.4586590000000  0.3847670000000 1.0
C      1  0.5639670000000  0.5829990000000  0.4122800000000 1.0
C      1  0.5154720000000  0.6199620000000  0.5035000000000 1.0
C      1  0.5560650000000  0.4390570000000  0.6047620000000 1.0
C      1  0.5362510000000  0.4653120000000  0.5697580000000 1.0
C      1  0.5082030000000  0.4504780000000  0.5353490000000 1.0
C      1  0.5746820000000  0.5365710000000  0.4018310000000 1.0
C      1  0.5989360000000  0.4118050000000  0.4996940000000 1.0
END
