TITL C-612601-4209-108 0.610056541974904 125000 -317.228038774021 0 0 53 (C1) n - 1
REM
REM in /home/nfs/bkarasulu/CARBON/AIRSS/Generating-Clusters/TERSOFF/Only-C1/FIRE-HFTN
REM
REM
REM
REM
REM
REM ./C.cell (11c1c37f851c82e70ff6c80c92926a4b)
REM AIRSS Version 0.9.1 bugfix July 2018 build 013d7b7c2542+ Fri, 06 Jul 2018 19:26:36 +0100
REM compiler GCC version 9.2.1 20190827 (Red Hat 9.2.1-1)
REM options -cpp -mtune=generic -march=x86-64 -g -O0 -fpre-include=/usr/include/finclude/math-vector-fortran.h
REM seed 1132601682 -110529318 -203186508 836105982 137170411 -2075997100 179324982 1733587167 1609344881 411911686 1609133477 -693239545 171159562 936846247 -511721048 -1141438783 143075881 2059839326 2093896666 187909700 -1688750550 1285667158 117585693 5851307 1330327224 303758714 -1560732692 -759398270 -1788121384 225262376 -607014019 -1446434309 711497206
REM
CELL 1.54180   50.00000   50.00000   50.00000   90.00000   90.00000   90.00000
LATT -1
SFAC C  
C      1  0.4638210000000  0.4405360000000  0.5297890000000 1.0
C      1  0.4703380000000  0.4629750000000  0.5133770000000 1.0
C      1  0.4799970000000  0.4650630000000  0.5728180000000 1.0
C      1  0.4315520000000  0.5108640000000  0.4395550000000 1.0
C      1  0.4461030000000  0.5489030000000  0.5002320000000 1.0
C      1  0.5221060000000  0.4721320000000  0.5054440000000 1.0
C      1  0.6029350000000  0.5765310000000  0.4224700000000 1.0
C      1  0.5161820000000  0.5796570000000  0.4925140000000 1.0
C      1  0.5749570000000  0.4688630000000  0.4621870000000 1.0
C      1  0.4041900000000  0.3332500000000  0.4777930000000 1.0
C      1  0.4585970000000  0.4997930000000  0.5422120000000 1.0
C      1  0.4261670000000  0.4858440000000  0.4487860000000 1.0
C      1  0.5908500000000  0.5296270000000  0.4459430000000 1.0
C      1  0.5288330000000  0.5135170000000  0.5591320000000 1.0
C      1  0.5628700000000  0.4992750000000  0.4996480000000 1.0
C      1  0.4278320000000  0.3752800000000  0.4987410000000 1.0
C      1  0.5933470000000  0.5255730000000  0.4740820000000 1.0
C      1  0.4388650000000  0.5247860000000  0.4857360000000 1.0
C      1  0.5392890000000  0.5402680000000  0.5545070000000 1.0
C      1  0.4706550000000  0.4437810000000  0.5568870000000 1.0
C      1  0.5429280000000  0.4878120000000  0.5160920000000 1.0
C      1  0.5694920000000  0.5271330000000  0.4914750000000 1.0
C      1  0.4292510000000  0.4792430000000  0.4750090000000 1.0
C      1  0.5972210000000  0.5536770000000  0.4336150000000 1.0
C      1  0.4397480000000  0.3964640000000  0.5092970000000 1.0
C      1  0.5019570000000  0.5054610000000  0.4633670000000 1.0
C      1  0.4399290000000  0.5314400000000  0.4567620000000 1.0
C      1  0.5812280000000  0.5069990000000  0.4316140000000 1.0
C      1  0.4395570000000  0.4972890000000  0.4946580000000 1.0
C      1  0.4159130000000  0.3540900000000  0.4881800000000 1.0
C      1  0.4533830000000  0.5568900000000  0.4555040000000 1.0
C      1  0.5827730000000  0.4818290000000  0.4861740000000 1.0
C      1  0.4882030000000  0.4612330000000  0.5985480000000 1.0
C      1  0.5009340000000  0.5459320000000  0.5293740000000 1.0
C      1  0.5745460000000  0.4815940000000  0.4381650000000 1.0
C      1  0.4587550000000  0.5288550000000  0.5441580000000 1.0
C      1  0.4516340000000  0.4177050000000  0.5197410000000 1.0
C      1  0.4544690000000  0.4868380000000  0.5169070000000 1.0
C      1  0.5415260000000  0.4936960000000  0.5436510000000 1.0
C      1  0.5576400000000  0.5518010000000  0.4971730000000 1.0
C      1  0.4965670000000  0.4646530000000  0.5033860000000 1.0
C      1  0.4447870000000  0.5469700000000  0.5281090000000 1.0
C      1  0.4627640000000  0.5659030000000  0.4816960000000 1.0
C      1  0.4802510000000  0.4905490000000  0.5606170000000 1.0
C      1  0.4863250000000  0.5346020000000  0.5502610000000 1.0
C      1  0.5001850000000  0.5118300000000  0.5626380000000 1.0
C      1  0.4988940000000  0.5186910000000  0.4861780000000 1.0
C      1  0.6053430000000  0.5001470000000  0.4822220000000 1.0
C      1  0.5273120000000  0.5557470000000  0.5337910000000 1.0
C      1  0.5040190000000  0.4938120000000  0.4401400000000 1.0
C      1  0.5371580000000  0.5670790000000  0.5090320000000 1.0
C      1  0.4906210000000  0.5664480000000  0.4884050000000 1.0
C      1  0.4951970000000  0.5410730000000  0.5022080000000 1.0
END
