TITL C-612600-6631-830 62.0404149897833 125000 -156.529128081308 0 0 27 (C1) n - 1
REM
REM in /home/nfs/bkarasulu/CARBON/AIRSS/Generating-Clusters/TERSOFF/Only-C1/FIRE-HFTN
REM
REM
REM
REM
REM
REM ./C.cell (11c1c37f851c82e70ff6c80c92926a4b)
REM AIRSS Version 0.9.1 bugfix July 2018 build 013d7b7c2542+ Fri, 06 Jul 2018 19:26:36 +0100
REM compiler GCC version 9.2.1 20190827 (Red Hat 9.2.1-1)
REM options -cpp -mtune=generic -march=x86-64 -g -O0 -fpre-include=/usr/include/finclude/math-vector-fortran.h
REM seed -469449111 1826682836 -223443681 -1294708729 1814845819 2137244349 -657019656 -131782455 1182305947 -234427117 1910498725 95703405 702438039 876906470 -1804907468 -737360210 1319217574 1967317585 -786114208 1822849498 -109397046 1608093064 1213750863 1629241950 -728060406 -1865888013 744012014 1484468868 -2145678529 -42398143 -689118617 1300099221 -2052788226
REM
CELL 1.54180   50.00000   50.00000   50.00000   90.00000   90.00000   90.00000
LATT -1
SFAC C  
C      1  0.5602450000000  0.3345690000000  0.5934760000000 1.0
C      1  0.5575980000000  0.4835670000000  0.5887310000000 1.0
C      1  0.4386090000000  0.5354940000000  0.4932120000000 1.0
C      1  0.5190050000000  0.4897700000000  0.5268980000000 1.0
C      1  0.4795290000000  0.5135420000000  0.5079290000000 1.0
C      1  0.4331270000000  0.5946090000000  0.3877700000000 1.0
C      1  0.5464010000000  0.4996930000000  0.5707440000000 1.0
C      1  0.5566370000000  0.3597130000000  0.5876120000000 1.0
C      1  0.5593390000000  0.4325150000000  0.5916930000000 1.0
C      1  0.3986370000000  0.6372870000000  0.3308300000000 1.0
C      1  0.4215690000000  0.6089110000000  0.3686880000000 1.0
C      1  0.5065260000000  0.5049090000000  0.5068620000000 1.0
C      1  0.5185960000000  0.4617320000000  0.5263400000000 1.0
C      1  0.4647460000000  0.5288270000000  0.4890660000000 1.0
C      1  0.4446850000000  0.5803070000000  0.4068510000000 1.0
C      1  0.5193400000000  0.5134630000000  0.4830540000000 1.0
C      1  0.4676890000000  0.5517100000000  0.4450680000000 1.0
C      1  0.5243480000000  0.4375050000000  0.5356350000000 1.0
C      1  0.4792270000000  0.5367140000000  0.4654390000000 1.0
C      1  0.4100080000000  0.6232170000000  0.3496020000000 1.0
C      1  0.5062530000000  0.5280890000000  0.4643410000000 1.0
C      1  0.5348410000000  0.4198430000000  0.5525010000000 1.0
C      1  0.5529700000000  0.3852670000000  0.5816520000000 1.0
C      1  0.5491110000000  0.4121270000000  0.5753800000000 1.0
C      1  0.5623570000000  0.4585290000000  0.5964380000000 1.0
C      1  0.4562410000000  0.5660050000000  0.4259330000000 1.0
C      1  0.5323660000000  0.5020860000000  0.5482570000000 1.0
END
