TITL C-612604-1799-437 0.0110911575590247 125000 -561.302533446124 0 0 95 (C1) n - 1
REM
REM in /home/nfs/bkarasulu/CARBON/AIRSS/Generating-Clusters/TERSOFF/Only-C1/FIRE-HFTN
REM
REM
REM
REM
REM
REM ./C.cell (11c1c37f851c82e70ff6c80c92926a4b)
REM AIRSS Version 0.9.1 bugfix July 2018 build 013d7b7c2542+ Fri, 06 Jul 2018 19:26:36 +0100
REM compiler GCC version 9.2.1 20190827 (Red Hat 9.2.1-1)
REM options -cpp -mtune=generic -march=x86-64 -g -O0 -fpre-include=/usr/include/finclude/math-vector-fortran.h
REM seed -189873770 -1043266031 321446207 -1973842089 -2043944108 -1086857982 1984410933 852147659 1978259351 -1015087786 1609597676 1657132920 -871508509 -334105439 321201339 1227004858 225881374 -1846658617 644559703 -624522764 1675168973 -1195294362 -2125110154 1251122581 -457596064 1830021923 -1983112596 -1550253961 -904386537 561516467 -817329949 -1237802770 -1129467579
REM
CELL 1.54180   50.00000   50.00000   50.00000   90.00000   90.00000   90.00000
LATT -1
SFAC C  
C      1  0.5746730000000  0.5718820000000  0.4997000000000 1.0
C      1  0.4625290000000  0.5664950000000  0.5253110000000 1.0
C      1  0.5458640000000  0.4897270000000  0.5911680000000 1.0
C      1  0.4481830000000  0.4650800000000  0.5769120000000 1.0
C      1  0.5426480000000  0.4244530000000  0.4949140000000 1.0
C      1  0.5915610000000  0.5509560000000  0.5017380000000 1.0
C      1  0.5172640000000  0.4316450000000  0.4228680000000 1.0
C      1  0.5091870000000  0.4332920000000  0.5586550000000 1.0
C      1  0.4332270000000  0.5067300000000  0.5574970000000 1.0
C      1  0.5355740000000  0.5308420000000  0.4868820000000 1.0
C      1  0.4924690000000  0.4145590000000  0.4716340000000 1.0
C      1  0.4951450000000  0.4788280000000  0.4535830000000 1.0
C      1  0.5633700000000  0.4732630000000  0.5752240000000 1.0
C      1  0.5210060000000  0.6144140000000  0.3963760000000 1.0
C      1  0.4238070000000  0.4677800000000  0.5319360000000 1.0
C      1  0.5258040000000  0.5620340000000  0.5684960000000 1.0
C      1  0.5267810000000  0.6024470000000  0.4187950000000 1.0
C      1  0.4923680000000  0.4833780000000  0.5467540000000 1.0
C      1  0.5778840000000  0.4574140000000  0.5245310000000 1.0
C      1  0.4171880000000  0.5123070000000  0.4699630000000 1.0
C      1  0.4115890000000  0.5139410000000  0.5070790000000 1.0
C      1  0.4758180000000  0.5528670000000  0.4321900000000 1.0
C      1  0.5322460000000  0.5581750000000  0.4785400000000 1.0
C      1  0.4781800000000  0.5834740000000  0.5453280000000 1.0
C      1  0.4346090000000  0.5332510000000  0.4595230000000 1.0
C      1  0.4320100000000  0.4201310000000  0.5129250000000 1.0
C      1  0.5149230000000  0.4578480000000  0.4618620000000 1.0
C      1  0.4767000000000  0.4284500000000  0.4493820000000 1.0
C      1  0.4394130000000  0.4455430000000  0.5236140000000 1.0
C      1  0.4486300000000  0.4035220000000  0.4986450000000 1.0
C      1  0.4675170000000  0.4515640000000  0.5208050000000 1.0
C      1  0.4870430000000  0.5011010000000  0.4124070000000 1.0
C      1  0.4301540000000  0.4785770000000  0.5581610000000 1.0
C      1  0.5211640000000  0.5625240000000  0.4496930000000 1.0
C      1  0.4866400000000  0.4346290000000  0.5733740000000 1.0
C      1  0.5321840000000  0.5888350000000  0.4422790000000 1.0
C      1  0.4625810000000  0.5427570000000  0.5851460000000 1.0
C      1  0.5081570000000  0.5553280000000  0.5263610000000 1.0
C      1  0.4922850000000  0.4724400000000  0.4225050000000 1.0
C      1  0.4675100000000  0.5193100000000  0.4860380000000 1.0
C      1  0.5068300000000  0.5730950000000  0.5495750000000 1.0
C      1  0.4371430000000  0.5492920000000  0.5736080000000 1.0
C      1  0.4823960000000  0.5451170000000  0.5221460000000 1.0
C      1  0.5621690000000  0.4776510000000  0.4528730000000 1.0
C      1  0.4234640000000  0.4788960000000  0.4824010000000 1.0
C      1  0.4784890000000  0.5208120000000  0.5736090000000 1.0
C      1  0.4532790000000  0.5350750000000  0.4349330000000 1.0
C      1  0.5323460000000  0.4423900000000  0.4442220000000 1.0
C      1  0.5362640000000  0.5052280000000  0.4129700000000 1.0
C      1  0.4707970000000  0.5016200000000  0.5082610000000 1.0
C      1  0.5377930000000  0.5356150000000  0.5693200000000 1.0
C      1  0.5323040000000  0.4721110000000  0.5322640000000 1.0
C      1  0.5827380000000  0.5270910000000  0.4616910000000 1.0
C      1  0.5249480000000  0.4487980000000  0.5435020000000 1.0
C      1  0.5739600000000  0.4616300000000  0.5529900000000 1.0
C      1  0.5494050000000  0.5978570000000  0.4634540000000 1.0
C      1  0.5559420000000  0.4867100000000  0.4816320000000 1.0
C      1  0.5018960000000  0.5060720000000  0.5624100000000 1.0
C      1  0.4782690000000  0.4774000000000  0.5222650000000 1.0
C      1  0.5519850000000  0.5788630000000  0.4848420000000 1.0
C      1  0.5261230000000  0.5164890000000  0.5508900000000 1.0
C      1  0.5588190000000  0.4507600000000  0.4454610000000 1.0
C      1  0.5078220000000  0.5054300000000  0.4589480000000 1.0
C      1  0.4482470000000  0.5410030000000  0.4845080000000 1.0
C      1  0.5941760000000  0.5264140000000  0.4878450000000 1.0
C      1  0.4899640000000  0.4416610000000  0.4247310000000 1.0
C      1  0.5207200000000  0.4796610000000  0.6012530000000 1.0
C      1  0.4443210000000  0.4628190000000  0.4711830000000 1.0
C      1  0.5588980000000  0.5212150000000  0.4478850000000 1.0
C      1  0.5492600000000  0.5186400000000  0.5896940000000 1.0
C      1  0.4714740000000  0.5206080000000  0.5291600000000 1.0
C      1  0.4195490000000  0.5371910000000  0.5235630000000 1.0
C      1  0.4601150000000  0.5102670000000  0.4210910000000 1.0
C      1  0.5938820000000  0.4774410000000  0.5115020000000 1.0
C      1  0.5209680000000  0.4155080000000  0.4801880000000 1.0
C      1  0.5104040000000  0.5196680000000  0.4152460000000 1.0
C      1  0.4159680000000  0.4852470000000  0.5105990000000 1.0
C      1  0.5997480000000  0.5016220000000  0.5008190000000 1.0
C      1  0.5622220000000  0.4379280000000  0.5089450000000 1.0
C      1  0.5330680000000  0.5182820000000  0.4610570000000 1.0
C      1  0.4495540000000  0.4884570000000  0.4351930000000 1.0
C      1  0.5578420000000  0.4978500000000  0.4314780000000 1.0
C      1  0.4745090000000  0.4570340000000  0.5861200000000 1.0
C      1  0.4601370000000  0.5133010000000  0.5530280000000 1.0
C      1  0.5448000000000  0.5074560000000  0.5019870000000 1.0
C      1  0.4760310000000  0.4106130000000  0.4951670000000 1.0
C      1  0.4885430000000  0.5223610000000  0.4692060000000 1.0
C      1  0.5045190000000  0.5464060000000  0.4306340000000 1.0
C      1  0.4215270000000  0.5333040000000  0.5531280000000 1.0
C      1  0.4835100000000  0.4292570000000  0.5151950000000 1.0
C      1  0.4643130000000  0.4790700000000  0.4586160000000 1.0
C      1  0.4944270000000  0.4722690000000  0.6005010000000 1.0
C      1  0.4502440000000  0.4371530000000  0.4590010000000 1.0
C      1  0.4397160000000  0.5541870000000  0.5099070000000 1.0
C      1  0.5362780000000  0.5003120000000  0.5285110000000 1.0
END
