TITL C-612602-9376-1183 -0.000529641573169773 125000 -466.659111846632 0 0 76 (C1) n - 1
REM
REM in /home/nfs/bkarasulu/CARBON/AIRSS/Generating-Clusters/TERSOFF/Only-C1/FIRE-HFTN
REM
REM
REM
REM
REM
REM ./C.cell (11c1c37f851c82e70ff6c80c92926a4b)
REM AIRSS Version 0.9.1 bugfix July 2018 build 013d7b7c2542+ Fri, 06 Jul 2018 19:26:36 +0100
REM compiler GCC version 9.2.1 20190827 (Red Hat 9.2.1-1)
REM options -cpp -mtune=generic -march=x86-64 -g -O0 -fpre-include=/usr/include/finclude/math-vector-fortran.h
REM seed 644324195 307194611 -1934802753 -1568209004 1758473544 685992919 300175370 -1645113218 791749968 1247533049 -1915097223 273174863 -113196681 -661527934 1772433946 -2055406948 -1507169897 1912661981 -111997643 -929345330 -1961329403 1342440549 631724329 1573604816 -1267576863 -336867243 -1127096006 708682428 -1637254510 1082522073 1514703307 -1832242197 -1745656927
REM
CELL 1.54180   50.00000   50.00000   50.00000   90.00000   90.00000   90.00000
LATT -1
SFAC C  
C      1  0.5542890000000  0.5496750000000  0.4636470000000 1.0
C      1  0.4578160000000  0.5654360000000  0.4552060000000 1.0
C      1  0.4274580000000  0.4737380000000  0.5331160000000 1.0
C      1  0.4877380000000  0.4697750000000  0.4510650000000 1.0
C      1  0.4387520000000  0.4456820000000  0.4459210000000 1.0
C      1  0.5332010000000  0.4952730000000  0.5562680000000 1.0
C      1  0.4463650000000  0.5648730000000  0.5284990000000 1.0
C      1  0.5159620000000  0.5668340000000  0.5081900000000 1.0
C      1  0.5657970000000  0.5735050000000  0.4503900000000 1.0
C      1  0.5622180000000  0.4772050000000  0.4727410000000 1.0
C      1  0.4522730000000  0.4596570000000  0.5400480000000 1.0
C      1  0.4634000000000  0.4449310000000  0.5139170000000 1.0
C      1  0.5615460000000  0.4748280000000  0.5213100000000 1.0
C      1  0.4333580000000  0.5265930000000  0.5001300000000 1.0
C      1  0.4939910000000  0.4654280000000  0.5689970000000 1.0
C      1  0.4240290000000  0.4761660000000  0.5044790000000 1.0
C      1  0.4916790000000  0.5325260000000  0.5715290000000 1.0
C      1  0.5529020000000  0.5978840000000  0.4472910000000 1.0
C      1  0.4711120000000  0.4742120000000  0.5547360000000 1.0
C      1  0.5736490000000  0.5024760000000  0.4717520000000 1.0
C      1  0.4519580000000  0.3919240000000  0.4906740000000 1.0
C      1  0.4736310000000  0.4190220000000  0.5259020000000 1.0
C      1  0.4598640000000  0.3963360000000  0.5162210000000 1.0
C      1  0.5239130000000  0.4167530000000  0.5316750000000 1.0
C      1  0.5520220000000  0.4490750000000  0.5590370000000 1.0
C      1  0.4794540000000  0.4932330000000  0.4649180000000 1.0
C      1  0.5350390000000  0.4831190000000  0.4316390000000 1.0
C      1  0.4974350000000  0.4211800000000  0.5421340000000 1.0
C      1  0.5428750000000  0.4676150000000  0.4534230000000 1.0
C      1  0.5122420000000  0.4875420000000  0.5752920000000 1.0
C      1  0.5268720000000  0.4478930000000  0.4673990000000 1.0
C      1  0.5177180000000  0.5290160000000  0.4422370000000 1.0
C      1  0.4510730000000  0.4223010000000  0.4518780000000 1.0
C      1  0.4691250000000  0.5241890000000  0.5566620000000 1.0
C      1  0.5264860000000  0.5436740000000  0.4647270000000 1.0
C      1  0.4975680000000  0.4375920000000  0.5657210000000 1.0
C      1  0.4696260000000  0.5807350000000  0.5219780000000 1.0
C      1  0.5995990000000  0.5423820000000  0.4560940000000 1.0
C      1  0.4591310000000  0.5115680000000  0.4562460000000 1.0
C      1  0.4253030000000  0.5534610000000  0.5105830000000 1.0
C      1  0.4657440000000  0.5390470000000  0.4617410000000 1.0
C      1  0.4825000000000  0.4861640000000  0.4935110000000 1.0
C      1  0.4340600000000  0.4972090000000  0.4611590000000 1.0
C      1  0.5018760000000  0.5113510000000  0.5881900000000 1.0
C      1  0.4611840000000  0.5872340000000  0.4712710000000 1.0
C      1  0.4637730000000  0.5275130000000  0.5083370000000 1.0
C      1  0.4382150000000  0.4513450000000  0.4959490000000 1.0
C      1  0.5136900000000  0.4001320000000  0.4856590000000 1.0
C      1  0.4854460000000  0.4573000000000  0.4958890000000 1.0
C      1  0.5564300000000  0.5881760000000  0.5248960000000 1.0
C      1  0.4252800000000  0.5007580000000  0.4888460000000 1.0
C      1  0.4757030000000  0.5016270000000  0.5154710000000 1.0
C      1  0.5307100000000  0.5232410000000  0.5472410000000 1.0
C      1  0.4811130000000  0.5399120000000  0.4865990000000 1.0
C      1  0.5407910000000  0.4392590000000  0.4916260000000 1.0
C      1  0.5446670000000  0.4249400000000  0.5492900000000 1.0
C      1  0.5590630000000  0.4615860000000  0.4968980000000 1.0
C      1  0.5936240000000  0.5674450000000  0.4462390000000 1.0
C      1  0.5084800000000  0.5496600000000  0.4864650000000 1.0
C      1  0.4311580000000  0.4716160000000  0.4484820000000 1.0
C      1  0.4737230000000  0.4992010000000  0.5436100000000 1.0
C      1  0.4682790000000  0.5935380000000  0.4967150000000 1.0
C      1  0.5509000000000  0.4748540000000  0.5471840000000 1.0
C      1  0.5287090000000  0.4164500000000  0.5036060000000 1.0
C      1  0.5344840000000  0.5882040000000  0.5076310000000 1.0
C      1  0.5000620000000  0.5645870000000  0.5318180000000 1.0
C      1  0.5311470000000  0.6090090000000  0.4891100000000 1.0
C      1  0.4645840000000  0.4027160000000  0.4675680000000 1.0
C      1  0.4988870000000  0.4507670000000  0.4697450000000 1.0
C      1  0.5238490000000  0.5071820000000  0.4280480000000 1.0
C      1  0.4592800000000  0.5403870000000  0.5364500000000 1.0
C      1  0.5758660000000  0.5295590000000  0.4664910000000 1.0
C      1  0.5384040000000  0.6132930000000  0.4637040000000 1.0
C      1  0.5100410000000  0.5443020000000  0.5516070000000 1.0
C      1  0.5770110000000  0.5862670000000  0.5407660000000 1.0
C      1  0.4927980000000  0.3988630000000  0.4685160000000 1.0
END
