TITL C-612600-6631-706 0.0782141215243465 125000 -778.962881109424 0 0 126 (C1) n - 1
REM
REM in /home/nfs/bkarasulu/CARBON/AIRSS/Generating-Clusters/TERSOFF/Only-C1/FIRE-HFTN
REM
REM
REM
REM
REM
REM ./C.cell (11c1c37f851c82e70ff6c80c92926a4b)
REM AIRSS Version 0.9.1 bugfix July 2018 build 013d7b7c2542+ Fri, 06 Jul 2018 19:26:36 +0100
REM compiler GCC version 9.2.1 20190827 (Red Hat 9.2.1-1)
REM options -cpp -mtune=generic -march=x86-64 -g -O0 -fpre-include=/usr/include/finclude/math-vector-fortran.h
REM seed -874000439 -1101374074 -1551701195 1935288240 657172580 -1913616380 -804243247 2060277936 -962343726 -1505101187 -7806980 1312009433 1454633724 -839102199 706109681 39868769 -532484383 -957235628 683765414 1420002879 1003937252 1536695086 2115963535 216414888 677338809 1869391555 -801001468 1412190716 1707190480 1985497995 1283904701 647481670 -2045194836
REM
CELL 1.54180   50.00000   50.00000   50.00000   90.00000   90.00000   90.00000
LATT -1
SFAC C  
C      1  0.5428440000000  0.4582380000000  0.5691260000000 1.0
C      1  0.4264480000000  0.4733480000000  0.5734590000000 1.0
C      1  0.4915430000000  0.5813160000000  0.4629130000000 1.0
C      1  0.5479930000000  0.5632080000000  0.5894870000000 1.0
C      1  0.5422920000000  0.4905350000000  0.4626790000000 1.0
C      1  0.4735950000000  0.3936520000000  0.5005360000000 1.0
C      1  0.4615230000000  0.5009270000000  0.5973340000000 1.0
C      1  0.4660070000000  0.4123500000000  0.5205460000000 1.0
C      1  0.5598300000000  0.4601570000000  0.5088830000000 1.0
C      1  0.4988840000000  0.5857510000000  0.5142440000000 1.0
C      1  0.4652920000000  0.5188920000000  0.4618960000000 1.0
C      1  0.5093450000000  0.4738420000000  0.5057500000000 1.0
C      1  0.5256880000000  0.4941810000000  0.3904510000000 1.0
C      1  0.5653060000000  0.5189300000000  0.5227300000000 1.0
C      1  0.5300790000000  0.4180050000000  0.4284210000000 1.0
C      1  0.4480960000000  0.5134540000000  0.5499120000000 1.0
C      1  0.4767020000000  0.4405380000000  0.5611710000000 1.0
C      1  0.4416530000000  0.5341830000000  0.4203660000000 1.0
C      1  0.5135900000000  0.4940160000000  0.5887770000000 1.0
C      1  0.5030020000000  0.4131760000000  0.4374290000000 1.0
C      1  0.4769560000000  0.4737480000000  0.4003220000000 1.0
C      1  0.4641690000000  0.4417170000000  0.4540140000000 1.0
C      1  0.5799000000000  0.4704140000000  0.4903610000000 1.0
C      1  0.6059510000000  0.5378890000000  0.4871260000000 1.0
C      1  0.5476350000000  0.5120800000000  0.5030900000000 1.0
C      1  0.4473620000000  0.5361310000000  0.4477700000000 1.0
C      1  0.5801670000000  0.4613680000000  0.4626250000000 1.0
C      1  0.5439790000000  0.5569080000000  0.5457400000000 1.0
C      1  0.4210020000000  0.5279070000000  0.5065710000000 1.0
C      1  0.4577090000000  0.5821430000000  0.5370580000000 1.0
C      1  0.5719960000000  0.4681060000000  0.5701380000000 1.0
C      1  0.5178240000000  0.5510580000000  0.5399250000000 1.0
C      1  0.4767880000000  0.3896360000000  0.4740460000000 1.0
C      1  0.5228740000000  0.3840350000000  0.4717090000000 1.0
C      1  0.4088590000000  0.4830100000000  0.5530260000000 1.0
C      1  0.5523200000000  0.5205670000000  0.4243550000000 1.0
C      1  0.5163310000000  0.5230230000000  0.5925760000000 1.0
C      1  0.5439910000000  0.5336110000000  0.5890890000000 1.0
C      1  0.5222700000000  0.4479830000000  0.4704330000000 1.0
C      1  0.4028750000000  0.4725380000000  0.4731630000000 1.0
C      1  0.5142660000000  0.4170190000000  0.5411530000000 1.0
C      1  0.4238790000000  0.4311410000000  0.4931400000000 1.0
C      1  0.4976260000000  0.5696430000000  0.4356050000000 1.0
C      1  0.4237750000000  0.5496540000000  0.4069650000000 1.0
C      1  0.5494100000000  0.5347690000000  0.4493530000000 1.0
C      1  0.4316430000000  0.5111030000000  0.5264820000000 1.0
C      1  0.4994120000000  0.3922450000000  0.4573430000000 1.0
C      1  0.5314460000000  0.4716030000000  0.5953030000000 1.0
C      1  0.4516010000000  0.4857820000000  0.4123210000000 1.0
C      1  0.4333400000000  0.5667100000000  0.5359180000000 1.0
C      1  0.5539780000000  0.4306780000000  0.4309850000000 1.0
C      1  0.5960200000000  0.4900950000000  0.5045710000000 1.0
C      1  0.4839650000000  0.4350830000000  0.4343480000000 1.0
C      1  0.5915820000000  0.4534480000000  0.5822910000000 1.0
C      1  0.4012630000000  0.5350610000000  0.5611340000000 1.0
C      1  0.4851830000000  0.4215440000000  0.5416070000000 1.0
C      1  0.5453000000000  0.6032480000000  0.5508750000000 1.0
C      1  0.5257170000000  0.5726090000000  0.4295600000000 1.0
C      1  0.4917290000000  0.4584490000000  0.4199140000000 1.0
C      1  0.5074640000000  0.5594200000000  0.5151160000000 1.0
C      1  0.4257260000000  0.5506960000000  0.5592120000000 1.0
C      1  0.5480040000000  0.5782140000000  0.5642810000000 1.0
C      1  0.4740150000000  0.5807890000000  0.5609560000000 1.0
C      1  0.5610320000000  0.5352590000000  0.5449900000000 1.0
C      1  0.4349660000000  0.4784150000000  0.4357370000000 1.0
C      1  0.4569570000000  0.5140550000000  0.4085530000000 1.0
C      1  0.5276320000000  0.4754410000000  0.5475920000000 1.0
C      1  0.4226950000000  0.4832690000000  0.5271030000000 1.0
C      1  0.3952440000000  0.5081670000000  0.5593070000000 1.0
C      1  0.5465280000000  0.5796280000000  0.4709240000000 1.0
C      1  0.5843640000000  0.4980250000000  0.5305090000000 1.0
C      1  0.4655160000000  0.5283130000000  0.5906150000000 1.0
C      1  0.5034570000000  0.5272160000000  0.5449350000000 1.0
C      1  0.5383880000000  0.4271050000000  0.4797120000000 1.0
C      1  0.4459960000000  0.4703930000000  0.5165050000000 1.0
C      1  0.4481810000000  0.5347510000000  0.5682810000000 1.0
C      1  0.4711380000000  0.5878900000000  0.5117840000000 1.0
C      1  0.4896310000000  0.4894800000000  0.5176170000000 1.0
C      1  0.4755990000000  0.4704350000000  0.5601000000000 1.0
C      1  0.4556030000000  0.4724340000000  0.4895280000000 1.0
C      1  0.5238860000000  0.4020940000000  0.5183220000000 1.0
C      1  0.5107910000000  0.5268840000000  0.4767870000000 1.0
C      1  0.5691040000000  0.4546360000000  0.4361940000000 1.0
C      1  0.4275020000000  0.5562290000000  0.5099600000000 1.0
C      1  0.5627080000000  0.5195210000000  0.5698450000000 1.0
C      1  0.4696970000000  0.4753140000000  0.5313170000000 1.0
C      1  0.5001290000000  0.5360620000000  0.5007610000000 1.0
C      1  0.4144070000000  0.4959370000000  0.4612290000000 1.0
C      1  0.5192360000000  0.6028850000000  0.5049530000000 1.0
C      1  0.4892500000000  0.5671440000000  0.5790910000000 1.0
C      1  0.5268900000000  0.4696480000000  0.4530410000000 1.0
C      1  0.4917090000000  0.5406740000000  0.5905800000000 1.0
C      1  0.5072250000000  0.4776280000000  0.4347980000000 1.0
C      1  0.4158390000000  0.5218860000000  0.4776330000000 1.0
C      1  0.4994880000000  0.5055810000000  0.4343540000000 1.0
C      1  0.4873300000000  0.5188520000000  0.4092880000000 1.0
C      1  0.5367650000000  0.4292880000000  0.5571210000000 1.0
C      1  0.5488410000000  0.4972030000000  0.4080690000000 1.0
C      1  0.5357200000000  0.4758330000000  0.5182000000000 1.0
C      1  0.5649680000000  0.4750770000000  0.4164180000000 1.0
C      1  0.4887150000000  0.5491650000000  0.4168560000000 1.0
C      1  0.5768470000000  0.4944260000000  0.5596230000000 1.0
C      1  0.4963350000000  0.4960360000000  0.3899730000000 1.0
C      1  0.4565260000000  0.4978510000000  0.4779380000000 1.0
C      1  0.4381480000000  0.5660230000000  0.4841340000000 1.0
C      1  0.4180150000000  0.4479890000000  0.4706800000000 1.0
C      1  0.5218500000000  0.5932050000000  0.4777330000000 1.0
C      1  0.4926410000000  0.5189070000000  0.4574770000000 1.0
C      1  0.6089450000000  0.5114590000000  0.4911670000000 1.0
C      1  0.5007770000000  0.4546800000000  0.4871260000000 1.0
C      1  0.5395070000000  0.5179280000000  0.4739780000000 1.0
C      1  0.4636390000000  0.5802940000000  0.4844320000000 1.0
C      1  0.4930380000000  0.5164360000000  0.5207550000000 1.0
C      1  0.5922130000000  0.5609030000000  0.4878780000000 1.0
C      1  0.5325290000000  0.4020870000000  0.4913290000000 1.0
C      1  0.5032030000000  0.4838240000000  0.5632830000000 1.0
C      1  0.5707240000000  0.5767610000000  0.4850280000000 1.0
C      1  0.4737800000000  0.4530420000000  0.4786440000000 1.0
C      1  0.4400930000000  0.4231060000000  0.5136120000000 1.0
C      1  0.4281340000000  0.5462750000000  0.4652060000000 1.0
C      1  0.5618110000000  0.4225230000000  0.5441980000000 1.0
C      1  0.4375180000000  0.4515430000000  0.4485500000000 1.0
C      1  0.4537910000000  0.4842480000000  0.5743760000000 1.0
C      1  0.5366690000000  0.6113300000000  0.5260450000000 1.0
C      1  0.5686850000000  0.4368480000000  0.5224310000000 1.0
C      1  0.5444420000000  0.5628870000000  0.4481150000000 1.0
END
