TITL C-612606-7351-1196 4.27560178405545e-05 125000 -512.824212849729 0 0 84 (C1) n - 1
REM
REM in /home/nfs/bkarasulu/CARBON/AIRSS/Generating-Clusters/TERSOFF/Only-C1/FIRE-HFTN
REM
REM
REM
REM
REM
REM ./C.cell (11c1c37f851c82e70ff6c80c92926a4b)
REM AIRSS Version 0.9.1 bugfix July 2018 build 013d7b7c2542+ Fri, 06 Jul 2018 19:26:36 +0100
REM compiler GCC version 9.2.1 20190827 (Red Hat 9.2.1-1)
REM options -cpp -mtune=generic -march=x86-64 -g -O0 -fpre-include=/usr/include/finclude/math-vector-fortran.h
REM seed 516531544 81562773 -590391936 -216661459 1170999976 -1650595078 -1094900724 1397462255 -1391667465 703647500 1129344033 746187258 2050605243 -298716967 -1408130246 111864298 1692005713 1718204318 -505509530 -1775438018 -90174755 -2012361489 65494758 1043613976 2010605573 -1653775102 1379519215 -832003150 -1323737669 -1397937773 -1497150360 -37694881 1208761542
REM
CELL 1.54180   50.00000   50.00000   50.00000   90.00000   90.00000   90.00000
LATT -1
SFAC C  
C      1  0.5604580000000  0.5300140000000  0.4468740000000 1.0
C      1  0.4966990000000  0.5600220000000  0.4373750000000 1.0
C      1  0.4533610000000  0.4393790000000  0.4317170000000 1.0
C      1  0.4615490000000  0.5151570000000  0.4703840000000 1.0
C      1  0.5131250000000  0.5230340000000  0.4842600000000 1.0
C      1  0.5142480000000  0.5385740000000  0.4281930000000 1.0
C      1  0.5471200000000  0.5751380000000  0.4879750000000 1.0
C      1  0.5609350000000  0.5115010000000  0.4678600000000 1.0
C      1  0.4968200000000  0.3998080000000  0.4961260000000 1.0
C      1  0.5081100000000  0.5330630000000  0.5102880000000 1.0
C      1  0.5667170000000  0.4443500000000  0.4638760000000 1.0
C      1  0.5402180000000  0.4244180000000  0.5035570000000 1.0
C      1  0.4726040000000  0.4542160000000  0.5662460000000 1.0
C      1  0.4876210000000  0.5094730000000  0.6265140000000 1.0
C      1  0.4412760000000  0.4918500000000  0.5759150000000 1.0
C      1  0.4652100000000  0.5246410000000  0.3969240000000 1.0
C      1  0.4483790000000  0.4163710000000  0.4446590000000 1.0
C      1  0.5724230000000  0.5396320000000  0.5165740000000 1.0
C      1  0.5633300000000  0.5614440000000  0.5041580000000 1.0
C      1  0.4928210000000  0.4401420000000  0.5557990000000 1.0
C      1  0.5465540000000  0.4461560000000  0.4436510000000 1.0
C      1  0.5459080000000  0.5027460000000  0.5708260000000 1.0
C      1  0.4382940000000  0.5591010000000  0.5445760000000 1.0
C      1  0.5933900000000  0.4786170000000  0.4922180000000 1.0
C      1  0.4458950000000  0.5642970000000  0.5176820000000 1.0
C      1  0.4788820000000  0.5772110000000  0.4820840000000 1.0
C      1  0.4502790000000  0.5223110000000  0.4954200000000 1.0
C      1  0.5420600000000  0.5418520000000  0.4315150000000 1.0
C      1  0.4953920000000  0.4604740000000  0.4847930000000 1.0
C      1  0.4872540000000  0.5880270000000  0.5287850000000 1.0
C      1  0.4644150000000  0.4689680000000  0.6115160000000 1.0
C      1  0.4145320000000  0.4936220000000  0.5651160000000 1.0
C      1  0.4856960000000  0.4586080000000  0.4602150000000 1.0
C      1  0.4753760000000  0.5662300000000  0.4199010000000 1.0
C      1  0.4997810000000  0.5730220000000  0.4630660000000 1.0
C      1  0.4789270000000  0.5055610000000  0.4126890000000 1.0
C      1  0.5596060000000  0.4433350000000  0.4918640000000 1.0
C      1  0.4893680000000  0.5241220000000  0.5291170000000 1.0
C      1  0.5244560000000  0.4903790000000  0.4216060000000 1.0
C      1  0.5754820000000  0.4630600000000  0.5110920000000 1.0
C      1  0.5647950000000  0.4281810000000  0.5443930000000 1.0
C      1  0.5379030000000  0.5540370000000  0.5739900000000 1.0
C      1  0.5060790000000  0.5118200000000  0.4197160000000 1.0
C      1  0.5392080000000  0.4243280000000  0.5324520000000 1.0
C      1  0.5834320000000  0.4451580000000  0.5337230000000 1.0
C      1  0.4505190000000  0.5200900000000  0.5753080000000 1.0
C      1  0.5225050000000  0.4080260000000  0.4880090000000 1.0
C      1  0.5354770000000  0.4868450000000  0.5026970000000 1.0
C      1  0.4551500000000  0.4017220000000  0.4659960000000 1.0
C      1  0.4627290000000  0.5511320000000  0.4014870000000 1.0
C      1  0.4695630000000  0.5783000000000  0.5091150000000 1.0
C      1  0.4313340000000  0.5372170000000  0.5608090000000 1.0
C      1  0.5366850000000  0.5072590000000  0.4827500000000 1.0
C      1  0.4897820000000  0.5181270000000  0.4692170000000 1.0
C      1  0.5442740000000  0.5284290000000  0.5780050000000 1.0
C      1  0.3984260000000  0.5211050000000  0.4496260000000 1.0
C      1  0.5925690000000  0.4392660000000  0.4560770000000 1.0
C      1  0.4202610000000  0.5069320000000  0.4436830000000 1.0
C      1  0.5845370000000  0.4973450000000  0.4746330000000 1.0
C      1  0.5273960000000  0.4047440000000  0.4603930000000 1.0
C      1  0.4774930000000  0.5267940000000  0.5798340000000 1.0
C      1  0.4688130000000  0.4620100000000  0.4379830000000 1.0
C      1  0.4474950000000  0.5034940000000  0.4486100000000 1.0
C      1  0.4652530000000  0.5140510000000  0.5181320000000 1.0
C      1  0.3937500000000  0.5398690000000  0.4681850000000 1.0
C      1  0.5327090000000  0.4218480000000  0.4403910000000 1.0
C      1  0.5722290000000  0.5135170000000  0.5221860000000 1.0
C      1  0.4086100000000  0.5194880000000  0.5570820000000 1.0
C      1  0.5258290000000  0.5790120000000  0.4723540000000 1.0
C      1  0.5247330000000  0.5742600000000  0.5626210000000 1.0
C      1  0.5489460000000  0.4848560000000  0.5510530000000 1.0
C      1  0.5385550000000  0.4694960000000  0.4304340000000 1.0
C      1  0.5132170000000  0.4700570000000  0.5020080000000 1.0
C      1  0.5578200000000  0.4863130000000  0.5225700000000 1.0
C      1  0.4094640000000  0.5495720000000  0.4875150000000 1.0
C      1  0.4637440000000  0.4888220000000  0.4302010000000 1.0
C      1  0.5151590000000  0.4288460000000  0.5463460000000 1.0
C      1  0.4877770000000  0.5266580000000  0.6058770000000 1.0
C      1  0.4345430000000  0.5458360000000  0.4990610000000 1.0
C      1  0.4577610000000  0.4702910000000  0.5840590000000 1.0
C      1  0.4722030000000  0.3968510000000  0.4859940000000 1.0
C      1  0.4772640000000  0.4847850000000  0.6290180000000 1.0
C      1  0.4927220000000  0.5272150000000  0.5565040000000 1.0
C      1  0.5067170000000  0.5860660000000  0.5468990000000 1.0
END
