TITL C-612601-4209-1366 558.087063468447 125000 -834.235847504422 0 0 136 (C1) n - 1
REM
REM in /home/nfs/bkarasulu/CARBON/AIRSS/Generating-Clusters/TERSOFF/Only-C1/FIRE-HFTN
REM
REM
REM
REM
REM
REM ./C.cell (11c1c37f851c82e70ff6c80c92926a4b)
REM AIRSS Version 0.9.1 bugfix July 2018 build 013d7b7c2542+ Fri, 06 Jul 2018 19:26:36 +0100
REM compiler GCC version 9.2.1 20190827 (Red Hat 9.2.1-1)
REM options -cpp -mtune=generic -march=x86-64 -g -O0 -fpre-include=/usr/include/finclude/math-vector-fortran.h
REM seed 1001718753 -1440524733 451146962 243471886 -1333926444 -1175389906 -620120984 -1146172316 -278230990 1469072551 -1713407612 -1281947593 619471158 1035908200 1456486415 826651945 -1356862987 -1825613133 -1693243195 -1243754145 -632515284 -1943395395 397465787 -1869779233 -66234250 -1578604535 -152640408 -896032597 230729123 -549434271 -2078783800 -1579489586 -1074892859
REM
CELL 1.54180   50.00000   50.00000   50.00000   90.00000   90.00000   90.00000
LATT -1
SFAC C  
C      1  0.4133410000000  0.5626250000000  0.5360760000000 1.0
C      1  0.4798380000000  0.6000390000000  0.4741420000000 1.0
C      1  0.4268750000000  0.4878720000000  0.4199850000000 1.0
C      1  0.5246610000000  0.6021360000000  0.5482520000000 1.0
C      1  0.5868630000000  0.5499040000000  0.4926950000000 1.0
C      1  0.6015820000000  0.3759330000000  0.5631090000000 1.0
C      1  0.5371420000000  0.4674230000000  0.4344840000000 1.0
C      1  0.5769440000000  0.5590280000000  0.5484280000000 1.0
C      1  0.5249150000000  0.4158160000000  0.4237200000000 1.0
C      1  0.5015160000000  0.5124110000000  0.5920960000000 1.0
C      1  0.5172170000000  0.4193370000000  0.5666840000000 1.0
C      1  0.4274120000000  0.5095820000000  0.4355240000000 1.0
C      1  0.5854080000000  0.4892690000000  0.5330890000000 1.0
C      1  0.5353330000000  0.4334700000000  0.4946820000000 1.0
C      1  0.3902140000000  0.5280260000000  0.4713240000000 1.0
C      1  0.5774480000000  0.4451590000000  0.4781720000000 1.0
C      1  0.4963970000000  0.4807250000000  0.4674700000000 1.0
C      1  0.5401170000000  0.4399420000000  0.4226680000000 1.0
C      1  0.5564810000000  0.5524200000000  0.5296670000000 1.0
C      1  0.5919300000000  0.5405570000000  0.4658610000000 1.0
C      1  0.5663790000000  0.4674100000000  0.5337140000000 1.0
C      1  0.4728930000000  0.6182050000000  0.4526660000000 1.0
C      1  0.5374510000000  0.5333600000000  0.4556310000000 1.0
C      1  0.3981450000000  0.4864530000000  0.5242070000000 1.0
C      1  0.4329010000000  0.5285340000000  0.4935070000000 1.0
C      1  0.4319640000000  0.4553150000000  0.5022290000000 1.0
C      1  0.4795350000000  0.4701870000000  0.4892720000000 1.0
C      1  0.5851210000000  0.5562250000000  0.4432970000000 1.0
C      1  0.5701650000000  0.3988060000000  0.4928910000000 1.0
C      1  0.4520000000000  0.4134330000000  0.5279390000000 1.0
C      1  0.4853200000000  0.5101810000000  0.3992890000000 1.0
C      1  0.4428190000000  0.5701440000000  0.4360380000000 1.0
C      1  0.4680420000000  0.5210510000000  0.4627110000000 1.0
C      1  0.4559500000000  0.4882600000000  0.5816290000000 1.0
C      1  0.5121860000000  0.4874080000000  0.5991580000000 1.0
C      1  0.4283510000000  0.5016830000000  0.5823850000000 1.0
C      1  0.5937010000000  0.4918780000000  0.4807550000000 1.0
C      1  0.4753260000000  0.5936100000000  0.5354600000000 1.0
C      1  0.4952970000000  0.4123560000000  0.5072910000000 1.0
C      1  0.4680700000000  0.5820050000000  0.4917730000000 1.0
C      1  0.4917740000000  0.4068030000000  0.5578370000000 1.0
C      1  0.5864000000000  0.4996100000000  0.4352550000000 1.0
C      1  0.4177940000000  0.5712780000000  0.4842220000000 1.0
C      1  0.3853950000000  0.5016480000000  0.4685090000000 1.0
C      1  0.4818360000000  0.4394530000000  0.4179490000000 1.0
C      1  0.4580930000000  0.5351900000000  0.4844980000000 1.0
C      1  0.5613410000000  0.5605110000000  0.5027900000000 1.0
C      1  0.5702330000000  0.5578460000000  0.4210530000000 1.0
C      1  0.4731520000000  0.4837490000000  0.3989310000000 1.0
C      1  0.5258080000000  0.4866950000000  0.4137570000000 1.0
C      1  0.5160160000000  0.5009220000000  0.5110770000000 1.0
C      1  0.4109080000000  0.5431130000000  0.4826620000000 1.0
C      1  0.4552780000000  0.5467970000000  0.4243890000000 1.0
C      1  0.5307340000000  0.5078250000000  0.5353390000000 1.0
C      1  0.5161410000000  0.4304710000000  0.5155830000000 1.0
C      1  0.5177980000000  0.4370160000000  0.4718010000000 1.0
C      1  0.5320510000000  0.4866040000000  0.5554090000000 1.0
C      1  0.3945010000000  0.4780410000000  0.4778990000000 1.0
C      1  0.4713630000000  0.5355560000000  0.4029700000000 1.0
C      1  0.5506350000000  0.5488540000000  0.4051720000000 1.0
C      1  0.5164990000000  0.6264770000000  0.4616060000000 1.0
C      1  0.5963530000000  0.5382110000000  0.5418250000000 1.0
C      1  0.4256640000000  0.5791020000000  0.5133370000000 1.0
C      1  0.5972710000000  0.5126700000000  0.4604550000000 1.0
C      1  0.5987360000000  0.4919030000000  0.5081980000000 1.0
C      1  0.5618300000000  0.4258210000000  0.4906150000000 1.0
C      1  0.4479970000000  0.5307780000000  0.5389760000000 1.0
C      1  0.5084800000000  0.5243000000000  0.4926020000000 1.0
C      1  0.4965950000000  0.4177400000000  0.4289240000000 1.0
C      1  0.5535610000000  0.3796340000000  0.4470630000000 1.0
C      1  0.5697460000000  0.5150280000000  0.5747840000000 1.0
C      1  0.4930960000000  0.5092890000000  0.4687110000000 1.0
C      1  0.3930990000000  0.5407920000000  0.5320920000000 1.0
C      1  0.4739320000000  0.5548140000000  0.4962660000000 1.0
C      1  0.5257180000000  0.4719510000000  0.5801340000000 1.0
C      1  0.5089220000000  0.4548590000000  0.5310640000000 1.0
C      1  0.4585490000000  0.3983700000000  0.4546100000000 1.0
C      1  0.5140180000000  0.5099980000000  0.4028130000000 1.0
C      1  0.5457180000000  0.5082900000000  0.4543190000000 1.0
C      1  0.4730820000000  0.4413520000000  0.5816060000000 1.0
C      1  0.4972390000000  0.4156690000000  0.4772440000000 1.0
C      1  0.5478160000000  0.5271200000000  0.5855550000000 1.0
C      1  0.4291460000000  0.5793680000000  0.4583250000000 1.0
C      1  0.5483730000000  0.5979980000000  0.5604170000000 1.0
C      1  0.5084090000000  0.6057030000000  0.4798520000000 1.0
C      1  0.4356740000000  0.4329510000000  0.5192750000000 1.0
C      1  0.5823300000000  0.3894220000000  0.5161010000000 1.0
C      1  0.4646320000000  0.5427740000000  0.5900510000000 1.0
C      1  0.4830480000000  0.4531700000000  0.5565260000000 1.0
C      1  0.4949420000000  0.6336190000000  0.4455800000000 1.0
C      1  0.5304320000000  0.5325160000000  0.3987700000000 1.0
C      1  0.5360050000000  0.5675580000000  0.4914140000000 1.0
C      1  0.4731850000000  0.4129890000000  0.5797690000000 1.0
C      1  0.5261050000000  0.4427320000000  0.5786330000000 1.0
C      1  0.4534530000000  0.5904530000000  0.5151660000000 1.0
C      1  0.4947230000000  0.5441560000000  0.5126790000000 1.0
C      1  0.5382520000000  0.4642470000000  0.5379490000000 1.0
C      1  0.4758830000000  0.4932020000000  0.5345110000000 1.0
C      1  0.5386010000000  0.3918530000000  0.4286570000000 1.0
C      1  0.4659380000000  0.4752770000000  0.5534640000000 1.0
C      1  0.5254070000000  0.5446790000000  0.4777700000000 1.0
C      1  0.5758100000000  0.4715220000000  0.4700530000000 1.0
C      1  0.5868070000000  0.5120590000000  0.5516760000000 1.0
C      1  0.4322030000000  0.5492900000000  0.5574290000000 1.0
C      1  0.5162900000000  0.4623570000000  0.4577030000000 1.0
C      1  0.5082800000000  0.5521250000000  0.5659620000000 1.0
C      1  0.4946030000000  0.4791540000000  0.5148650000000 1.0
C      1  0.4074710000000  0.4706520000000  0.5020520000000 1.0
C      1  0.4488550000000  0.4453870000000  0.4572670000000 1.0
C      1  0.5651330000000  0.3820410000000  0.4709550000000 1.0
C      1  0.5612220000000  0.4837710000000  0.4461570000000 1.0
C      1  0.4594790000000  0.3950770000000  0.5947800000000 1.0
C      1  0.4858810000000  0.4054540000000  0.4532020000000 1.0
C      1  0.4194650000000  0.5270530000000  0.5759700000000 1.0
C      1  0.4533690000000  0.4590930000000  0.4826950000000 1.0
C      1  0.4506600000000  0.5239430000000  0.4411040000000 1.0
C      1  0.4309480000000  0.5193540000000  0.5195130000000 1.0
C      1  0.5353730000000  0.5354470000000  0.5354280000000 1.0
C      1  0.5704880000000  0.5824090000000  0.5625550000000 1.0
C      1  0.5187510000000  0.5898040000000  0.5009060000000 1.0
C      1  0.5197530000000  0.5333740000000  0.5847200000000 1.0
C      1  0.4038250000000  0.5138090000000  0.5277440000000 1.0
C      1  0.4714630000000  0.5182210000000  0.5474720000000 1.0
C      1  0.6046400000000  0.5419340000000  0.5143830000000 1.0
C      1  0.4403930000000  0.4181340000000  0.4587830000000 1.0
C      1  0.4884660000000  0.4585390000000  0.3967530000000 1.0
C      1  0.4607540000000  0.4625400000000  0.5979090000000 1.0
C      1  0.4533760000000  0.5634150000000  0.5733780000000 1.0
C      1  0.4740230000000  0.5148980000000  0.5801660000000 1.0
C      1  0.5094680000000  0.5481910000000  0.5375140000000 1.0
C      1  0.4588570000000  0.4522880000000  0.4315230000000 1.0
C      1  0.5922490000000  0.3823980000000  0.5396420000000 1.0
C      1  0.4671000000000  0.5851160000000  0.5615890000000 1.0
C      1  0.4506670000000  0.4745450000000  0.4152380000000 1.0
C      1  0.4793810000000  0.4059820000000  0.5304820000000 1.0
C      1  0.5055400000000  0.5956310000000  0.5276510000000 1.0
END
