TITL C-612603-7354-1067 1.33093023872543e-05 125000 -440.352119450533 0 0 73 (C1) n - 1
REM
REM in /home/nfs/bkarasulu/CARBON/AIRSS/Generating-Clusters/TERSOFF/Only-C1/FIRE-HFTN
REM
REM
REM
REM
REM
REM ./C.cell (11c1c37f851c82e70ff6c80c92926a4b)
REM AIRSS Version 0.9.1 bugfix July 2018 build 013d7b7c2542+ Fri, 06 Jul 2018 19:26:36 +0100
REM compiler GCC version 9.2.1 20190827 (Red Hat 9.2.1-1)
REM options -cpp -mtune=generic -march=x86-64 -g -O0 -fpre-include=/usr/include/finclude/math-vector-fortran.h
REM seed -1910286347 1738745920 705893805 -679211047 225262312 1061777203 1171962740 -337170481 198602630 1237905836 -108726097 198676427 1297755892 1035312935 -1160502719 1047001076 589917956 -565691412 304603340 -1327343767 -446427974 -1387211546 -731200481 -1445585125 -956157132 2119776773 846820775 1988725187 1215425242 1524271150 -832744369 -953757972 -1829273818
REM
CELL 1.54180   50.00000   50.00000   50.00000   90.00000   90.00000   90.00000
LATT -1
SFAC C  
C      1  0.4464900000000  0.4635820000000  0.4899210000000 1.0
C      1  0.5434040000000  0.4446280000000  0.4887890000000 1.0
C      1  0.4946700000000  0.4058940000000  0.4434350000000 1.0
C      1  0.6040350000000  0.4684860000000  0.5287910000000 1.0
C      1  0.4800510000000  0.4969210000000  0.4952280000000 1.0
C      1  0.4827870000000  0.4697550000000  0.4420910000000 1.0
C      1  0.4969490000000  0.4978280000000  0.5410250000000 1.0
C      1  0.5452560000000  0.4623950000000  0.4291100000000 1.0
C      1  0.4521420000000  0.5448040000000  0.5266240000000 1.0
C      1  0.4569600000000  0.4579240000000  0.4435480000000 1.0
C      1  0.4403720000000  0.4977690000000  0.5251890000000 1.0
C      1  0.4934150000000  0.5414690000000  0.5017480000000 1.0
C      1  0.4772980000000  0.5141690000000  0.5518280000000 1.0
C      1  0.4681190000000  0.4590010000000  0.5726350000000 1.0
C      1  0.5401730000000  0.4831630000000  0.5302740000000 1.0
C      1  0.4998750000000  0.5162750000000  0.4914130000000 1.0
C      1  0.5693140000000  0.5252350000000  0.5392960000000 1.0
C      1  0.5025970000000  0.5478380000000  0.5741350000000 1.0
C      1  0.5356390000000  0.4373990000000  0.4270270000000 1.0
C      1  0.5434630000000  0.4872650000000  0.4391370000000 1.0
C      1  0.4762930000000  0.5562950000000  0.5181240000000 1.0
C      1  0.4830040000000  0.5971700000000  0.4884660000000 1.0
C      1  0.4398300000000  0.4703560000000  0.4625750000000 1.0
C      1  0.5032310000000  0.3862350000000  0.4866900000000 1.0
C      1  0.5271090000000  0.5067170000000  0.4513440000000 1.0
C      1  0.5294880000000  0.5714980000000  0.4611770000000 1.0
C      1  0.4942770000000  0.5429070000000  0.4401550000000 1.0
C      1  0.4562540000000  0.5633300000000  0.4600540000000 1.0
C      1  0.4555330000000  0.4344650000000  0.5295700000000 1.0
C      1  0.4352720000000  0.4985650000000  0.4560110000000 1.0
C      1  0.6358290000000  0.4897320000000  0.5581450000000 1.0
C      1  0.5256540000000  0.5120150000000  0.4794540000000 1.0
C      1  0.5595070000000  0.5451180000000  0.4946380000000 1.0
C      1  0.4969440000000  0.6256900000000  0.5257180000000 1.0
C      1  0.4558830000000  0.4385490000000  0.5007920000000 1.0
C      1  0.4819000000000  0.4975550000000  0.4360830000000 1.0
C      1  0.5140160000000  0.4761360000000  0.5368330000000 1.0
C      1  0.4155000000000  0.4891280000000  0.5322280000000 1.0
C      1  0.5043120000000  0.5160310000000  0.4371340000000 1.0
C      1  0.5501500000000  0.5639740000000  0.4763950000000 1.0
C      1  0.4148510000000  0.5149990000000  0.4662980000000 1.0
C      1  0.4720100000000  0.4787990000000  0.5907660000000 1.0
C      1  0.4793620000000  0.5045980000000  0.5961330000000 1.0
C      1  0.4745100000000  0.4465890000000  0.5475720000000 1.0
C      1  0.4572300000000  0.5123400000000  0.4429100000000 1.0
C      1  0.4301810000000  0.5620770000000  0.4702380000000 1.0
C      1  0.5677830000000  0.4447930000000  0.4994050000000 1.0
C      1  0.5527090000000  0.5341940000000  0.5623810000000 1.0
C      1  0.4766960000000  0.3952480000000  0.4256420000000 1.0
C      1  0.4692080000000  0.4199460000000  0.4841630000000 1.0
C      1  0.5182820000000  0.4179990000000  0.4335290000000 1.0
C      1  0.4530960000000  0.5192860000000  0.5382200000000 1.0
C      1  0.4889960000000  0.4041620000000  0.4715280000000 1.0
C      1  0.5029830000000  0.5669610000000  0.4535440000000 1.0
C      1  0.4360860000000  0.4180640000000  0.5400220000000 1.0
C      1  0.4948040000000  0.5710850000000  0.5590300000000 1.0
C      1  0.5011900000000  0.4512340000000  0.5388470000000 1.0
C      1  0.4797670000000  0.5795410000000  0.4666480000000 1.0
C      1  0.4869600000000  0.5781790000000  0.5325820000000 1.0
C      1  0.4846390000000  0.5253530000000  0.5770850000000 1.0
C      1  0.4132280000000  0.5411990000000  0.4723940000000 1.0
C      1  0.5737190000000  0.5482960000000  0.5194330000000 1.0
C      1  0.4555860000000  0.4862510000000  0.5042460000000 1.0
C      1  0.5944990000000  0.5119600000000  0.5471730000000 1.0
C      1  0.6119100000000  0.4900530000000  0.5449560000000 1.0
C      1  0.5303350000000  0.5421690000000  0.5746250000000 1.0
C      1  0.5889610000000  0.4531640000000  0.5131450000000 1.0
C      1  0.5477190000000  0.5186540000000  0.4955120000000 1.0
C      1  0.5203330000000  0.4519880000000  0.4777660000000 1.0
C      1  0.5021670000000  0.4597370000000  0.4598440000000 1.0
C      1  0.4892930000000  0.6013680000000  0.5160690000000 1.0
C      1  0.5531650000000  0.5061040000000  0.5209880000000 1.0
C      1  0.4647490000000  0.5403470000000  0.4444770000000 1.0
END
