TITL C-612601-4209-1386 4.38443952100558e-05 125000 -955.026163519096 0 0 157 (C1) n - 1
REM
REM in /home/nfs/bkarasulu/CARBON/AIRSS/Generating-Clusters/TERSOFF/Only-C1/FIRE-HFTN
REM
REM
REM
REM
REM
REM ./C.cell (11c1c37f851c82e70ff6c80c92926a4b)
REM AIRSS Version 0.9.1 bugfix July 2018 build 013d7b7c2542+ Fri, 06 Jul 2018 19:26:36 +0100
REM compiler GCC version 9.2.1 20190827 (Red Hat 9.2.1-1)
REM options -cpp -mtune=generic -march=x86-64 -g -O0 -fpre-include=/usr/include/finclude/math-vector-fortran.h
REM seed -167861257 -1434033526 421182591 1525503583 846386614 -922256134 -286329857 -877386089 274921120 842558909 -2085867330 -1553844140 -17697507 -739142653 1119466264 -119705638 214480812 2043444695 1946226782 -1306456156 302900919 -945130054 1448453705 745531481 249453563 710460425 -205037566 963560943 -163386052 123646582 -473750345 1933731491 2042550065
REM
CELL 1.54180   50.00000   50.00000   50.00000   90.00000   90.00000   90.00000
LATT -1
SFAC C  
C      1  0.4646730000000  0.4819020000000  0.4404200000000 1.0
C      1  0.5595910000000  0.4046680000000  0.5308140000000 1.0
C      1  0.4658350000000  0.5341670000000  0.5243200000000 1.0
C      1  0.4715570000000  0.5570860000000  0.4845690000000 1.0
C      1  0.5460650000000  0.5917320000000  0.4591520000000 1.0
C      1  0.4362110000000  0.5250240000000  0.5225370000000 1.0
C      1  0.5950570000000  0.4074680000000  0.4557500000000 1.0
C      1  0.5863250000000  0.4619940000000  0.5521720000000 1.0
C      1  0.4788750000000  0.5808500000000  0.5745410000000 1.0
C      1  0.5682810000000  0.5125160000000  0.4731280000000 1.0
C      1  0.5552250000000  0.5324520000000  0.5989720000000 1.0
C      1  0.4349590000000  0.5585110000000  0.5637780000000 1.0
C      1  0.5697370000000  0.4415820000000  0.5694420000000 1.0
C      1  0.5736880000000  0.4559690000000  0.5024000000000 1.0
C      1  0.4230050000000  0.5893760000000  0.4599390000000 1.0
C      1  0.4474210000000  0.5553240000000  0.4184530000000 1.0
C      1  0.5303590000000  0.4747640000000  0.4811670000000 1.0
C      1  0.4418870000000  0.4934500000000  0.4542350000000 1.0
C      1  0.5369600000000  0.5889570000000  0.4871720000000 1.0
C      1  0.4167560000000  0.5046360000000  0.4079840000000 1.0
C      1  0.5039710000000  0.5137100000000  0.4331530000000 1.0
C      1  0.3924920000000  0.4989150000000  0.5414120000000 1.0
C      1  0.4191450000000  0.4619100000000  0.4849450000000 1.0
C      1  0.5134590000000  0.4428010000000  0.4219710000000 1.0
C      1  0.4870100000000  0.6278040000000  0.5214120000000 1.0
C      1  0.4848500000000  0.5608560000000  0.5951700000000 1.0
C      1  0.4776210000000  0.4832540000000  0.4873280000000 1.0
C      1  0.5382480000000  0.4649220000000  0.6055630000000 1.0
C      1  0.4183600000000  0.4828450000000  0.4665980000000 1.0
C      1  0.4434500000000  0.4981110000000  0.5955950000000 1.0
C      1  0.6002250000000  0.4672070000000  0.4573320000000 1.0
C      1  0.4667820000000  0.5307350000000  0.4747290000000 1.0
C      1  0.4814620000000  0.4575200000000  0.4750410000000 1.0
C      1  0.4752570000000  0.4959130000000  0.3961080000000 1.0
C      1  0.4881010000000  0.6200040000000  0.4958460000000 1.0
C      1  0.4898630000000  0.5256590000000  0.5373610000000 1.0
C      1  0.5119940000000  0.5637350000000  0.6076810000000 1.0
C      1  0.4714380000000  0.5042050000000  0.5861010000000 1.0
C      1  0.6171640000000  0.5002520000000  0.5651470000000 1.0
C      1  0.5101570000000  0.4279540000000  0.6087120000000 1.0
C      1  0.4503280000000  0.4552160000000  0.4031920000000 1.0
C      1  0.4558160000000  0.5766610000000  0.5578450000000 1.0
C      1  0.3894890000000  0.5169470000000  0.5204740000000 1.0
C      1  0.4599440000000  0.5805580000000  0.5297080000000 1.0
C      1  0.3948110000000  0.5216850000000  0.4546150000000 1.0
C      1  0.5492820000000  0.4243750000000  0.4574090000000 1.0
C      1  0.5342000000000  0.4899220000000  0.5905800000000 1.0
C      1  0.4205240000000  0.4759030000000  0.4105480000000 1.0
C      1  0.4266580000000  0.5369660000000  0.5497200000000 1.0
C      1  0.4459720000000  0.5208040000000  0.4598170000000 1.0
C      1  0.5374290000000  0.4038550000000  0.4743740000000 1.0
C      1  0.5356460000000  0.4464680000000  0.4413060000000 1.0
C      1  0.5350280000000  0.5448930000000  0.4540550000000 1.0
C      1  0.5902150000000  0.5640080000000  0.4812930000000 1.0
C      1  0.4067600000000  0.4578670000000  0.4278300000000 1.0
C      1  0.5456170000000  0.5681420000000  0.5102570000000 1.0
C      1  0.5772140000000  0.4269640000000  0.4626900000000 1.0
C      1  0.5978650000000  0.4811090000000  0.5716570000000 1.0
C      1  0.5263090000000  0.4964570000000  0.5029070000000 1.0
C      1  0.4049980000000  0.5413210000000  0.4755330000000 1.0
C      1  0.4702440000000  0.4795000000000  0.6344470000000 1.0
C      1  0.5644870000000  0.4564860000000  0.5951700000000 1.0
C      1  0.5815710000000  0.5845550000000  0.4132680000000 1.0
C      1  0.5251720000000  0.4955650000000  0.4385420000000 1.0
C      1  0.4190250000000  0.4570180000000  0.5404780000000 1.0
C      1  0.5091180000000  0.5409010000000  0.4413510000000 1.0
C      1  0.4671950000000  0.5601550000000  0.5118970000000 1.0
C      1  0.4801170000000  0.5009340000000  0.4239860000000 1.0
C      1  0.3968400000000  0.4896160000000  0.6016350000000 1.0
C      1  0.4871160000000  0.5321770000000  0.5847670000000 1.0
C      1  0.4360740000000  0.4953260000000  0.5172720000000 1.0
C      1  0.5494250000000  0.4245460000000  0.5531260000000 1.0
C      1  0.4904680000000  0.4335650000000  0.4362720000000 1.0
C      1  0.5278840000000  0.4690860000000  0.5455980000000 1.0
C      1  0.5440940000000  0.3953850000000  0.5085810000000 1.0
C      1  0.4231530000000  0.4375650000000  0.4414300000000 1.0
C      1  0.5520670000000  0.5349510000000  0.4755420000000 1.0
C      1  0.4343210000000  0.4310190000000  0.5399510000000 1.0
C      1  0.4079090000000  0.5248170000000  0.4279450000000 1.0
C      1  0.5798870000000  0.5294970000000  0.4189800000000 1.0
C      1  0.5733070000000  0.5020310000000  0.5232880000000 1.0
C      1  0.5267140000000  0.4775050000000  0.3894300000000 1.0
C      1  0.5428820000000  0.5864470000000  0.5348280000000 1.0
C      1  0.4380120000000  0.4212620000000  0.4896700000000 1.0
C      1  0.4917890000000  0.4712440000000  0.6178950000000 1.0
C      1  0.5960100000000  0.5105320000000  0.4347960000000 1.0
C      1  0.4660450000000  0.4535540000000  0.5197710000000 1.0
C      1  0.5203610000000  0.4885330000000  0.5662300000000 1.0
C      1  0.5398750000000  0.4467920000000  0.5356950000000 1.0
C      1  0.5591850000000  0.5048750000000  0.5947670000000 1.0
C      1  0.4693160000000  0.5723860000000  0.4241760000000 1.0
C      1  0.4904340000000  0.5635200000000  0.4418260000000 1.0
C      1  0.5928480000000  0.5147110000000  0.4626790000000 1.0
C      1  0.5068870000000  0.3980260000000  0.5428160000000 1.0
C      1  0.5318000000000  0.5472460000000  0.5937100000000 1.0
C      1  0.6150560000000  0.5188200000000  0.5457240000000 1.0
C      1  0.4974800000000  0.4395600000000  0.4910350000000 1.0
C      1  0.5855690000000  0.4510770000000  0.4758000000000 1.0
C      1  0.4858960000000  0.5747320000000  0.4681670000000 1.0
C      1  0.4842450000000  0.5101430000000  0.4818570000000 1.0
C      1  0.5178350000000  0.3867230000000  0.5173330000000 1.0
C      1  0.5254710000000  0.5919460000000  0.5548310000000 1.0
C      1  0.4312580000000  0.5151400000000  0.3857560000000 1.0
C      1  0.4440040000000  0.4331080000000  0.4208900000000 1.0
C      1  0.6025130000000  0.4825270000000  0.4346260000000 1.0
C      1  0.5498070000000  0.5667830000000  0.4440710000000 1.0
C      1  0.4889960000000  0.6209690000000  0.5473170000000 1.0
C      1  0.5102560000000  0.5167170000000  0.4884320000000 1.0
C      1  0.4845900000000  0.4765950000000  0.5896580000000 1.0
C      1  0.5356820000000  0.5407160000000  0.5250770000000 1.0
C      1  0.4181170000000  0.4892130000000  0.5835910000000 1.0
C      1  0.5048310000000  0.4284810000000  0.5806940000000 1.0
C      1  0.4767470000000  0.4665600000000  0.3945770000000 1.0
C      1  0.4885890000000  0.4521660000000  0.5741020000000 1.0
C      1  0.4099320000000  0.5322540000000  0.5043020000000 1.0
C      1  0.5726980000000  0.6089960000000  0.4222780000000 1.0
C      1  0.4397980000000  0.6053060000000  0.4458430000000 1.0
C      1  0.5472210000000  0.4449240000000  0.5087750000000 1.0
C      1  0.5215790000000  0.4134970000000  0.5624720000000 1.0
C      1  0.5098820000000  0.3961250000000  0.4695020000000 1.0
C      1  0.4892680000000  0.6012010000000  0.4768670000000 1.0
C      1  0.5344220000000  0.4735360000000  0.4531170000000 1.0
C      1  0.5805720000000  0.4732840000000  0.5250770000000 1.0
C      1  0.4942060000000  0.4081140000000  0.4489020000000 1.0
C      1  0.5062160000000  0.4592680000000  0.3988890000000 1.0
C      1  0.5572460000000  0.6133970000000  0.4444890000000 1.0
C      1  0.4806270000000  0.4099930000000  0.5353830000000 1.0
C      1  0.4099000000000  0.4802990000000  0.5568800000000 1.0
C      1  0.4808630000000  0.4758420000000  0.5143460000000 1.0
C      1  0.4224320000000  0.4702210000000  0.5129120000000 1.0
C      1  0.5151550000000  0.5361710000000  0.5721960000000 1.0
C      1  0.4556970000000  0.4145240000000  0.5514590000000 1.0
C      1  0.5792160000000  0.4833380000000  0.5933190000000 1.0
C      1  0.5613350000000  0.5171080000000  0.4008480000000 1.0
C      1  0.5948520000000  0.5198920000000  0.5279620000000 1.0
C      1  0.4862870000000  0.4164150000000  0.5056780000000 1.0
C      1  0.5248750000000  0.4486120000000  0.4922350000000 1.0
C      1  0.5778220000000  0.5596300000000  0.4303090000000 1.0
C      1  0.4243440000000  0.4368790000000  0.4705650000000 1.0
C      1  0.5660290000000  0.5544320000000  0.4924850000000 1.0
C      1  0.3934990000000  0.4951940000000  0.4630220000000 1.0
C      1  0.5966300000000  0.5636240000000  0.4548360000000 1.0
C      1  0.4601850000000  0.5992480000000  0.4288260000000 1.0
C      1  0.5138180000000  0.5412870000000  0.5436590000000 1.0
C      1  0.5469060000000  0.5132520000000  0.5183410000000 1.0
C      1  0.5153800000000  0.4541920000000  0.6187400000000 1.0
C      1  0.4986250000000  0.3918480000000  0.4955060000000 1.0
C      1  0.4228270000000  0.5497390000000  0.4313030000000 1.0
C      1  0.4575310000000  0.5111850000000  0.3808130000000 1.0
C      1  0.4988130000000  0.5988210000000  0.5623180000000 1.0
C      1  0.4464230000000  0.4338100000000  0.5134390000000 1.0
C      1  0.5071370000000  0.4830270000000  0.5230850000000 1.0
C      1  0.4475390000000  0.4908280000000  0.6238220000000 1.0
C      1  0.5448710000000  0.4976620000000  0.3913880000000 1.0
C      1  0.4166370000000  0.5620200000000  0.4578140000000 1.0
C      1  0.4984680000000  0.5009020000000  0.5487380000000 1.0
C      1  0.4760430000000  0.4559370000000  0.4479450000000 1.0
END
