TITL C-612607-4507-1409 2.43654907435385 125000 -742.53750602451 0 0 122 (C1) n - 1
REM
REM in /home/nfs/bkarasulu/CARBON/AIRSS/Generating-Clusters/TERSOFF/Only-C1/FIRE-HFTN
REM
REM
REM
REM
REM
REM ./C.cell (11c1c37f851c82e70ff6c80c92926a4b)
REM AIRSS Version 0.9.1 bugfix July 2018 build 013d7b7c2542+ Fri, 06 Jul 2018 19:26:36 +0100
REM compiler GCC version 9.2.1 20190827 (Red Hat 9.2.1-1)
REM options -cpp -mtune=generic -march=x86-64 -g -O0 -fpre-include=/usr/include/finclude/math-vector-fortran.h
REM seed -1951018163 -1236048518 795218399 1782214368 -56644087 -1918951233 1192857794 1902686658 -1180402919 758507313 1514307818 1694836125 1937639403 105457833 656420669 -1731837362 -993923710 1586175086 -1288262551 244728527 -499510141 -1896865271 -178695708 -1713804685 -385359957 -2085877366 -1854870453 1542202396 -63141609 929098462 2096785889 -70619673 344694996
REM
CELL 1.54180   50.00000   50.00000   50.00000   90.00000   90.00000   90.00000
LATT -1
SFAC C  
C      1  0.4642460000000  0.5267080000000  0.4818100000000 1.0
C      1  0.5119840000000  0.5573040000000  0.4428740000000 1.0
C      1  0.4989090000000  0.5445020000000  0.5183940000000 1.0
C      1  0.5794250000000  0.4784000000000  0.4154090000000 1.0
C      1  0.4561650000000  0.5522600000000  0.5482060000000 1.0
C      1  0.5897360000000  0.4808300000000  0.3911290000000 1.0
C      1  0.5181860000000  0.5814960000000  0.4567020000000 1.0
C      1  0.4837160000000  0.4635590000000  0.5334790000000 1.0
C      1  0.4587980000000  0.4806870000000  0.3734760000000 1.0
C      1  0.4433440000000  0.3365210000000  0.5138630000000 1.0
C      1  0.5335050000000  0.5424600000000  0.4328170000000 1.0
C      1  0.3820970000000  0.5336090000000  0.4492970000000 1.0
C      1  0.5257660000000  0.5831940000000  0.5797430000000 1.0
C      1  0.5722080000000  0.5057730000000  0.4784410000000 1.0
C      1  0.5575720000000  0.4205740000000  0.5120190000000 1.0
C      1  0.5066780000000  0.4143120000000  0.5311580000000 1.0
C      1  0.4871250000000  0.4356530000000  0.5239900000000 1.0
C      1  0.4688710000000  0.5517570000000  0.6118880000000 1.0
C      1  0.5401430000000  0.4210570000000  0.4311820000000 1.0
C      1  0.4415940000000  0.5457830000000  0.4254400000000 1.0
C      1  0.5563420000000  0.5005200000000  0.5227350000000 1.0
C      1  0.5192190000000  0.5042110000000  0.5920280000000 1.0
C      1  0.5341980000000  0.5804580000000  0.4797360000000 1.0
C      1  0.5330760000000  0.4105370000000  0.5194260000000 1.0
C      1  0.5614700000000  0.5667200000000  0.5568450000000 1.0
C      1  0.4764580000000  0.4582580000000  0.6061070000000 1.0
C      1  0.4659200000000  0.5486280000000  0.4638740000000 1.0
C      1  0.5624680000000  0.5522440000000  0.5835830000000 1.0
C      1  0.4271190000000  0.5100120000000  0.3948960000000 1.0
C      1  0.4455930000000  0.5618740000000  0.5982240000000 1.0
C      1  0.4090050000000  0.4525760000000  0.4544800000000 1.0
C      1  0.5324100000000  0.4365090000000  0.4090730000000 1.0
C      1  0.4572770000000  0.5281830000000  0.5320640000000 1.0
C      1  0.5004570000000  0.5062780000000  0.3980530000000 1.0
C      1  0.5031970000000  0.4923370000000  0.4782690000000 1.0
C      1  0.4208980000000  0.5294880000000  0.4158740000000 1.0
C      1  0.5814010000000  0.4563810000000  0.4833140000000 1.0
C      1  0.4752600000000  0.5185530000000  0.3999110000000 1.0
C      1  0.3983250000000  0.5194080000000  0.4312460000000 1.0
C      1  0.4906470000000  0.3906930000000  0.4800820000000 1.0
C      1  0.5053230000000  0.4114050000000  0.4685840000000 1.0
C      1  0.4599150000000  0.5022270000000  0.6255840000000 1.0
C      1  0.4843700000000  0.6491650000000  0.4296080000000 1.0
C      1  0.3839440000000  0.5284430000000  0.4761360000000 1.0
C      1  0.4652590000000  0.4365990000000  0.3979120000000 1.0
C      1  0.4589480000000  0.5007400000000  0.4695630000000 1.0
C      1  0.4804480000000  0.4530480000000  0.4652440000000 1.0
C      1  0.5281400000000  0.4596760000000  0.5252630000000 1.0
C      1  0.4590920000000  0.3542670000000  0.5020470000000 1.0
C      1  0.4728920000000  0.5236040000000  0.6127040000000 1.0
C      1  0.4496110000000  0.4843050000000  0.5585160000000 1.0
C      1  0.4982760000000  0.5849140000000  0.5870020000000 1.0
C      1  0.5079700000000  0.4832710000000  0.5268770000000 1.0
C      1  0.4072870000000  0.4892790000000  0.3981520000000 1.0
C      1  0.4412890000000  0.5582850000000  0.4515830000000 1.0
C      1  0.3644260000000  0.5522610000000  0.4398170000000 1.0
C      1  0.5057900000000  0.4135000000000  0.5599380000000 1.0
C      1  0.4855970000000  0.5475190000000  0.4417260000000 1.0
C      1  0.4796340000000  0.4812690000000  0.4666770000000 1.0
C      1  0.5028040000000  0.4386240000000  0.4775530000000 1.0
C      1  0.5535710000000  0.4589480000000  0.5733790000000 1.0
C      1  0.5402330000000  0.5639980000000  0.5980120000000 1.0
C      1  0.3935340000000  0.4701860000000  0.4417100000000 1.0
C      1  0.5895200000000  0.4533870000000  0.5311190000000 1.0
C      1  0.5290090000000  0.5055980000000  0.5660360000000 1.0
C      1  0.4931460000000  0.5672470000000  0.6101690000000 1.0
C      1  0.4941640000000  0.5151430000000  0.5965170000000 1.0
C      1  0.4775660000000  0.5252740000000  0.5092680000000 1.0
C      1  0.4712830000000  0.4667680000000  0.5586830000000 1.0
C      1  0.5081790000000  0.6058320000000  0.4474380000000 1.0
C      1  0.4411780000000  0.5506160000000  0.5724230000000 1.0
C      1  0.4278550000000  0.3190670000000  0.5254870000000 1.0
C      1  0.5503050000000  0.5449990000000  0.5131510000000 1.0
C      1  0.4776390000000  0.5922370000000  0.5688670000000 1.0
C      1  0.4749080000000  0.5746750000000  0.5461780000000 1.0
C      1  0.4535770000000  0.5049500000000  0.3867460000000 1.0
C      1  0.3938980000000  0.4914400000000  0.4237350000000 1.0
C      1  0.4626950000000  0.4547550000000  0.3785530000000 1.0
C      1  0.4242220000000  0.5767650000000  0.4615980000000 1.0
C      1  0.5989680000000  0.4831110000000  0.3668570000000 1.0
C      1  0.4640420000000  0.4757180000000  0.6223500000000 1.0
C      1  0.5805710000000  0.5008630000000  0.5376490000000 1.0
C      1  0.5682130000000  0.4757940000000  0.4408980000000 1.0
C      1  0.4551870000000  0.6048310000000  0.5810220000000 1.0
C      1  0.4956890000000  0.4996290000000  0.5049050000000 1.0
C      1  0.5513350000000  0.5230210000000  0.4367030000000 1.0
C      1  0.5772820000000  0.4414500000000  0.5079690000000 1.0
C      1  0.4969090000000  0.5710170000000  0.5286480000000 1.0
C      1  0.4331240000000  0.4418430000000  0.4582750000000 1.0
C      1  0.5247860000000  0.4596940000000  0.3983830000000 1.0
C      1  0.5211420000000  0.4068830000000  0.4459430000000 1.0
C      1  0.5894860000000  0.4839590000000  0.4856130000000 1.0
C      1  0.4748720000000  0.3721000000000  0.4904240000000 1.0
C      1  0.5275550000000  0.4926270000000  0.4650480000000 1.0
C      1  0.4695170000000  0.5391180000000  0.4186000000000 1.0
C      1  0.5637080000000  0.4279600000000  0.4448870000000 1.0
C      1  0.5394990000000  0.5726110000000  0.5060090000000 1.0
C      1  0.5835690000000  0.5264530000000  0.5496610000000 1.0
C      1  0.5705720000000  0.5489700000000  0.5363080000000 1.0
C      1  0.4445970000000  0.5055330000000  0.5429720000000 1.0
C      1  0.5199960000000  0.5582180000000  0.6178450000000 1.0
C      1  0.5601580000000  0.5191400000000  0.4999800000000 1.0
C      1  0.5286910000000  0.5048560000000  0.5366460000000 1.0
C      1  0.5092370000000  0.4396530000000  0.5708600000000 1.0
C      1  0.5161340000000  0.4847980000000  0.3964470000000 1.0
C      1  0.5236840000000  0.5827070000000  0.5288140000000 1.0
C      1  0.4963880000000  0.6277990000000  0.4384780000000 1.0
C      1  0.4859030000000  0.4542170000000  0.5799720000000 1.0
C      1  0.5783890000000  0.5002000000000  0.5892360000000 1.0
C      1  0.5378080000000  0.5833310000000  0.5538610000000 1.0
C      1  0.5887020000000  0.4759470000000  0.5483390000000 1.0
C      1  0.5234840000000  0.5324610000000  0.5251080000000 1.0
C      1  0.5548870000000  0.4995820000000  0.4543660000000 1.0
C      1  0.5216750000000  0.4488450000000  0.4977750000000 1.0
C      1  0.5317360000000  0.4526160000000  0.5564280000000 1.0
C      1  0.5772420000000  0.5270130000000  0.5787300000000 1.0
C      1  0.5721150000000  0.4517410000000  0.4567100000000 1.0
C      1  0.5766330000000  0.4750340000000  0.5746600000000 1.0
C      1  0.4599900000000  0.4400650000000  0.4502340000000 1.0
C      1  0.5324080000000  0.4926310000000  0.6129700000000 1.0
C      1  0.4405720000000  0.5899450000000  0.5986880000000 1.0
C      1  0.4652390000000  0.4314280000000  0.4240400000000 1.0
END
