TITL C-612601-4209-1135 69.1246204466448 125000 -1213.70843972176 0 0 195 (C1) n - 1
REM
REM in /home/nfs/bkarasulu/CARBON/AIRSS/Generating-Clusters/TERSOFF/Only-C1/FIRE-HFTN
REM
REM
REM
REM
REM
REM ./C.cell (11c1c37f851c82e70ff6c80c92926a4b)
REM AIRSS Version 0.9.1 bugfix July 2018 build 013d7b7c2542+ Fri, 06 Jul 2018 19:26:36 +0100
REM compiler GCC version 9.2.1 20190827 (Red Hat 9.2.1-1)
REM options -cpp -mtune=generic -march=x86-64 -g -O0 -fpre-include=/usr/include/finclude/math-vector-fortran.h
REM seed 1028030579 1125262646 358617219 1767996556 1933729741 -761945944 1438538717 -233019539 -669155742 1325823320 -1424717410 1153561743 -119373764 1402165275 -1287672737 1889812978 -1103897137 429247041 -1624773412 612703197 -1326564231 1587137781 -845102311 1094314945 -371948555 -368789958 -521229770 -1643880176 446320479 805300802 753824739 134452912 511864321
REM
CELL 1.54180   50.00000   50.00000   50.00000   90.00000   90.00000   90.00000
LATT -1
SFAC C  
C      1  0.4488300000000  0.4894010000000  0.5805980000000 1.0
C      1  0.5634450000000  0.4760980000000  0.6004360000000 1.0
C      1  0.5179840000000  0.4287890000000  0.4665260000000 1.0
C      1  0.4100550000000  0.5183260000000  0.4794230000000 1.0
C      1  0.4846410000000  0.5510840000000  0.5314290000000 1.0
C      1  0.5874760000000  0.5160330000000  0.5127620000000 1.0
C      1  0.5744330000000  0.4352360000000  0.4011310000000 1.0
C      1  0.5993340000000  0.4994040000000  0.4696650000000 1.0
C      1  0.4593910000000  0.4408080000000  0.4228800000000 1.0
C      1  0.4644790000000  0.3934010000000  0.4993430000000 1.0
C      1  0.5119730000000  0.6094210000000  0.4879220000000 1.0
C      1  0.5879400000000  0.5891060000000  0.4035010000000 1.0
C      1  0.4733460000000  0.3745100000000  0.5194060000000 1.0
C      1  0.4369810000000  0.5315930000000  0.4375330000000 1.0
C      1  0.4133220000000  0.4318840000000  0.4817610000000 1.0
C      1  0.4676640000000  0.5040720000000  0.5643590000000 1.0
C      1  0.5021040000000  0.5006920000000  0.3704040000000 1.0
C      1  0.5581330000000  0.5410860000000  0.5436870000000 1.0
C      1  0.4491860000000  0.3799810000000  0.5803420000000 1.0
C      1  0.4599050000000  0.6027710000000  0.5323350000000 1.0
C      1  0.4560970000000  0.5447920000000  0.6018520000000 1.0
C      1  0.6013290000000  0.4729610000000  0.4802440000000 1.0
C      1  0.5883540000000  0.4695160000000  0.5057240000000 1.0
C      1  0.5950690000000  0.4322570000000  0.4178310000000 1.0
C      1  0.4589800000000  0.6040450000000  0.5034820000000 1.0
C      1  0.4844770000000  0.4665420000000  0.5503820000000 1.0
C      1  0.3577980000000  0.5409090000000  0.5258300000000 1.0
C      1  0.4634330000000  0.5891270000000  0.4482890000000 1.0
C      1  0.5239280000000  0.5119540000000  0.6177040000000 1.0
C      1  0.5522290000000  0.4576970000000  0.5534470000000 1.0
C      1  0.5701110000000  0.5436110000000  0.3911990000000 1.0
C      1  0.4345840000000  0.4494980000000  0.4895480000000 1.0
C      1  0.5824720000000  0.3886770000000  0.5084920000000 1.0
C      1  0.5982280000000  0.5337930000000  0.5812590000000 1.0
C      1  0.5505610000000  0.4494030000000  0.3975590000000 1.0
C      1  0.4700340000000  0.5797020000000  0.6352950000000 1.0
C      1  0.5539960000000  0.4902230000000  0.4572750000000 1.0
C      1  0.5090350000000  0.4032890000000  0.4057770000000 1.0
C      1  0.4600440000000  0.4719170000000  0.6003690000000 1.0
C      1  0.5274950000000  0.4407230000000  0.3841070000000 1.0
C      1  0.4562630000000  0.5022860000000  0.4700660000000 1.0
C      1  0.5105210000000  0.5276520000000  0.5603550000000 1.0
C      1  0.5240100000000  0.5123540000000  0.5168730000000 1.0
C      1  0.6215150000000  0.4527200000000  0.5415160000000 1.0
C      1  0.4175180000000  0.4621010000000  0.4018940000000 1.0
C      1  0.6260370000000  0.4662040000000  0.5642570000000 1.0
C      1  0.3960850000000  0.5943610000000  0.4265100000000 1.0
C      1  0.6004120000000  0.5215240000000  0.4873100000000 1.0
C      1  0.5483050000000  0.5566610000000  0.3151410000000 1.0
C      1  0.4947460000000  0.4961290000000  0.4310890000000 1.0
C      1  0.4952170000000  0.5506410000000  0.4647910000000 1.0
C      1  0.4381870000000  0.5393220000000  0.5802050000000 1.0
C      1  0.5801530000000  0.5215340000000  0.4305470000000 1.0
C      1  0.5271720000000  0.5806640000000  0.4469780000000 1.0
C      1  0.5846690000000  0.4621130000000  0.5879470000000 1.0
C      1  0.4823120000000  0.5191160000000  0.4240060000000 1.0
C      1  0.4225370000000  0.4144920000000  0.4616950000000 1.0
C      1  0.4567290000000  0.5542730000000  0.5394880000000 1.0
C      1  0.3980720000000  0.4587360000000  0.5151230000000 1.0
C      1  0.3922180000000  0.4518290000000  0.4410810000000 1.0
C      1  0.4335000000000  0.4152530000000  0.5435250000000 1.0
C      1  0.4152210000000  0.5180460000000  0.5083100000000 1.0
C      1  0.5138040000000  0.3956890000000  0.4312210000000 1.0
C      1  0.5032160000000  0.4421320000000  0.6183670000000 1.0
C      1  0.5870910000000  0.5632690000000  0.4606820000000 1.0
C      1  0.3850390000000  0.5796280000000  0.5047730000000 1.0
C      1  0.4266290000000  0.4559510000000  0.5178430000000 1.0
C      1  0.4763560000000  0.4952050000000  0.3662280000000 1.0
C      1  0.4787020000000  0.4166320000000  0.5077960000000 1.0
C      1  0.3619050000000  0.5197020000000  0.5415820000000 1.0
C      1  0.5705820000000  0.4434980000000  0.5704840000000 1.0
C      1  0.4706130000000  0.4404750000000  0.5191180000000 1.0
C      1  0.5742120000000  0.5777720000000  0.5653320000000 1.0
C      1  0.4715830000000  0.6541910000000  0.4197570000000 1.0
C      1  0.4301470000000  0.4404430000000  0.4161030000000 1.0
C      1  0.4151730000000  0.4558560000000  0.5792170000000 1.0
C      1  0.5858890000000  0.5501060000000  0.4354240000000 1.0
C      1  0.4184130000000  0.5842670000000  0.5388530000000 1.0
C      1  0.4822360000000  0.5323580000000  0.6010290000000 1.0
C      1  0.5621810000000  0.3970490000000  0.5261930000000 1.0
C      1  0.5317740000000  0.4385750000000  0.6123190000000 1.0
C      1  0.5420310000000  0.4695010000000  0.4419100000000 1.0
C      1  0.3869880000000  0.4666160000000  0.4665220000000 1.0
C      1  0.5091950000000  0.5954720000000  0.4632940000000 1.0
C      1  0.4462120000000  0.5811160000000  0.5433960000000 1.0
C      1  0.4595300000000  0.6320340000000  0.4263110000000 1.0
C      1  0.5665620000000  0.5182980000000  0.4049510000000 1.0
C      1  0.5979410000000  0.5503000000000  0.4838280000000 1.0
C      1  0.4901610000000  0.3815890000000  0.5402770000000 1.0
C      1  0.5181230000000  0.4554870000000  0.4517830000000 1.0
C      1  0.4215830000000  0.5180060000000  0.5366830000000 1.0
C      1  0.5456380000000  0.5190460000000  0.5993550000000 1.0
C      1  0.5409440000000  0.5633980000000  0.6177030000000 1.0
C      1  0.4346010000000  0.5878190000000  0.4934460000000 1.0
C      1  0.5361380000000  0.5315630000000  0.4481860000000 1.0
C      1  0.4609510000000  0.5383090000000  0.4228970000000 1.0
C      1  0.3661040000000  0.5620170000000  0.5117120000000 1.0
C      1  0.5387350000000  0.4191460000000  0.4853140000000 1.0
C      1  0.3720940000000  0.5841750000000  0.4260370000000 1.0
C      1  0.5158520000000  0.5936490000000  0.5442520000000 1.0
C      1  0.4211120000000  0.6027320000000  0.4288760000000 1.0
C      1  0.5562450000000  0.5528470000000  0.3396760000000 1.0
C      1  0.4597590000000  0.4550850000000  0.4774320000000 1.0
C      1  0.4746980000000  0.4902120000000  0.5113940000000 1.0
C      1  0.4740770000000  0.4903750000000  0.5399380000000 1.0
C      1  0.4525650000000  0.5655440000000  0.6204850000000 1.0
C      1  0.5561930000000  0.5462480000000  0.6009620000000 1.0
C      1  0.4735410000000  0.4796830000000  0.6236050000000 1.0
C      1  0.4967110000000  0.5772860000000  0.6381150000000 1.0
C      1  0.4648860000000  0.4608920000000  0.4472170000000 1.0
C      1  0.3793840000000  0.5030910000000  0.5533350000000 1.0
C      1  0.5203750000000  0.5151890000000  0.4888760000000 1.0
C      1  0.4039860000000  0.4960820000000  0.4348280000000 1.0
C      1  0.5436150000000  0.4650710000000  0.6170500000000 1.0
C      1  0.4882610000000  0.5203280000000  0.5761490000000 1.0
C      1  0.5199070000000  0.5533220000000  0.4485430000000 1.0
C      1  0.5147260000000  0.5586700000000  0.6273950000000 1.0
C      1  0.5393840000000  0.6024190000000  0.5321660000000 1.0
C      1  0.5469780000000  0.4969060000000  0.5284260000000 1.0
C      1  0.5785740000000  0.5865170000000  0.5149070000000 1.0
C      1  0.5800590000000  0.5397140000000  0.5263390000000 1.0
C      1  0.3976260000000  0.4721580000000  0.4202150000000 1.0
C      1  0.5631430000000  0.4116800000000  0.4721320000000 1.0
C      1  0.5066930000000  0.4563080000000  0.5588610000000 1.0
C      1  0.6061250000000  0.5077160000000  0.5824620000000 1.0
C      1  0.4987600000000  0.4689420000000  0.6285870000000 1.0
C      1  0.5594100000000  0.4171670000000  0.5757000000000 1.0
C      1  0.4802320000000  0.4427670000000  0.4005270000000 1.0
C      1  0.5282920000000  0.4447120000000  0.5464270000000 1.0
C      1  0.4307820000000  0.5040510000000  0.4324480000000 1.0
C      1  0.5780160000000  0.5544720000000  0.5836080000000 1.0
C      1  0.5796810000000  0.5011710000000  0.4497540000000 1.0
C      1  0.5372710000000  0.5106690000000  0.4669280000000 1.0
C      1  0.4752060000000  0.4630220000000  0.5011270000000 1.0
C      1  0.4732940000000  0.5099820000000  0.4904980000000 1.0
C      1  0.3899500000000  0.4492430000000  0.4890080000000 1.0
C      1  0.6075020000000  0.4386780000000  0.4405340000000 1.0
C      1  0.4073130000000  0.4995180000000  0.5539450000000 1.0
C      1  0.4848530000000  0.5780770000000  0.4623850000000 1.0
C      1  0.5974680000000  0.6400230000000  0.3946060000000 1.0
C      1  0.5725400000000  0.4922450000000  0.5147920000000 1.0
C      1  0.4629210000000  0.4120570000000  0.4301960000000 1.0
C      1  0.5928160000000  0.6147320000000  0.3988850000000 1.0
C      1  0.4512890000000  0.4867410000000  0.3694860000000 1.0
C      1  0.5036320000000  0.5279820000000  0.5322240000000 1.0
C      1  0.5020620000000  0.4070070000000  0.4546640000000 1.0
C      1  0.5471760000000  0.4725770000000  0.4135540000000 1.0
C      1  0.5041260000000  0.5328890000000  0.6195780000000 1.0
C      1  0.5656120000000  0.5915010000000  0.5407480000000 1.0
C      1  0.4844320000000  0.6153110000000  0.4954470000000 1.0
C      1  0.4860540000000  0.4291500000000  0.5976850000000 1.0
C      1  0.5899730000000  0.5613840000000  0.5100730000000 1.0
C      1  0.4387130000000  0.5359400000000  0.5513960000000 1.0
C      1  0.5642970000000  0.3983840000000  0.5546960000000 1.0
C      1  0.5494150000000  0.4866980000000  0.5554620000000 1.0
C      1  0.4614260000000  0.5582260000000  0.4041730000000 1.0
C      1  0.5062060000000  0.4123400000000  0.5806720000000 1.0
C      1  0.4945990000000  0.5272340000000  0.4821760000000 1.0
C      1  0.3961660000000  0.4956600000000  0.4636340000000 1.0
C      1  0.4254470000000  0.5400480000000  0.4635860000000 1.0
C      1  0.4333030000000  0.5649640000000  0.4757260000000 1.0
C      1  0.4086400000000  0.4070740000000  0.5348510000000 1.0
C      1  0.5040770000000  0.4284160000000  0.3935840000000 1.0
C      1  0.5390230000000  0.4108400000000  0.5140240000000 1.0
C      1  0.4527530000000  0.3982370000000  0.4731580000000 1.0
C      1  0.4326610000000  0.4371920000000  0.5891380000000 1.0
C      1  0.4601620000000  0.4427570000000  0.5950380000000 1.0
C      1  0.4129600000000  0.4291640000000  0.4374900000000 1.0
C      1  0.5372160000000  0.6068660000000  0.5025400000000 1.0
C      1  0.4734470000000  0.4032420000000  0.4543120000000 1.0
C      1  0.5261030000000  0.5026140000000  0.3818340000000 1.0
C      1  0.6071550000000  0.4788930000000  0.5808010000000 1.0
C      1  0.5220000000000  0.4195680000000  0.5349280000000 1.0
C      1  0.5817110000000  0.5628130000000  0.4095540000000 1.0
C      1  0.5228680000000  0.4844310000000  0.6259630000000 1.0
C      1  0.5345250000000  0.4184500000000  0.5912380000000 1.0
C      1  0.5052540000000  0.4028560000000  0.5525350000000 1.0
C      1  0.4447710000000  0.4393270000000  0.5325570000000 1.0
C      1  0.6020350000000  0.4524910000000  0.5232180000000 1.0
C      1  0.5631500000000  0.5971850000000  0.4923140000000 1.0
C      1  0.5365370000000  0.5387910000000  0.5596410000000 1.0
C      1  0.5638220000000  0.5485920000000  0.3647020000000 1.0
C      1  0.4220680000000  0.4825480000000  0.5715790000000 1.0
C      1  0.4110690000000  0.5876740000000  0.5115050000000 1.0
C      1  0.5534380000000  0.4970590000000  0.5828220000000 1.0
C      1  0.5472470000000  0.4980590000000  0.3999530000000 1.0
C      1  0.4479820000000  0.6079330000000  0.4344440000000 1.0
C      1  0.5725040000000  0.5872500000000  0.4672980000000 1.0
C      1  0.4458600000000  0.3985710000000  0.5622980000000 1.0
C      1  0.4300610000000  0.4752100000000  0.3807960000000 1.0
C      1  0.4495300000000  0.4875890000000  0.4462170000000 1.0
C      1  0.4940150000000  0.4701150000000  0.4437420000000 1.0
C      1  0.6095450000000  0.4521780000000  0.4634380000000 1.0
C      1  0.5829760000000  0.3964590000000  0.4825580000000 1.0
C      1  0.4987820000000  0.5752300000000  0.5356210000000 1.0
END
