TITL C-612602-9376-482 8.20096628753655 125000 -148.364507500857 0 0 26 (C1) n - 1
REM
REM in /home/nfs/bkarasulu/CARBON/AIRSS/Generating-Clusters/TERSOFF/Only-C1/FIRE-HFTN
REM
REM
REM
REM
REM
REM ./C.cell (11c1c37f851c82e70ff6c80c92926a4b)
REM AIRSS Version 0.9.1 bugfix July 2018 build 013d7b7c2542+ Fri, 06 Jul 2018 19:26:36 +0100
REM compiler GCC version 9.2.1 20190827 (Red Hat 9.2.1-1)
REM options -cpp -mtune=generic -march=x86-64 -g -O0 -fpre-include=/usr/include/finclude/math-vector-fortran.h
REM seed 123874118 402971352 -195729659 464357177 1631221002 1760077366 -1648100019 -40715697 -136821605 1192820624 -1375602085 1928292241 356403883 -35742025 -1721400552 -1567958293 2037324748 -819861465 -1901794147 -430648550 -2067339804 -79463800 -1207376835 -1445102658 -1266170803 115876966 -773410295 -1949890517 -71146306 1221398255 -983852035 1781310522 -683727243
REM
CELL 1.54180   50.00000   50.00000   50.00000   90.00000   90.00000   90.00000
LATT -1
SFAC C  
C      1  0.5045250000000  0.4677840000000  0.5135170000000 1.0
C      1  0.4872550000000  0.5295510000000  0.5109130000000 1.0
C      1  0.4685520000000  0.4299530000000  0.5594470000000 1.0
C      1  0.4567720000000  0.4685960000000  0.5847330000000 1.0
C      1  0.5004270000000  0.5199880000000  0.5569320000000 1.0
C      1  0.5206120000000  0.4553820000000  0.4964940000000 1.0
C      1  0.4860240000000  0.4835410000000  0.5272950000000 1.0
C      1  0.4384140000000  0.4756760000000  0.5232260000000 1.0
C      1  0.5271210000000  0.5405950000000  0.3999350000000 1.0
C      1  0.5409830000000  0.5195930000000  0.3914410000000 1.0
C      1  0.4633930000000  0.5395200000000  0.5916750000000 1.0
C      1  0.4918380000000  0.5554210000000  0.4653160000000 1.0
C      1  0.5004490000000  0.5592120000000  0.4405080000000 1.0
C      1  0.5127480000000  0.5543920000000  0.4174860000000 1.0
C      1  0.4624260000000  0.4566200000000  0.5607610000000 1.0
C      1  0.5351440000000  0.4480030000000  0.4755670000000 1.0
C      1  0.5545010000000  0.4560740000000  0.4277570000000 1.0
C      1  0.5269500000000  0.5180410000000  0.5633440000000 1.0
C      1  0.5561980000000  0.4727000000000  0.4071240000000 1.0
C      1  0.5514210000000  0.4953060000000  0.3940270000000 1.0
C      1  0.5469790000000  0.4477780000000  0.4518210000000 1.0
C      1  0.4618660000000  0.4720500000000  0.5368670000000 1.0
C      1  0.4874880000000  0.5447690000000  0.4892150000000 1.0
C      1  0.4820890000000  0.5306680000000  0.5751230000000 1.0
C      1  0.4446780000000  0.5476330000000  0.6079080000000 1.0
C      1  0.4911490000000  0.5111530000000  0.5315690000000 1.0
END
