TITL C-612604-1799-1438 0.0430007759022943 125000 -972.423531625449 0 0 156 (C1) n - 1
REM
REM in /home/nfs/bkarasulu/CARBON/AIRSS/Generating-Clusters/TERSOFF/Only-C1/FIRE-HFTN
REM
REM
REM
REM
REM
REM ./C.cell (11c1c37f851c82e70ff6c80c92926a4b)
REM AIRSS Version 0.9.1 bugfix July 2018 build 013d7b7c2542+ Fri, 06 Jul 2018 19:26:36 +0100
REM compiler GCC version 9.2.1 20190827 (Red Hat 9.2.1-1)
REM options -cpp -mtune=generic -march=x86-64 -g -O0 -fpre-include=/usr/include/finclude/math-vector-fortran.h
REM seed 1654702511 356938347 1707572005 840993027 621626004 1004486264 -1742647558 640998950 -2110292387 -707941719 -1581114444 -1706675598 882897781 -1473114076 2123769590 1216612869 -282441480 -377941860 -579742579 262193005 -258102612 -902590964 1815181589 -1021981158 1848523966 -1116781139 -521637468 522406119 239839913 1707878824 1990722697 1986592551 -255203821
REM
CELL 1.54180   50.00000   50.00000   50.00000   90.00000   90.00000   90.00000
LATT -1
SFAC C  
C      1  0.4382510000000  0.5037700000000  0.4905340000000 1.0
C      1  0.5161680000000  0.5683430000000  0.4036840000000 1.0
C      1  0.4454330000000  0.5797590000000  0.5405070000000 1.0
C      1  0.5827840000000  0.5035190000000  0.4504420000000 1.0
C      1  0.4673700000000  0.3966610000000  0.4350070000000 1.0
C      1  0.3886380000000  0.4883170000000  0.5507080000000 1.0
C      1  0.5581810000000  0.5529460000000  0.5533400000000 1.0
C      1  0.4993090000000  0.4385510000000  0.5303580000000 1.0
C      1  0.5713830000000  0.5103090000000  0.5299110000000 1.0
C      1  0.5887870000000  0.4678220000000  0.5546190000000 1.0
C      1  0.4691650000000  0.4363030000000  0.6115430000000 1.0
C      1  0.4897600000000  0.4982140000000  0.5951850000000 1.0
C      1  0.5328910000000  0.4408420000000  0.5916590000000 1.0
C      1  0.4315960000000  0.4297050000000  0.4462660000000 1.0
C      1  0.4851480000000  0.5219220000000  0.5246340000000 1.0
C      1  0.4696420000000  0.5194400000000  0.4025230000000 1.0
C      1  0.5405590000000  0.5850130000000  0.4083900000000 1.0
C      1  0.4929050000000  0.4527040000000  0.4556780000000 1.0
C      1  0.4252440000000  0.4327020000000  0.5750500000000 1.0
C      1  0.4018240000000  0.5601140000000  0.4573620000000 1.0
C      1  0.5028290000000  0.4597800000000  0.4299070000000 1.0
C      1  0.5371590000000  0.4855960000000  0.4514290000000 1.0
C      1  0.5484340000000  0.4697200000000  0.4064640000000 1.0
C      1  0.5094130000000  0.4405210000000  0.4749870000000 1.0
C      1  0.5843430000000  0.5271530000000  0.4660680000000 1.0
C      1  0.4902150000000  0.4999140000000  0.4018140000000 1.0
C      1  0.3854410000000  0.4762070000000  0.4978910000000 1.0
C      1  0.3819660000000  0.5030190000000  0.4967120000000 1.0
C      1  0.4450980000000  0.4613090000000  0.4776040000000 1.0
C      1  0.5049470000000  0.4124880000000  0.4808770000000 1.0
C      1  0.5399770000000  0.5414200000000  0.4877550000000 1.0
C      1  0.4735470000000  0.5501100000000  0.4700710000000 1.0
C      1  0.5776980000000  0.4475830000000  0.4395270000000 1.0
C      1  0.5196200000000  0.3993090000000  0.4294190000000 1.0
C      1  0.5238790000000  0.5631240000000  0.4517050000000 1.0
C      1  0.5377710000000  0.4472470000000  0.4748110000000 1.0
C      1  0.4724190000000  0.4438080000000  0.5232120000000 1.0
C      1  0.5892760000000  0.5760630000000  0.4962370000000 1.0
C      1  0.5813440000000  0.4268840000000  0.5302780000000 1.0
C      1  0.5852370000000  0.5000510000000  0.5060060000000 1.0
C      1  0.4687200000000  0.4164860000000  0.5912160000000 1.0
C      1  0.5286540000000  0.5972370000000  0.5415280000000 1.0
C      1  0.5596150000000  0.5405800000000  0.4660000000000 1.0
C      1  0.4420930000000  0.5167720000000  0.5539610000000 1.0
C      1  0.5291090000000  0.4686080000000  0.5960420000000 1.0
C      1  0.4611260000000  0.4991420000000  0.5932440000000 1.0
C      1  0.5854370000000  0.3870210000000  0.5662160000000 1.0
C      1  0.5148170000000  0.5006950000000  0.4580140000000 1.0
C      1  0.5357880000000  0.4759580000000  0.5283970000000 1.0
C      1  0.4921450000000  0.5818580000000  0.4144370000000 1.0
C      1  0.4209890000000  0.4541110000000  0.5576370000000 1.0
C      1  0.5028330000000  0.4755870000000  0.6064510000000 1.0
C      1  0.5163580000000  0.5110220000000  0.3960280000000 1.0
C      1  0.4442430000000  0.4775480000000  0.5003490000000 1.0
C      1  0.5626120000000  0.4880640000000  0.4643780000000 1.0
C      1  0.5344350000000  0.5217350000000  0.5067500000000 1.0
C      1  0.4921210000000  0.5051310000000  0.5006370000000 1.0
C      1  0.4500880000000  0.6164360000000  0.5090430000000 1.0
C      1  0.5499050000000  0.5795240000000  0.5479420000000 1.0
C      1  0.5442890000000  0.5025050000000  0.5248840000000 1.0
C      1  0.5941050000000  0.5252300000000  0.4927030000000 1.0
C      1  0.3977280000000  0.4545040000000  0.5128240000000 1.0
C      1  0.4397320000000  0.4449950000000  0.4231870000000 1.0
C      1  0.5990300000000  0.4454760000000  0.4586110000000 1.0
C      1  0.5332900000000  0.6109150000000  0.5174610000000 1.0
C      1  0.5051600000000  0.5129390000000  0.5760280000000 1.0
C      1  0.5481600000000  0.4388250000000  0.4467070000000 1.0
C      1  0.4538240000000  0.4654650000000  0.5250230000000 1.0
C      1  0.5583440000000  0.4517740000000  0.4941100000000 1.0
C      1  0.5749850000000  0.5392950000000  0.5342760000000 1.0
C      1  0.3988910000000  0.4623890000000  0.5416930000000 1.0
C      1  0.5689300000000  0.5921500000000  0.4818120000000 1.0
C      1  0.4160500000000  0.5351820000000  0.5508440000000 1.0
C      1  0.4930260000000  0.3952170000000  0.4268760000000 1.0
C      1  0.5109110000000  0.4133500000000  0.5336030000000 1.0
C      1  0.3898160000000  0.5477280000000  0.4778220000000 1.0
C      1  0.4447330000000  0.5113720000000  0.4639210000000 1.0
C      1  0.4472090000000  0.5175330000000  0.6096370000000 1.0
C      1  0.4664870000000  0.5699900000000  0.4196680000000 1.0
C      1  0.4681400000000  0.4612590000000  0.4630360000000 1.0
C      1  0.4518890000000  0.6124450000000  0.4825070000000 1.0
C      1  0.4397770000000  0.5430150000000  0.6050680000000 1.0
C      1  0.4439940000000  0.3964480000000  0.5518780000000 1.0
C      1  0.4483930000000  0.4934140000000  0.5680750000000 1.0
C      1  0.4961360000000  0.5092180000000  0.5493240000000 1.0
C      1  0.5219910000000  0.6164490000000  0.4362840000000 1.0
C      1  0.4804440000000  0.6119530000000  0.5474770000000 1.0
C      1  0.5414430000000  0.4958730000000  0.3964510000000 1.0
C      1  0.4556550000000  0.5204640000000  0.5298310000000 1.0
C      1  0.5036210000000  0.5972550000000  0.5558640000000 1.0
C      1  0.5305620000000  0.3975950000000  0.5240620000000 1.0
C      1  0.4982090000000  0.6072730000000  0.4264780000000 1.0
C      1  0.4730980000000  0.5720700000000  0.5855030000000 1.0
C      1  0.5628720000000  0.5134880000000  0.4080980000000 1.0
C      1  0.4546690000000  0.6070460000000  0.5354990000000 1.0
C      1  0.5389690000000  0.4091640000000  0.4480910000000 1.0
C      1  0.4370060000000  0.5237840000000  0.5093440000000 1.0
C      1  0.4312120000000  0.4099110000000  0.5016440000000 1.0
C      1  0.4474280000000  0.5810510000000  0.4387660000000 1.0
C      1  0.4947920000000  0.4071690000000  0.5851660000000 1.0
C      1  0.5878540000000  0.5496300000000  0.5092570000000 1.0
C      1  0.5339480000000  0.5148640000000  0.5791190000000 1.0
C      1  0.5187210000000  0.5591110000000  0.4795060000000 1.0
C      1  0.5643330000000  0.4269180000000  0.5076330000000 1.0
C      1  0.5325110000000  0.4015840000000  0.4765070000000 1.0
C      1  0.6380950000000  0.5997160000000  0.4992170000000 1.0
C      1  0.4585570000000  0.4604190000000  0.4109290000000 1.0
C      1  0.5704360000000  0.4786190000000  0.4905890000000 1.0
C      1  0.5711930000000  0.4797740000000  0.5716650000000 1.0
C      1  0.5646410000000  0.5963050000000  0.4534080000000 1.0
C      1  0.5419280000000  0.5418990000000  0.5746580000000 1.0
C      1  0.5820400000000  0.4973330000000  0.4228390000000 1.0
C      1  0.4438160000000  0.4701610000000  0.5519080000000 1.0
C      1  0.5969510000000  0.4507480000000  0.5330200000000 1.0
C      1  0.4921580000000  0.5072520000000  0.4724920000000 1.0
C      1  0.4472930000000  0.4063540000000  0.4526870000000 1.0
C      1  0.5473790000000  0.5490570000000  0.4419140000000 1.0
C      1  0.5764940000000  0.4683620000000  0.4179960000000 1.0
C      1  0.6125530000000  0.4550540000000  0.5092100000000 1.0
C      1  0.4536410000000  0.6007190000000  0.4583970000000 1.0
C      1  0.4867430000000  0.5507400000000  0.5162760000000 1.0
C      1  0.4519040000000  0.4032250000000  0.4813400000000 1.0
C      1  0.5462430000000  0.6015670000000  0.4318770000000 1.0
C      1  0.5836970000000  0.4057950000000  0.5482250000000 1.0
C      1  0.4132400000000  0.4335090000000  0.4962670000000 1.0
C      1  0.3910700000000  0.5299660000000  0.4997520000000 1.0
C      1  0.4660750000000  0.5652320000000  0.5277880000000 1.0
C      1  0.4341610000000  0.3977380000000  0.5269370000000 1.0
C      1  0.4704650000000  0.5230750000000  0.4625560000000 1.0
C      1  0.5511340000000  0.6072680000000  0.4978940000000 1.0
C      1  0.5218610000000  0.5609470000000  0.5839910000000 1.0
C      1  0.4462180000000  0.5620090000000  0.5852510000000 1.0
C      1  0.5194300000000  0.4179620000000  0.5873980000000 1.0
C      1  0.4218420000000  0.5693000000000  0.4421690000000 1.0
C      1  0.5325200000000  0.4612870000000  0.4305100000000 1.0
C      1  0.6115370000000  0.4498880000000  0.4823740000000 1.0
C      1  0.4929270000000  0.5576180000000  0.4894450000000 1.0
C      1  0.4845880000000  0.4728840000000  0.4117540000000 1.0
C      1  0.5487020000000  0.5369810000000  0.4166710000000 1.0
C      1  0.5469470000000  0.4042710000000  0.5016840000000 1.0
C      1  0.5126920000000  0.4626240000000  0.5363290000000 1.0
C      1  0.5466410000000  0.4887960000000  0.5837380000000 1.0
C      1  0.4797740000000  0.4019010000000  0.4875160000000 1.0
C      1  0.4241000000000  0.4437880000000  0.4706170000000 1.0
C      1  0.6146660000000  0.5883890000000  0.4978600000000 1.0
C      1  0.4309440000000  0.5637380000000  0.5601680000000 1.0
C      1  0.4620060000000  0.5444190000000  0.4083950000000 1.0
C      1  0.5228860000000  0.5399280000000  0.4019810000000 1.0
C      1  0.4859010000000  0.4562820000000  0.6182180000000 1.0
C      1  0.4996630000000  0.5772800000000  0.5766680000000 1.0
C      1  0.4950300000000  0.4809890000000  0.5473340000000 1.0
C      1  0.3942560000000  0.5141760000000  0.5583450000000 1.0
C      1  0.4084790000000  0.5026810000000  0.4253420000000 1.0
C      1  0.4274510000000  0.5073670000000  0.4425960000000 1.0
C      1  0.4122330000000  0.5345650000000  0.5185330000000 1.0
C      1  0.4456940000000  0.4129880000000  0.5746710000000 1.0
END
