TITL C-612600-6631-553 -1.36772959545034e-05 125000 -404.556915151408 0 0 67 (C1) n - 1
REM
REM in /home/nfs/bkarasulu/CARBON/AIRSS/Generating-Clusters/TERSOFF/Only-C1/FIRE-HFTN
REM
REM
REM
REM
REM
REM ./C.cell (11c1c37f851c82e70ff6c80c92926a4b)
REM AIRSS Version 0.9.1 bugfix July 2018 build 013d7b7c2542+ Fri, 06 Jul 2018 19:26:36 +0100
REM compiler GCC version 9.2.1 20190827 (Red Hat 9.2.1-1)
REM options -cpp -mtune=generic -march=x86-64 -g -O0 -fpre-include=/usr/include/finclude/math-vector-fortran.h
REM seed -1545234771 -462781360 -1673131028 -523594666 -2016037184 1032336614 -528819488 1440661834 1851752313 791177902 459467007 1461436408 -1328325752 690977448 -694112129 473321850 365017975 -987488620 1557648431 -1230957044 1013509537 -1905591067 1523071491 -613644440 884799711 146249949 304173268 324005025 -498991463 -526094810 -1870982485 -679479217 1631520469
REM
CELL 1.54180   50.00000   50.00000   50.00000   90.00000   90.00000   90.00000
LATT -1
SFAC C  
C      1  0.4769150000000  0.5023370000000  0.5189580000000 1.0
C      1  0.4554700000000  0.5586040000000  0.4895650000000 1.0
C      1  0.4583930000000  0.4657590000000  0.5473330000000 1.0
C      1  0.5369830000000  0.4205240000000  0.5091470000000 1.0
C      1  0.5031680000000  0.5635350000000  0.4895060000000 1.0
C      1  0.5211760000000  0.4916160000000  0.4853010000000 1.0
C      1  0.5554270000000  0.4402670000000  0.4992390000000 1.0
C      1  0.4568350000000  0.5453520000000  0.4629260000000 1.0
C      1  0.4925500000000  0.4586450000000  0.5079380000000 1.0
C      1  0.5371480000000  0.5304070000000  0.5432070000000 1.0
C      1  0.5123760000000  0.5165740000000  0.4780120000000 1.0
C      1  0.5456150000000  0.4604130000000  0.5413620000000 1.0
C      1  0.5244990000000  0.4497750000000  0.5593380000000 1.0
C      1  0.4831640000000  0.5041800000000  0.5468850000000 1.0
C      1  0.5452670000000  0.4619280000000  0.4479800000000 1.0
C      1  0.4320570000000  0.4828730000000  0.5086100000000 1.0
C      1  0.4441220000000  0.5005430000000  0.4414490000000 1.0
C      1  0.5328550000000  0.5468710000000  0.4369150000000 1.0
C      1  0.5164080000000  0.4132460000000  0.5277050000000 1.0
C      1  0.4610530000000  0.5017300000000  0.4186930000000 1.0
C      1  0.4604460000000  0.5153430000000  0.5608130000000 1.0
C      1  0.5074910000000  0.3874290000000  0.5293080000000 1.0
C      1  0.5054690000000  0.4957110000000  0.5625160000000 1.0
C      1  0.5093330000000  0.5727440000000  0.5393010000000 1.0
C      1  0.4147980000000  0.4622690000000  0.5019460000000 1.0
C      1  0.4342770000000  0.5516110000000  0.5075440000000 1.0
C      1  0.5012890000000  0.4691470000000  0.4199470000000 1.0
C      1  0.5596270000000  0.4840930000000  0.4378260000000 1.0
C      1  0.4927630000000  0.5170460000000  0.4584430000000 1.0
C      1  0.5709750000000  0.5091250000000  0.4428870000000 1.0
C      1  0.5469560000000  0.5444580000000  0.4971500000000 1.0
C      1  0.5862570000000  0.5220520000000  0.4857140000000 1.0
C      1  0.5656090000000  0.5414210000000  0.4758280000000 1.0
C      1  0.5204570000000  0.4580080000000  0.4350300000000 1.0
C      1  0.5279690000000  0.5043230000000  0.5472810000000 1.0
C      1  0.5202490000000  0.5415450000000  0.4893690000000 1.0
C      1  0.5159600000000  0.4756470000000  0.5072230000000 1.0
C      1  0.5114290000000  0.4706170000000  0.5750980000000 1.0
C      1  0.4178610000000  0.5198410000000  0.4796510000000 1.0
C      1  0.4375830000000  0.5229550000000  0.4587920000000 1.0
C      1  0.4632820000000  0.5637290000000  0.5497490000000 1.0
C      1  0.5659880000000  0.4574330000000  0.5206520000000 1.0
C      1  0.4427000000000  0.4739010000000  0.4514000000000 1.0
C      1  0.4249360000000  0.5042870000000  0.5268610000000 1.0
C      1  0.5192770000000  0.5506420000000  0.5545080000000 1.0
C      1  0.4826250000000  0.4867970000000  0.4122890000000 1.0
C      1  0.5930340000000  0.5080910000000  0.4617700000000 1.0
C      1  0.4700160000000  0.5420080000000  0.5672490000000 1.0
C      1  0.4402690000000  0.4969030000000  0.5512150000000 1.0
C      1  0.4721350000000  0.4647340000000  0.4892310000000 1.0
C      1  0.4596510000000  0.4579750000000  0.4652730000000 1.0
C      1  0.4818280000000  0.5734680000000  0.5301910000000 1.0
C      1  0.5773520000000  0.5114620000000  0.5116700000000 1.0
C      1  0.3980640000000  0.4429040000000  0.4970430000000 1.0
C      1  0.5794360000000  0.4829290000000  0.5160560000000 1.0
C      1  0.5051960000000  0.4337330000000  0.5448390000000 1.0
C      1  0.4788290000000  0.5691200000000  0.5021150000000 1.0
C      1  0.4824410000000  0.4499870000000  0.5347190000000 1.0
C      1  0.4206510000000  0.5266820000000  0.5081610000000 1.0
C      1  0.4986770000000  0.5434000000000  0.5742000000000 1.0
C      1  0.5314040000000  0.4827380000000  0.5297330000000 1.0
C      1  0.5561470000000  0.5311860000000  0.5215210000000 1.0
C      1  0.5561260000000  0.5344590000000  0.4484050000000 1.0
C      1  0.4824320000000  0.5419920000000  0.4489580000000 1.0
C      1  0.5537180000000  0.4484560000000  0.4718110000000 1.0
C      1  0.4594820000000  0.4866920000000  0.5022240000000 1.0
C      1  0.5060290000000  0.5537260000000  0.4364230000000 1.0
END
