TITL C-612607-4507-166 -0.00183054478635813 125000 -135.490459811079 0 0 23 (C1) n - 1
REM
REM in /home/nfs/bkarasulu/CARBON/AIRSS/Generating-Clusters/TERSOFF/Only-C1/FIRE-HFTN
REM
REM
REM
REM
REM
REM ./C.cell (11c1c37f851c82e70ff6c80c92926a4b)
REM AIRSS Version 0.9.1 bugfix July 2018 build 013d7b7c2542+ Fri, 06 Jul 2018 19:26:36 +0100
REM compiler GCC version 9.2.1 20190827 (Red Hat 9.2.1-1)
REM options -cpp -mtune=generic -march=x86-64 -g -O0 -fpre-include=/usr/include/finclude/math-vector-fortran.h
REM seed 1656862029 -279087270 1904252582 1242572810 -1105554925 1105360701 2130659831 -464218306 -1325321237 -438777563 -1529005337 -779292091 747367538 328917906 -834761473 1938892540 495220621 -307139531 -1696856580 -916764475 -1935355769 -736993335 866918582 -1338153760 -1651406310 -184090578 1618699211 1819781218 -877363630 1302397304 1951145213 1017170463 -1412273698
REM
CELL 1.54180   50.00000   50.00000   50.00000   90.00000   90.00000   90.00000
LATT -1
SFAC C  
C      1  0.4522000000000  0.4425310000000  0.5164070000000 1.0
C      1  0.5438280000000  0.4695500000000  0.4812900000000 1.0
C      1  0.4278320000000  0.5110020000000  0.5227030000000 1.0
C      1  0.5416230000000  0.4648260000000  0.5291110000000 1.0
C      1  0.4879770000000  0.5516530000000  0.5008050000000 1.0
C      1  0.5451840000000  0.5907210000000  0.4781570000000 1.0
C      1  0.5139640000000  0.5480910000000  0.4910680000000 1.0
C      1  0.4634840000000  0.5465520000000  0.5096320000000 1.0
C      1  0.4241110000000  0.4847540000000  0.5246060000000 1.0
C      1  0.5001940000000  0.4577430000000  0.4644470000000 1.0
C      1  0.5470840000000  0.4813820000000  0.5071450000000 1.0
C      1  0.5603910000000  0.6109580000000  0.4719250000000 1.0
C      1  0.5224290000000  0.4471980000000  0.5353610000000 1.0
C      1  0.4853720000000  0.4428920000000  0.4810440000000 1.0
C      1  0.5157720000000  0.5046550000000  0.4666710000000 1.0
C      1  0.5297690000000  0.5701220000000  0.4844780000000 1.0
C      1  0.4327990000000  0.4597240000000  0.5223580000000 1.0
C      1  0.5411050000000  0.5092230000000  0.5069170000000 1.0
C      1  0.4421730000000  0.5327020000000  0.5173110000000 1.0
C      1  0.4993630000000  0.4367650000000  0.5268110000000 1.0
C      1  0.5208230000000  0.4766400000000  0.4658790000000 1.0
C      1  0.4785310000000  0.4383980000000  0.5079800000000 1.0
C      1  0.5239920000000  0.5219160000000  0.4878930000000 1.0
END
