TITL C-612602-9376-15 -110.809004403989 125000 -912.072497398859 0 0 149 (C1) n - 1
REM
REM in /home/nfs/bkarasulu/CARBON/AIRSS/Generating-Clusters/TERSOFF/Only-C1/FIRE-HFTN
REM
REM
REM
REM
REM
REM ./C.cell (11c1c37f851c82e70ff6c80c92926a4b)
REM AIRSS Version 0.9.1 bugfix July 2018 build 013d7b7c2542+ Fri, 06 Jul 2018 19:26:36 +0100
REM compiler GCC version 9.2.1 20190827 (Red Hat 9.2.1-1)
REM options -cpp -mtune=generic -march=x86-64 -g -O0 -fpre-include=/usr/include/finclude/math-vector-fortran.h
REM seed -708701939 -1010167024 1121922125 -836850268 -1186481368 -2023532612 3377582 104723422 -224453699 -1094412511 730229981 707240935 -1999130000 -545363806 575063515 1728509608 855910340 1078957850 1945610004 1365736786 -240671018 -471211769 -1871735972 1829320734 1603670789 -316739620 779198809 297645862 490512935 -1408821751 986452325 772504005 -1998007017
REM
CELL 1.54180   50.00000   50.00000   50.00000   90.00000   90.00000   90.00000
LATT -1
SFAC C  
C      1  0.5048730000000  0.4585880000000  0.4572960000000 1.0
C      1  0.4210960000000  0.4678580000000  0.5508270000000 1.0
C      1  0.4483480000000  0.5597090000000  0.4339100000000 1.0
C      1  0.5021660000000  0.4260000000000  0.5225910000000 1.0
C      1  0.4860300000000  0.4572620000000  0.6177810000000 1.0
C      1  0.5480210000000  0.5810870000000  0.4378370000000 1.0
C      1  0.5428210000000  0.5876570000000  0.4849090000000 1.0
C      1  0.4648650000000  0.4672170000000  0.6016640000000 1.0
C      1  0.6003360000000  0.4268590000000  0.4926590000000 1.0
C      1  0.5717040000000  0.5227940000000  0.4558460000000 1.0
C      1  0.5612820000000  0.4043240000000  0.4720900000000 1.0
C      1  0.5113220000000  0.5014700000000  0.5587470000000 1.0
C      1  0.4549430000000  0.6059950000000  0.5168840000000 1.0
C      1  0.4495520000000  0.5546610000000  0.5681970000000 1.0
C      1  0.4901290000000  0.5432500000000  0.6026770000000 1.0
C      1  0.5726340000000  0.5818420000000  0.5225400000000 1.0
C      1  0.5675350000000  0.4855700000000  0.3728830000000 1.0
C      1  0.6264380000000  0.4759700000000  0.4080230000000 1.0
C      1  0.4688300000000  0.4864660000000  0.4067720000000 1.0
C      1  0.4480940000000  0.4229180000000  0.4722450000000 1.0
C      1  0.3889140000000  0.5176450000000  0.5078630000000 1.0
C      1  0.4731440000000  0.5793680000000  0.4790520000000 1.0
C      1  0.4703840000000  0.4571350000000  0.5431970000000 1.0
C      1  0.4973780000000  0.4481350000000  0.5393960000000 1.0
C      1  0.4978300000000  0.5763600000000  0.4958630000000 1.0
C      1  0.3953240000000  0.4714830000000  0.5493110000000 1.0
C      1  0.5932690000000  0.4768930000000  0.4514730000000 1.0
C      1  0.5244000000000  0.4311200000000  0.6046100000000 1.0
C      1  0.4107860000000  0.5005260000000  0.4711090000000 1.0
C      1  0.5230160000000  0.4812920000000  0.6006220000000 1.0
C      1  0.4892520000000  0.4802910000000  0.5084690000000 1.0
C      1  0.4011600000000  0.5610340000000  0.4536560000000 1.0
C      1  0.4991830000000  0.4002330000000  0.4359910000000 1.0
C      1  0.5260180000000  0.6098410000000  0.5484140000000 1.0
C      1  0.4158050000000  0.5500040000000  0.6183830000000 1.0
C      1  0.5992000000000  0.4699490000000  0.5194370000000 1.0
C      1  0.4421580000000  0.5128020000000  0.5904240000000 1.0
C      1  0.5510030000000  0.4278100000000  0.5969750000000 1.0
C      1  0.5133070000000  0.4566630000000  0.6101610000000 1.0
C      1  0.3995100000000  0.5524810000000  0.6401350000000 1.0
C      1  0.6088480000000  0.5172440000000  0.4817230000000 1.0
C      1  0.4568470000000  0.4101650000000  0.5442100000000 1.0
C      1  0.5390840000000  0.5886990000000  0.5619750000000 1.0
C      1  0.4401830000000  0.4451080000000  0.4304240000000 1.0
C      1  0.5299310000000  0.5005090000000  0.4582780000000 1.0
C      1  0.4026190000000  0.5695010000000  0.4803140000000 1.0
C      1  0.5234970000000  0.5638150000000  0.3979220000000 1.0
C      1  0.5041850000000  0.5786650000000  0.4091250000000 1.0
C      1  0.5126420000000  0.5065470000000  0.4150240000000 1.0
C      1  0.5352940000000  0.5736420000000  0.4616970000000 1.0
C      1  0.5282160000000  0.4754250000000  0.4693380000000 1.0
C      1  0.4056610000000  0.4263130000000  0.4955280000000 1.0
C      1  0.6687010000000  0.4781600000000  0.3412310000000 1.0
C      1  0.5531970000000  0.5016010000000  0.3875950000000 1.0
C      1  0.3864390000000  0.5151070000000  0.4617780000000 1.0
C      1  0.4609060000000  0.5140800000000  0.4074080000000 1.0
C      1  0.5315080000000  0.4887560000000  0.5740530000000 1.0
C      1  0.4764660000000  0.4688390000000  0.4658130000000 1.0
C      1  0.3715150000000  0.5191160000000  0.4863870000000 1.0
C      1  0.5267280000000  0.5466850000000  0.4653960000000 1.0
C      1  0.5748310000000  0.4962570000000  0.5525810000000 1.0
C      1  0.4643940000000  0.4972270000000  0.6002120000000 1.0
C      1  0.5335370000000  0.5292380000000  0.6065550000000 1.0
C      1  0.4836320000000  0.5067140000000  0.5161970000000 1.0
C      1  0.5578450000000  0.5221770000000  0.5932220000000 1.0
C      1  0.5429930000000  0.4438700000000  0.5044490000000 1.0
C      1  0.4156740000000  0.5108070000000  0.4985440000000 1.0
C      1  0.4734710000000  0.4063560000000  0.4317040000000 1.0
C      1  0.4440360000000  0.5272220000000  0.5655800000000 1.0
C      1  0.4211780000000  0.4538270000000  0.4518470000000 1.0
C      1  0.4626080000000  0.4196930000000  0.5722600000000 1.0
C      1  0.5554790000000  0.4904650000000  0.5083400000000 1.0
C      1  0.5864800000000  0.5625540000000  0.4755720000000 1.0
C      1  0.5447360000000  0.5482330000000  0.5397820000000 1.0
C      1  0.5090780000000  0.4698240000000  0.5258090000000 1.0
C      1  0.5345090000000  0.3928260000000  0.4723220000000 1.0
C      1  0.5151130000000  0.5063140000000  0.6125810000000 1.0
C      1  0.5790260000000  0.5498460000000  0.4484030000000 1.0
C      1  0.4437620000000  0.6018370000000  0.5669290000000 1.0
C      1  0.6549500000000  0.4774040000000  0.3633660000000 1.0
C      1  0.5365660000000  0.5179160000000  0.4030390000000 1.0
C      1  0.5776130000000  0.4866800000000  0.5262550000000 1.0
C      1  0.4243800000000  0.5788460000000  0.4928190000000 1.0
C      1  0.4513440000000  0.4641020000000  0.4120810000000 1.0
C      1  0.5452420000000  0.5232510000000  0.4645940000000 1.0
C      1  0.5804830000000  0.4516520000000  0.4579130000000 1.0
C      1  0.5176290000000  0.5527750000000  0.5989700000000 1.0
C      1  0.5911780000000  0.5031740000000  0.4636860000000 1.0
C      1  0.4226470000000  0.5713600000000  0.4383980000000 1.0
C      1  0.5089390000000  0.5124950000000  0.4424600000000 1.0
C      1  0.5164640000000  0.4085290000000  0.4561460000000 1.0
C      1  0.4774510000000  0.4103200000000  0.5162180000000 1.0
C      1  0.5277100000000  0.5749810000000  0.5845170000000 1.0
C      1  0.4871510000000  0.5142950000000  0.6082070000000 1.0
C      1  0.5694840000000  0.5797490000000  0.4939220000000 1.0
C      1  0.5067560000000  0.5524490000000  0.5095690000000 1.0
C      1  0.4466960000000  0.4602560000000  0.5575780000000 1.0
C      1  0.5438340000000  0.5457930000000  0.4069730000000 1.0
C      1  0.4249140000000  0.5727110000000  0.6040300000000 1.0
C      1  0.4244040000000  0.5246310000000  0.6091260000000 1.0
C      1  0.5677910000000  0.4268510000000  0.5489710000000 1.0
C      1  0.4457710000000  0.5372740000000  0.4140810000000 1.0
C      1  0.3950880000000  0.5317710000000  0.4163180000000 1.0
C      1  0.4823990000000  0.4063700000000  0.5874300000000 1.0
C      1  0.4505520000000  0.5888160000000  0.4948950000000 1.0
C      1  0.4700230000000  0.5735170000000  0.4490010000000 1.0
C      1  0.6059280000000  0.5440890000000  0.4874370000000 1.0
C      1  0.5449320000000  0.4693640000000  0.4922590000000 1.0
C      1  0.5104360000000  0.4320460000000  0.4708040000000 1.0
C      1  0.5805660000000  0.4263150000000  0.4721260000000 1.0
C      1  0.4297920000000  0.4073880000000  0.5366440000000 1.0
C      1  0.4895790000000  0.5836400000000  0.4309750000000 1.0
C      1  0.4936560000000  0.5126180000000  0.5419590000000 1.0
C      1  0.4659830000000  0.5221800000000  0.5007460000000 1.0
C      1  0.5290970000000  0.5374600000000  0.5193950000000 1.0
C      1  0.5587900000000  0.4334630000000  0.5249150000000 1.0
C      1  0.4397480000000  0.5778290000000  0.5806880000000 1.0
C      1  0.5664780000000  0.4256130000000  0.5754550000000 1.0
C      1  0.6107920000000  0.4757090000000  0.4293900000000 1.0
C      1  0.6409200000000  0.4766430000000  0.3858420000000 1.0
C      1  0.4268650000000  0.4803430000000  0.4598700000000 1.0
C      1  0.4206100000000  0.4339410000000  0.4732220000000 1.0
C      1  0.5164020000000  0.3803000000000  0.4921860000000 1.0
C      1  0.5051710000000  0.4604430000000  0.4270250000000 1.0
C      1  0.4391280000000  0.5193750000000  0.5114340000000 1.0
C      1  0.4539570000000  0.4474250000000  0.5824040000000 1.0
C      1  0.5395130000000  0.5134620000000  0.5098530000000 1.0
C      1  0.4549260000000  0.4862150000000  0.4579480000000 1.0
C      1  0.5058890000000  0.4104610000000  0.5995140000000 1.0
C      1  0.4972810000000  0.4823820000000  0.4102130000000 1.0
C      1  0.4507700000000  0.6109850000000  0.5427880000000 1.0
C      1  0.5573280000000  0.5015100000000  0.5735660000000 1.0
C      1  0.4753110000000  0.5281690000000  0.4737810000000 1.0
C      1  0.4107920000000  0.4147050000000  0.5192130000000 1.0
C      1  0.5197010000000  0.6123240000000  0.5222660000000 1.0
C      1  0.4597130000000  0.5134150000000  0.4557640000000 1.0
C      1  0.3897920000000  0.5365530000000  0.4436420000000 1.0
C      1  0.6079590000000  0.4468320000000  0.5090870000000 1.0
C      1  0.4188900000000  0.5349510000000  0.4039920000000 1.0
C      1  0.5192910000000  0.5961830000000  0.4992170000000 1.0
C      1  0.4740920000000  0.4597490000000  0.4934040000000 1.0
C      1  0.5004050000000  0.5342910000000  0.4605430000000 1.0
C      1  0.5623300000000  0.5592180000000  0.4259000000000 1.0
C      1  0.4544800000000  0.4229860000000  0.4434180000000 1.0
C      1  0.4378690000000  0.5189260000000  0.5397610000000 1.0
C      1  0.5560340000000  0.5733330000000  0.5443570000000 1.0
C      1  0.4913910000000  0.3853350000000  0.5037060000000 1.0
C      1  0.4647500000000  0.4307390000000  0.4946360000000 1.0
C      1  0.5182910000000  0.4312950000000  0.4990650000000 1.0
END
