TITL C-612607-4507-1464 0.657661051567475 125000 -268.123315260892 0 0 45 (C1) n - 1
REM
REM in /home/nfs/bkarasulu/CARBON/AIRSS/Generating-Clusters/TERSOFF/Only-C1/FIRE-HFTN
REM
REM
REM
REM
REM
REM ./C.cell (11c1c37f851c82e70ff6c80c92926a4b)
REM AIRSS Version 0.9.1 bugfix July 2018 build 013d7b7c2542+ Fri, 06 Jul 2018 19:26:36 +0100
REM compiler GCC version 9.2.1 20190827 (Red Hat 9.2.1-1)
REM options -cpp -mtune=generic -march=x86-64 -g -O0 -fpre-include=/usr/include/finclude/math-vector-fortran.h
REM seed -1644792804 1354324440 -1139173481 -480424335 -655080960 1400870632 774662747 2054328285 984272318 595550829 -350368824 -806652607 1754311066 -928401348 2126458108 -1987907089 1596433438 -714409739 -1067969157 -66364359 -953175849 -690101462 1495516956 -1448003163 2107306779 2058470406 333103237 -255586705 666318130 149400928 -408921565 -747088792 -1260569530
REM
CELL 1.54180   50.00000   50.00000   50.00000   90.00000   90.00000   90.00000
LATT -1
SFAC C  
C      1  0.5446870000000  0.4942180000000  0.4487450000000 1.0
C      1  0.4815210000000  0.5215550000000  0.5295650000000 1.0
C      1  0.4775780000000  0.4760010000000  0.4642520000000 1.0
C      1  0.4719730000000  0.4620040000000  0.4010790000000 1.0
C      1  0.5852210000000  0.5190740000000  0.4306450000000 1.0
C      1  0.4774510000000  0.5836650000000  0.4624640000000 1.0
C      1  0.5960960000000  0.5300010000000  0.4527830000000 1.0
C      1  0.4988850000000  0.4558840000000  0.5021340000000 1.0
C      1  0.4958930000000  0.5614150000000  0.5055200000000 1.0
C      1  0.4421000000000  0.5276400000000  0.5018340000000 1.0
C      1  0.4539670000000  0.4820690000000  0.5828560000000 1.0
C      1  0.4688750000000  0.5774280000000  0.4381140000000 1.0
C      1  0.5022390000000  0.5373090000000  0.5182010000000 1.0
C      1  0.6065380000000  0.5236050000000  0.5785090000000 1.0
C      1  0.5458900000000  0.4691610000000  0.4906520000000 1.0
C      1  0.4809820000000  0.5161800000000  0.5570510000000 1.0
C      1  0.4635160000000  0.5357160000000  0.4080810000000 1.0
C      1  0.6233640000000  0.5241440000000  0.5989830000000 1.0
C      1  0.4401960000000  0.4674690000000  0.5234390000000 1.0
C      1  0.5184020000000  0.4881470000000  0.4413760000000 1.0
C      1  0.4909300000000  0.4827040000000  0.4405590000000 1.0
C      1  0.4679220000000  0.5095650000000  0.4074370000000 1.0
C      1  0.4606070000000  0.5109580000000  0.5132180000000 1.0
C      1  0.3713400000000  0.3990080000000  0.5393850000000 1.0
C      1  0.4638140000000  0.5600600000000  0.4186690000000 1.0
C      1  0.5557060000000  0.5218160000000  0.5155890000000 1.0
C      1  0.5632090000000  0.5036150000000  0.4296940000000 1.0
C      1  0.3900880000000  0.4176140000000  0.5416060000000 1.0
C      1  0.6399140000000  0.5246740000000  0.6191190000000 1.0
C      1  0.5870420000000  0.5273150000000  0.4779810000000 1.0
C      1  0.5729610000000  0.5225280000000  0.5375340000000 1.0
C      1  0.5897170000000  0.5230660000000  0.5580410000000 1.0
C      1  0.3529010000000  0.3807080000000  0.5372010000000 1.0
C      1  0.4088230000000  0.4362070000000  0.5438240000000 1.0
C      1  0.4587480000000  0.4827820000000  0.5091480000000 1.0
C      1  0.4872620000000  0.5776370000000  0.4863870000000 1.0
C      1  0.4772110000000  0.4703120000000  0.4916800000000 1.0
C      1  0.4285370000000  0.4557330000000  0.5460920000000 1.0
C      1  0.4376360000000  0.4645390000000  0.5711310000000 1.0
C      1  0.5655030000000  0.5138360000000  0.4901440000000 1.0
C      1  0.5528720000000  0.4921800000000  0.4762250000000 1.0
C      1  0.5287540000000  0.5285310000000  0.5187440000000 1.0
C      1  0.4767490000000  0.4844250000000  0.4159790000000 1.0
C      1  0.5255370000000  0.4555970000000  0.5012110000000 1.0
C      1  0.4708430000000  0.5019070000000  0.5771170000000 1.0
END
