TITL C-612601-4209-1377 63833.7585150968 125000 -1032.34712698791 0 0 167 (C1) n - 1
REM
REM in /home/nfs/bkarasulu/CARBON/AIRSS/Generating-Clusters/TERSOFF/Only-C1/FIRE-HFTN
REM
REM
REM
REM
REM
REM ./C.cell (11c1c37f851c82e70ff6c80c92926a4b)
REM AIRSS Version 0.9.1 bugfix July 2018 build 013d7b7c2542+ Fri, 06 Jul 2018 19:26:36 +0100
REM compiler GCC version 9.2.1 20190827 (Red Hat 9.2.1-1)
REM options -cpp -mtune=generic -march=x86-64 -g -O0 -fpre-include=/usr/include/finclude/math-vector-fortran.h
REM seed -1368217928 -462334199 354265433 -258655482 -885560890 -2135398247 1187496783 -49305228 -2121643030 -1042127472 -1487778961 1170893706 1461779279 2136753240 164007491 112654486 62234571 -568592122 -1293069410 2006593779 815495898 1224556252 -1219065521 1531626568 326660101 -1387497377 -1080236942 -928246366 60855741 823862485 -1144184621 -1539633800 1268520992
REM
CELL 1.54180   50.00000   50.00000   50.00000   90.00000   90.00000   90.00000
LATT -1
SFAC C  
C      1  0.5105440000000  0.4337590000000  0.5776730000000 1.0
C      1  0.5949250000000  0.5076060000000  0.4897150000000 1.0
C      1  0.5618390000000  0.4147210000000  0.5154860000000 1.0
C      1  0.4041620000000  0.4777990000000  0.5282470000000 1.0
C      1  0.5528440000000  0.5310160000000  0.4191910000000 1.0
C      1  0.5024640000000  0.5729000000000  0.4829590000000 1.0
C      1  0.4671170000000  0.4722700000000  0.4857880000000 1.0
C      1  0.4290430000000  0.5179320000000  0.4121530000000 1.0
C      1  0.5101940000000  0.5422870000000  0.4432670000000 1.0
C      1  0.4338900000000  0.5464060000000  0.4144460000000 1.0
C      1  0.5931820000000  0.4050580000000  0.4603650000000 1.0
C      1  0.5278520000000  0.3949650000000  0.4768930000000 1.0
C      1  0.4960090000000  0.5015160000000  0.3818430000000 1.0
C      1  0.5721440000000  0.4674140000000  0.4282140000000 1.0
C      1  0.5726800000000  0.5134180000000  0.4276720000000 1.0
C      1  0.3973300000000  0.5335760000000  0.5475530000000 1.0
C      1  0.5088790000000  0.3800930000000  0.4924820000000 1.0
C      1  0.5967510000000  0.5081670000000  0.4428700000000 1.0
C      1  0.4235880000000  0.5676180000000  0.5698200000000 1.0
C      1  0.5364030000000  0.4915340000000  0.4526870000000 1.0
C      1  0.6001470000000  0.5232390000000  0.4668320000000 1.0
C      1  0.5346820000000  0.5121720000000  0.4717230000000 1.0
C      1  0.5436350000000  0.5747480000000  0.4111990000000 1.0
C      1  0.5971220000000  0.4644270000000  0.5337370000000 1.0
C      1  0.6116120000000  0.5341980000000  0.5244520000000 1.0
C      1  0.3817890000000  0.4300040000000  0.4631160000000 1.0
C      1  0.5106170000000  0.5212490000000  0.4838820000000 1.0
C      1  0.4907280000000  0.4451610000000  0.5970790000000 1.0
C      1  0.4666660000000  0.4921620000000  0.5643230000000 1.0
C      1  0.5866910000000  0.4270630000000  0.5038110000000 1.0
C      1  0.3974360000000  0.4199030000000  0.5272150000000 1.0
C      1  0.4773300000000  0.5493140000000  0.6207180000000 1.0
C      1  0.5961500000000  0.5519570000000  0.4728280000000 1.0
C      1  0.5587320000000  0.4522800000000  0.4087090000000 1.0
C      1  0.5829090000000  0.5690190000000  0.4512490000000 1.0
C      1  0.5653340000000  0.5766830000000  0.4300880000000 1.0
C      1  0.4386770000000  0.4227230000000  0.5035960000000 1.0
C      1  0.3524390000000  0.4066840000000  0.4262780000000 1.0
C      1  0.5994040000000  0.5547530000000  0.5076200000000 1.0
C      1  0.4975220000000  0.5070300000000  0.6140480000000 1.0
C      1  0.5414590000000  0.5020040000000  0.5393160000000 1.0
C      1  0.5721250000000  0.4637150000000  0.5471970000000 1.0
C      1  0.4157710000000  0.6055390000000  0.4828580000000 1.0
C      1  0.4227070000000  0.4192960000000  0.5720920000000 1.0
C      1  0.5752200000000  0.4954360000000  0.5824090000000 1.0
C      1  0.5021450000000  0.4323050000000  0.4156990000000 1.0
C      1  0.4092820000000  0.4846320000000  0.5016750000000 1.0
C      1  0.3667280000000  0.4182940000000  0.4447350000000 1.0
C      1  0.4660400000000  0.4919250000000  0.4411740000000 1.0
C      1  0.5342220000000  0.5273570000000  0.3969860000000 1.0
C      1  0.5026600000000  0.5450890000000  0.4695850000000 1.0
C      1  0.4594460000000  0.4872170000000  0.5916080000000 1.0
C      1  0.5206230000000  0.4641090000000  0.5428670000000 1.0
C      1  0.5113740000000  0.5163810000000  0.5531050000000 1.0
C      1  0.4507460000000  0.4065120000000  0.4852760000000 1.0
C      1  0.4484600000000  0.5175770000000  0.4912170000000 1.0
C      1  0.6303420000000  0.4485670000000  0.5034410000000 1.0
C      1  0.5121150000000  0.5313550000000  0.5108830000000 1.0
C      1  0.4512540000000  0.4805900000000  0.4633820000000 1.0
C      1  0.4967170000000  0.6255610000000  0.5362240000000 1.0
C      1  0.4707310000000  0.5211040000000  0.6188720000000 1.0
C      1  0.4822460000000  0.5163020000000  0.5592730000000 1.0
C      1  0.4460140000000  0.5311040000000  0.4648850000000 1.0
C      1  0.5015120000000  0.4556290000000  0.4570470000000 1.0
C      1  0.5569390000000  0.4903140000000  0.4341390000000 1.0
C      1  0.5487020000000  0.4146710000000  0.5429340000000 1.0
C      1  0.5028280000000  0.5726610000000  0.5838360000000 1.0
C      1  0.5036780000000  0.4786900000000  0.6062430000000 1.0
C      1  0.5670010000000  0.5418160000000  0.5702350000000 1.0
C      1  0.4873240000000  0.5949870000000  0.4360030000000 1.0
C      1  0.5352110000000  0.4660160000000  0.3951960000000 1.0
C      1  0.4662220000000  0.5213590000000  0.4427000000000 1.0
C      1  0.4519610000000  0.4607910000000  0.4043530000000 1.0
C      1  0.4698320000000  0.5148110000000  0.5092000000000 1.0
C      1  0.4470740000000  0.4339880000000  0.5736310000000 1.0
C      1  0.5554830000000  0.5158910000000  0.5198240000000 1.0
C      1  0.5409630000000  0.4130960000000  0.4951540000000 1.0
C      1  0.4223100000000  0.5092970000000  0.4987240000000 1.0
C      1  0.5017790000000  0.4453990000000  0.5032470000000 1.0
C      1  0.4470560000000  0.4769900000000  0.5502080000000 1.0
C      1  0.4103410000000  0.5675570000000  0.4575370000000 1.0
C      1  0.5468970000000  0.4746280000000  0.5383170000000 1.0
C      1  0.5280780000000  0.4379760000000  0.4967610000000 1.0
C      1  0.5594380000000  0.4242560000000  0.4140190000000 1.0
C      1  0.4574430000000  0.5832270000000  0.4964130000000 1.0
C      1  0.4359600000000  0.5923880000000  0.5661680000000 1.0
C      1  0.5612650000000  0.4746690000000  0.4940250000000 1.0
C      1  0.5151630000000  0.4448920000000  0.3935570000000 1.0
C      1  0.5287700000000  0.3999760000000  0.4478750000000 1.0
C      1  0.4229240000000  0.4810630000000  0.4565430000000 1.0
C      1  0.5486090000000  0.5380990000000  0.4672440000000 1.0
C      1  0.5225040000000  0.4584750000000  0.5702480000000 1.0
C      1  0.4036860000000  0.4159030000000  0.5531760000000 1.0
C      1  0.5714780000000  0.4995540000000  0.5023690000000 1.0
C      1  0.5329310000000  0.5922760000000  0.5218430000000 1.0
C      1  0.5855150000000  0.5189170000000  0.5671300000000 1.0
C      1  0.4170060000000  0.5426620000000  0.4689010000000 1.0
C      1  0.4994840000000  0.4669910000000  0.5232150000000 1.0
C      1  0.3966310000000  0.5884300000000  0.4722190000000 1.0
C      1  0.4423050000000  0.5953510000000  0.4755580000000 1.0
C      1  0.5387990000000  0.5432910000000  0.4408890000000 1.0
C      1  0.4760190000000  0.6168750000000  0.5505970000000 1.0
C      1  0.3921960000000  0.5364260000000  0.5192610000000 1.0
C      1  0.5206910000000  0.5556830000000  0.3977270000000 1.0
C      1  0.4478720000000  0.5094960000000  0.6047490000000 1.0
C      1  0.3993910000000  0.4420380000000  0.4810530000000 1.0
C      1  0.5789580000000  0.4688960000000  0.5744210000000 1.0
C      1  0.5281130000000  0.4782860000000  0.5905900000000 1.0
C      1  0.5072790000000  0.4079900000000  0.4300750000000 1.0
C      1  0.5415360000000  0.4582840000000  0.4834450000000 1.0
C      1  0.4683510000000  0.5438440000000  0.5651870000000 1.0
C      1  0.4701490000000  0.5097910000000  0.3820130000000 1.0
C      1  0.5234580000000  0.4998130000000  0.3904260000000 1.0
C      1  0.5012430000000  0.3828640000000  0.5185340000000 1.0
C      1  0.5215400000000  0.4131470000000  0.5572050000000 1.0
C      1  0.6117040000000  0.4882290000000  0.5389370000000 1.0
C      1  0.5486850000000  0.4991980000000  0.5921060000000 1.0
C      1  0.4296650000000  0.5217790000000  0.5852420000000 1.0
C      1  0.5671500000000  0.5652100000000  0.5497240000000 1.0
C      1  0.4050920000000  0.5321640000000  0.4942290000000 1.0
C      1  0.5191120000000  0.6167020000000  0.5246720000000 1.0
C      1  0.4411660000000  0.5456660000000  0.5748400000000 1.0
C      1  0.5472120000000  0.5551950000000  0.4908000000000 1.0
C      1  0.5023490000000  0.5563450000000  0.6074970000000 1.0
C      1  0.4515840000000  0.4488330000000  0.5493560000000 1.0
C      1  0.4788740000000  0.4866970000000  0.5099820000000 1.0
C      1  0.4072030000000  0.4693710000000  0.4777950000000 1.0
C      1  0.4708920000000  0.4697840000000  0.4233370000000 1.0
C      1  0.5424400000000  0.5269750000000  0.5934390000000 1.0
C      1  0.6060590000000  0.4434760000000  0.5176610000000 1.0
C      1  0.4372120000000  0.4767860000000  0.3883860000000 1.0
C      1  0.5402580000000  0.5377550000000  0.5124730000000 1.0
C      1  0.6049070000000  0.5152570000000  0.5451400000000 1.0
C      1  0.3984310000000  0.5589010000000  0.5609970000000 1.0
C      1  0.6294910000000  0.4569960000000  0.4775280000000 1.0
C      1  0.4176140000000  0.4996730000000  0.4335530000000 1.0
C      1  0.5299000000000  0.5780950000000  0.4962730000000 1.0
C      1  0.4798290000000  0.5671230000000  0.5030050000000 1.0
C      1  0.5525520000000  0.4060780000000  0.4329350000000 1.0
C      1  0.5914940000000  0.4287930000000  0.4743150000000 1.0
C      1  0.4861030000000  0.4514700000000  0.4803530000000 1.0
C      1  0.4431840000000  0.5044540000000  0.3903220000000 1.0
C      1  0.4785650000000  0.5712900000000  0.5688940000000 1.0
C      1  0.4636860000000  0.4360500000000  0.5972750000000 1.0
C      1  0.4637150000000  0.5947450000000  0.5622180000000 1.0
C      1  0.4845720000000  0.5399470000000  0.5146050000000 1.0
C      1  0.5843350000000  0.5694500000000  0.5269960000000 1.0
C      1  0.4124030000000  0.5120280000000  0.5625870000000 1.0
C      1  0.5209200000000  0.5418790000000  0.5570780000000 1.0
C      1  0.5041590000000  0.3952330000000  0.5425320000000 1.0
C      1  0.4742310000000  0.5778520000000  0.4172200000000 1.0
C      1  0.5961610000000  0.4718640000000  0.4436800000000 1.0
C      1  0.4903180000000  0.4518270000000  0.4320190000000 1.0
C      1  0.6052210000000  0.4527700000000  0.4630320000000 1.0
C      1  0.5422730000000  0.5801910000000  0.5470650000000 1.0
C      1  0.4201520000000  0.4876100000000  0.5492710000000 1.0
C      1  0.5172320000000  0.5307640000000  0.6069630000000 1.0
C      1  0.5267890000000  0.4671770000000  0.4612130000000 1.0
C      1  0.5232590000000  0.5688370000000  0.5645090000000 1.0
C      1  0.4527710000000  0.4288000000000  0.6214600000000 1.0
C      1  0.4522780000000  0.4346710000000  0.5251320000000 1.0
C      1  0.4876220000000  0.5357550000000  0.4274460000000 1.0
C      1  0.4912110000000  0.5563570000000  0.4064210000000 1.0
C      1  0.4470700000000  0.5701630000000  0.4249520000000 1.0
C      1  0.4965100000000  0.5929150000000  0.4613580000000 1.0
C      1  0.4103800000000  0.4271190000000  0.5030310000000 1.0
C      1  0.4362140000000  0.5804820000000  0.4495940000000 1.0
END
