TITL C-612600-6631-1376 0.21795667272423 125000 -1112.41630594654 0 0 181 (C1) n - 1
REM
REM in /home/nfs/bkarasulu/CARBON/AIRSS/Generating-Clusters/TERSOFF/Only-C1/FIRE-HFTN
REM
REM
REM
REM
REM
REM ./C.cell (11c1c37f851c82e70ff6c80c92926a4b)
REM AIRSS Version 0.9.1 bugfix July 2018 build 013d7b7c2542+ Fri, 06 Jul 2018 19:26:36 +0100
REM compiler GCC version 9.2.1 20190827 (Red Hat 9.2.1-1)
REM options -cpp -mtune=generic -march=x86-64 -g -O0 -fpre-include=/usr/include/finclude/math-vector-fortran.h
REM seed -805670542 -1789660680 1467346042 -772105757 2062264675 1514968980 1328403193 -861502030 774813000 -337136083 1955122799 -1384913640 -1213177564 -875334399 2056867902 1102027049 -477132873 1931161807 -1856423530 -915601307 -2029210484 -488945212 -690048862 -665216627 -1838761817 56744362 -1940718908 685112039 -1153991996 1196299272 1259162933 -112253562 -987100534
REM
CELL 1.54180   50.00000   50.00000   50.00000   90.00000   90.00000   90.00000
LATT -1
SFAC C  
C      1  0.5281330000000  0.4653420000000  0.4805360000000 1.0
C      1  0.6124940000000  0.5228190000000  0.4924270000000 1.0
C      1  0.6082910000000  0.5000170000000  0.4482580000000 1.0
C      1  0.4074690000000  0.4175660000000  0.4605890000000 1.0
C      1  0.4416900000000  0.5354040000000  0.5715090000000 1.0
C      1  0.4990610000000  0.5582850000000  0.6171220000000 1.0
C      1  0.4688560000000  0.4986400000000  0.4263860000000 1.0
C      1  0.4867950000000  0.6247650000000  0.4799960000000 1.0
C      1  0.4428400000000  0.5477700000000  0.4176860000000 1.0
C      1  0.5540000000000  0.4038040000000  0.5442320000000 1.0
C      1  0.4690730000000  0.5457500000000  0.4594990000000 1.0
C      1  0.5582150000000  0.4698660000000  0.5691400000000 1.0
C      1  0.4070400000000  0.4332040000000  0.4355530000000 1.0
C      1  0.4675330000000  0.6000520000000  0.5500380000000 1.0
C      1  0.4471690000000  0.5798200000000  0.5452050000000 1.0
C      1  0.4637370000000  0.4026820000000  0.4298680000000 1.0
C      1  0.3727760000000  0.5077160000000  0.5423170000000 1.0
C      1  0.4034640000000  0.5855460000000  0.4573530000000 1.0
C      1  0.5810950000000  0.4860170000000  0.5758240000000 1.0
C      1  0.4017340000000  0.5578890000000  0.4528300000000 1.0
C      1  0.6025060000000  0.4909150000000  0.5581470000000 1.0
C      1  0.5871370000000  0.4388710000000  0.5417500000000 1.0
C      1  0.5339010000000  0.4876680000000  0.4970590000000 1.0
C      1  0.5941850000000  0.4302010000000  0.4726350000000 1.0
C      1  0.4908170000000  0.4868170000000  0.5146910000000 1.0
C      1  0.4748580000000  0.5463590000000  0.5101320000000 1.0
C      1  0.6098630000000  0.5267520000000  0.4616360000000 1.0
C      1  0.4138700000000  0.5478280000000  0.4283220000000 1.0
C      1  0.3799660000000  0.5260910000000  0.5215580000000 1.0
C      1  0.5358310000000  0.4772430000000  0.6311990000000 1.0
C      1  0.4907150000000  0.4430370000000  0.4340740000000 1.0
C      1  0.5353720000000  0.5751400000000  0.5740710000000 1.0
C      1  0.5075430000000  0.4057770000000  0.4081980000000 1.0
C      1  0.4920250000000  0.4994560000000  0.6273720000000 1.0
C      1  0.5475290000000  0.3966030000000  0.4948120000000 1.0
C      1  0.5996840000000  0.4296700000000  0.5181020000000 1.0
C      1  0.5650430000000  0.3936190000000  0.5180620000000 1.0
C      1  0.4391350000000  0.4945330000000  0.6174830000000 1.0
C      1  0.3485990000000  0.5165750000000  0.4853650000000 1.0
C      1  0.5345830000000  0.4817700000000  0.5598540000000 1.0
C      1  0.4177630000000  0.5076990000000  0.4011000000000 1.0
C      1  0.5925070000000  0.4017160000000  0.5140510000000 1.0
C      1  0.5339940000000  0.4436180000000  0.5329620000000 1.0
C      1  0.4041800000000  0.4797630000000  0.4055700000000 1.0
C      1  0.5299860000000  0.5975290000000  0.5191000000000 1.0
C      1  0.5803790000000  0.4352280000000  0.4300430000000 1.0
C      1  0.4913430000000  0.5102020000000  0.4391220000000 1.0
C      1  0.4222450000000  0.4689950000000  0.4711650000000 1.0
C      1  0.4706670000000  0.4776540000000  0.4978730000000 1.0
C      1  0.5363760000000  0.5242170000000  0.6196370000000 1.0
C      1  0.5073760000000  0.5224870000000  0.4824900000000 1.0
C      1  0.5798810000000  0.6001790000000  0.5304600000000 1.0
C      1  0.5186270000000  0.5227200000000  0.3441780000000 1.0
C      1  0.4446550000000  0.4228560000000  0.5269310000000 1.0
C      1  0.5149670000000  0.5952290000000  0.5765490000000 1.0
C      1  0.5115570000000  0.4476750000000  0.4927510000000 1.0
C      1  0.4992820000000  0.6156030000000  0.4583480000000 1.0
C      1  0.4917440000000  0.4748290000000  0.5399440000000 1.0
C      1  0.5273710000000  0.5542330000000  0.5565890000000 1.0
C      1  0.4322850000000  0.5607160000000  0.5615560000000 1.0
C      1  0.3836270000000  0.4137690000000  0.4738950000000 1.0
C      1  0.4449290000000  0.5398000000000  0.4732190000000 1.0
C      1  0.4148780000000  0.4941720000000  0.6053780000000 1.0
C      1  0.4854350000000  0.4182190000000  0.4208230000000 1.0
C      1  0.5579960000000  0.5021480000000  0.4952050000000 1.0
C      1  0.5086610000000  0.5268570000000  0.4184180000000 1.0
C      1  0.4271470000000  0.4956080000000  0.4801960000000 1.0
C      1  0.3880870000000  0.5421470000000  0.4730680000000 1.0
C      1  0.6042560000000  0.4740840000000  0.4904780000000 1.0
C      1  0.3817120000000  0.4989870000000  0.5664860000000 1.0
C      1  0.4679330000000  0.5091440000000  0.3992160000000 1.0
C      1  0.3686840000000  0.4828610000000  0.6094790000000 1.0
C      1  0.4468710000000  0.4088220000000  0.4987790000000 1.0
C      1  0.5055510000000  0.5207450000000  0.3671240000000 1.0
C      1  0.4138040000000  0.4593560000000  0.4242060000000 1.0
C      1  0.5943420000000  0.5492600000000  0.4503590000000 1.0
C      1  0.5916990000000  0.4864800000000  0.4679230000000 1.0
C      1  0.4301340000000  0.4717610000000  0.4434830000000 1.0
C      1  0.5956130000000  0.4568670000000  0.4222460000000 1.0
C      1  0.6081420000000  0.4811380000000  0.4263630000000 1.0
C      1  0.5942150000000  0.5362370000000  0.5105890000000 1.0
C      1  0.4339750000000  0.4507630000000  0.4898390000000 1.0
C      1  0.4943590000000  0.5187120000000  0.3923320000000 1.0
C      1  0.5595590000000  0.5702030000000  0.5886800000000 1.0
C      1  0.4766870000000  0.4400860000000  0.5651390000000 1.0
C      1  0.6020830000000  0.4396690000000  0.5646670000000 1.0
C      1  0.3732790000000  0.5144590000000  0.4139890000000 1.0
C      1  0.5716150000000  0.5437610000000  0.5851530000000 1.0
C      1  0.5059360000000  0.4416670000000  0.5713830000000 1.0
C      1  0.5202300000000  0.4307970000000  0.5125350000000 1.0
C      1  0.5118150000000  0.5995200000000  0.4412290000000 1.0
C      1  0.4453790000000  0.5478920000000  0.5034420000000 1.0
C      1  0.3759340000000  0.4875700000000  0.4079910000000 1.0
C      1  0.4300300000000  0.4762380000000  0.5368710000000 1.0
C      1  0.5083030000000  0.3907370000000  0.5594930000000 1.0
C      1  0.5205760000000  0.5007360000000  0.6273840000000 1.0
C      1  0.4430060000000  0.5232260000000  0.3989990000000 1.0
C      1  0.5205620000000  0.4047820000000  0.5026390000000 1.0
C      1  0.5536730000000  0.4022230000000  0.4655780000000 1.0
C      1  0.5592180000000  0.4330220000000  0.5413190000000 1.0
C      1  0.5215850000000  0.5747130000000  0.4311710000000 1.0
C      1  0.5306940000000  0.5373760000000  0.4751150000000 1.0
C      1  0.5789450000000  0.5424480000000  0.4020650000000 1.0
C      1  0.4347720000000  0.5149030000000  0.4612330000000 1.0
C      1  0.5646420000000  0.5859390000000  0.4562170000000 1.0
C      1  0.4829280000000  0.3954960000000  0.5506170000000 1.0
C      1  0.5294830000000  0.3959370000000  0.4206580000000 1.0
C      1  0.4996560000000  0.5548390000000  0.5496590000000 1.0
C      1  0.4874550000000  0.5403640000000  0.5714510000000 1.0
C      1  0.4653620000000  0.4964880000000  0.6239300000000 1.0
C      1  0.4318420000000  0.4052740000000  0.4718410000000 1.0
C      1  0.5250810000000  0.4725680000000  0.4095730000000 1.0
C      1  0.4977860000000  0.5137850000000  0.5729940000000 1.0
C      1  0.5333410000000  0.4621290000000  0.4535230000000 1.0
C      1  0.5880500000000  0.5737830000000  0.4650420000000 1.0
C      1  0.4829680000000  0.5534870000000  0.5960940000000 1.0
C      1  0.5313570000000  0.5618250000000  0.4881630000000 1.0
C      1  0.5728090000000  0.4945540000000  0.6028680000000 1.0
C      1  0.5336310000000  0.4033630000000  0.5656520000000 1.0
C      1  0.5065110000000  0.3888800000000  0.4619430000000 1.0
C      1  0.4400900000000  0.5755220000000  0.5166380000000 1.0
C      1  0.5543640000000  0.6065120000000  0.5255870000000 1.0
C      1  0.4698810000000  0.6192660000000  0.5292470000000 1.0
C      1  0.3725980000000  0.5285860000000  0.4935280000000 1.0
C      1  0.4658090000000  0.4502180000000  0.4840220000000 1.0
C      1  0.5439480000000  0.4923220000000  0.4191440000000 1.0
C      1  0.6018960000000  0.4457080000000  0.4947130000000 1.0
C      1  0.5373710000000  0.5284050000000  0.5522360000000 1.0
C      1  0.5511610000000  0.5708530000000  0.4346930000000 1.0
C      1  0.4892670000000  0.6001730000000  0.5687820000000 1.0
C      1  0.5741680000000  0.5516530000000  0.4272010000000 1.0
C      1  0.5976030000000  0.5522260000000  0.5354280000000 1.0
C      1  0.4740800000000  0.4517650000000  0.4549640000000 1.0
C      1  0.4027910000000  0.5405640000000  0.5293380000000 1.0
C      1  0.4316590000000  0.4499670000000  0.5207730000000 1.0
C      1  0.5104920000000  0.5023910000000  0.5021290000000 1.0
C      1  0.4657270000000  0.4185000000000  0.5484720000000 1.0
C      1  0.4471830000000  0.4937140000000  0.4997790000000 1.0
C      1  0.4465800000000  0.4814200000000  0.5599180000000 1.0
C      1  0.5171440000000  0.5746370000000  0.5088720000000 1.0
C      1  0.5531840000000  0.4801660000000  0.4444540000000 1.0
C      1  0.5456560000000  0.5267520000000  0.2992630000000 1.0
C      1  0.5322310000000  0.5247470000000  0.3215210000000 1.0
C      1  0.4055010000000  0.5579130000000  0.5514410000000 1.0
C      1  0.5819730000000  0.5394500000000  0.5572910000000 1.0
C      1  0.5693670000000  0.5203030000000  0.5140350000000 1.0
C      1  0.5155140000000  0.4558510000000  0.4312760000000 1.0
C      1  0.5622250000000  0.5250120000000  0.5413550000000 1.0
C      1  0.5230420000000  0.5486170000000  0.6245280000000 1.0
C      1  0.5642790000000  0.4994750000000  0.4653540000000 1.0
C      1  0.5233850000000  0.5069170000000  0.5632280000000 1.0
C      1  0.4273040000000  0.5295270000000  0.5200320000000 1.0
C      1  0.5712570000000  0.5891190000000  0.6045680000000 1.0
C      1  0.4878210000000  0.5244250000000  0.4630780000000 1.0
C      1  0.4690900000000  0.5557170000000  0.4316580000000 1.0
C      1  0.3986700000000  0.5277950000000  0.4137890000000 1.0
C      1  0.5310160000000  0.4293910000000  0.5821590000000 1.0
C      1  0.4451850000000  0.5084440000000  0.5699880000000 1.0
C      1  0.5975090000000  0.5803110000000  0.5339510000000 1.0
C      1  0.5618650000000  0.5218880000000  0.6043370000000 1.0
C      1  0.6154180000000  0.4932690000000  0.5344800000000 1.0
C      1  0.6161760000000  0.4955890000000  0.5059170000000 1.0
C      1  0.4445270000000  0.4965810000000  0.4400770000000 1.0
C      1  0.5167350000000  0.4615140000000  0.5493840000000 1.0
C      1  0.5363480000000  0.5189300000000  0.4272450000000 1.0
C      1  0.4972420000000  0.4011830000000  0.4857470000000 1.0
C      1  0.4996880000000  0.5558930000000  0.4240190000000 1.0
C      1  0.5510840000000  0.4511240000000  0.5911510000000 1.0
C      1  0.5568090000000  0.4699910000000  0.6138200000000 1.0
C      1  0.4077640000000  0.6107290000000  0.4625000000000 1.0
C      1  0.4703270000000  0.4671330000000  0.5576920000000 1.0
C      1  0.3271130000000  0.5046150000000  0.4767390000000 1.0
C      1  0.5317500000000  0.3932540000000  0.4485980000000 1.0
C      1  0.4332320000000  0.5018050000000  0.5227050000000 1.0
C      1  0.5746020000000  0.4204560000000  0.4546320000000 1.0
C      1  0.4958810000000  0.5602030000000  0.5223110000000 1.0
C      1  0.4766640000000  0.6266210000000  0.5045490000000 1.0
C      1  0.4739260000000  0.4191880000000  0.4900160000000 1.0
C      1  0.3889660000000  0.4922640000000  0.5933460000000 1.0
C      1  0.4483480000000  0.3952790000000  0.4505340000000 1.0
C      1  0.5468670000000  0.5244600000000  0.4550570000000 1.0
END
