TITL C-612604-1799-1229 0.369203793193762 125000 -413.404667796114 0 0 70 (C1) n - 1
REM
REM in /home/nfs/bkarasulu/CARBON/AIRSS/Generating-Clusters/TERSOFF/Only-C1/FIRE-HFTN
REM
REM
REM
REM
REM
REM ./C.cell (11c1c37f851c82e70ff6c80c92926a4b)
REM AIRSS Version 0.9.1 bugfix July 2018 build 013d7b7c2542+ Fri, 06 Jul 2018 19:26:36 +0100
REM compiler GCC version 9.2.1 20190827 (Red Hat 9.2.1-1)
REM options -cpp -mtune=generic -march=x86-64 -g -O0 -fpre-include=/usr/include/finclude/math-vector-fortran.h
REM seed -822195313 -1200066633 1264321699 388394440 -789401455 -1369844837 -791186174 470712048 196625108 1894434580 1185571792 -1686264908 396410344 -529393285 1651066392 1106818165 -1659271651 1711096971 -1325119349 -262266988 877073311 -1241439762 279178875 -269529167 1942591536 1785438528 642327850 -421632479 -16147153 -1827838264 -1791833756 725533857 -367961719
REM
CELL 1.54180   50.00000   50.00000   50.00000   90.00000   90.00000   90.00000
LATT -1
SFAC C  
C      1  0.5407900000000  0.5264950000000  0.5294570000000 1.0
C      1  0.4569740000000  0.4620180000000  0.5062920000000 1.0
C      1  0.5429310000000  0.5125250000000  0.5555840000000 1.0
C      1  0.5711350000000  0.4987950000000  0.4595490000000 1.0
C      1  0.4847260000000  0.5132900000000  0.4241890000000 1.0
C      1  0.4776120000000  0.6457770000000  0.5466510000000 1.0
C      1  0.5311630000000  0.4632790000000  0.4548060000000 1.0
C      1  0.4900360000000  0.4402920000000  0.4461490000000 1.0
C      1  0.4664400000000  0.6469300000000  0.5011640000000 1.0
C      1  0.4833800000000  0.6189390000000  0.5372480000000 1.0
C      1  0.5572250000000  0.4744690000000  0.4527750000000 1.0
C      1  0.5242780000000  0.4559570000000  0.4810730000000 1.0
C      1  0.4581440000000  0.6553520000000  0.4768400000000 1.0
C      1  0.4931730000000  0.5973200000000  0.5511990000000 1.0
C      1  0.5385400000000  0.4355100000000  0.5505250000000 1.0
C      1  0.5257650000000  0.5145050000000  0.4558410000000 1.0
C      1  0.4412430000000  0.5048260000000  0.4489910000000 1.0
C      1  0.5338490000000  0.5504450000000  0.3923900000000 1.0
C      1  0.4947190000000  0.5568990000000  0.4487290000000 1.0
C      1  0.5691150000000  0.5094040000000  0.4861940000000 1.0
C      1  0.4812040000000  0.5299360000000  0.5494540000000 1.0
C      1  0.4492890000000  0.4330800000000  0.4733790000000 1.0
C      1  0.3862590000000  0.3957640000000  0.5245260000000 1.0
C      1  0.5075480000000  0.4634050000000  0.5017770000000 1.0
C      1  0.4787780000000  0.5056680000000  0.5351010000000 1.0
C      1  0.4775600000000  0.4249000000000  0.4677440000000 1.0
C      1  0.4723330000000  0.4397880000000  0.5512480000000 1.0
C      1  0.5149150000000  0.5722860000000  0.5859590000000 1.0
C      1  0.5047510000000  0.4135750000000  0.5160850000000 1.0
C      1  0.4961090000000  0.4836080000000  0.5429140000000 1.0
C      1  0.5533110000000  0.5093430000000  0.5095910000000 1.0
C      1  0.5257290000000  0.5392070000000  0.4162990000000 1.0
C      1  0.4302230000000  0.4268590000000  0.5250250000000 1.0
C      1  0.4537820000000  0.4874880000000  0.4946470000000 1.0
C      1  0.4426900000000  0.4845540000000  0.4680370000000 1.0
C      1  0.5182920000000  0.4780690000000  0.5234810000000 1.0
C      1  0.4446920000000  0.4327410000000  0.5494150000000 1.0
C      1  0.4831940000000  0.4529350000000  0.5090010000000 1.0
C      1  0.5462180000000  0.4827130000000  0.5182040000000 1.0
C      1  0.4761730000000  0.6205200000000  0.5089750000000 1.0
C      1  0.4570760000000  0.5140320000000  0.4295580000000 1.0
C      1  0.5031150000000  0.5732340000000  0.5613060000000 1.0
C      1  0.4075060000000  0.4108470000000  0.5249670000000 1.0
C      1  0.4856650000000  0.4315970000000  0.5277940000000 1.0
C      1  0.4679690000000  0.6617070000000  0.5260990000000 1.0
C      1  0.5685950000000  0.5184390000000  0.4388570000000 1.0
C      1  0.5013940000000  0.5618370000000  0.4748800000000 1.0
C      1  0.5070320000000  0.4627290000000  0.4383890000000 1.0
C      1  0.4857370000000  0.4752140000000  0.6145370000000 1.0
C      1  0.5038260000000  0.5448130000000  0.4977950000000 1.0
C      1  0.4401850000000  0.4570140000000  0.4590950000000 1.0
C      1  0.5416010000000  0.5609550000000  0.3698390000000 1.0
C      1  0.5662010000000  0.4631570000000  0.5165940000000 1.0
C      1  0.4971360000000  0.4867430000000  0.4253860000000 1.0
C      1  0.5182130000000  0.5442930000000  0.5232320000000 1.0
C      1  0.4986780000000  0.5390110000000  0.4262620000000 1.0
C      1  0.4842950000000  0.4641590000000  0.5617610000000 1.0
C      1  0.5432160000000  0.4594580000000  0.5632070000000 1.0
C      1  0.4408670000000  0.4385130000000  0.5012590000000 1.0
C      1  0.4914090000000  0.5195780000000  0.4915400000000 1.0
C      1  0.6067650000000  0.4314950000000  0.5058770000000 1.0
C      1  0.5055150000000  0.5068590000000  0.4712940000000 1.0
C      1  0.5447010000000  0.4868570000000  0.5657690000000 1.0
C      1  0.5418470000000  0.5259820000000  0.4351610000000 1.0
C      1  0.5008890000000  0.5499380000000  0.5456200000000 1.0
C      1  0.5288210000000  0.4176930000000  0.5318420000000 1.0
C      1  0.4844030000000  0.4693210000000  0.5891900000000 1.0
C      1  0.4948360000000  0.4106790000000  0.4879020000000 1.0
C      1  0.5869080000000  0.4473940000000  0.5115600000000 1.0
C      1  0.4713160000000  0.5069900000000  0.5069170000000 1.0
END
