TITL C-612603-7354-11 -61.0074569372146 125000 -1201.46124445494 0 0 195 (C1) n - 1
REM
REM in /home/nfs/bkarasulu/CARBON/AIRSS/Generating-Clusters/TERSOFF/Only-C1/FIRE-HFTN
REM
REM
REM
REM
REM
REM ./C.cell (11c1c37f851c82e70ff6c80c92926a4b)
REM AIRSS Version 0.9.1 bugfix July 2018 build 013d7b7c2542+ Fri, 06 Jul 2018 19:26:36 +0100
REM compiler GCC version 9.2.1 20190827 (Red Hat 9.2.1-1)
REM options -cpp -mtune=generic -march=x86-64 -g -O0 -fpre-include=/usr/include/finclude/math-vector-fortran.h
REM seed -802429879 35084166 -1773603782 1657147066 -306008941 561431767 2047751102 -2029070151 1183521774 -1653174294 -1876243766 1235858898 -1951784778 -854389338 1476423061 -667766449 -1981243362 -2114752011 -473669007 1660633720 -1521664517 -220180997 -335036341 2093030232 2057673337 1478055520 -1479037467 -1017529951 1571594144 -548511498 1676881156 -741375120 290376056
REM
CELL 1.54180   50.00000   50.00000   50.00000   90.00000   90.00000   90.00000
LATT -1
SFAC C  
C      1  0.4436700000000  0.4505610000000  0.3703500000000 1.0
C      1  0.5727070000000  0.5247110000000  0.5258390000000 1.0
C      1  0.4179700000000  0.5074700000000  0.4759300000000 1.0
C      1  0.4682050000000  0.5020550000000  0.4053990000000 1.0
C      1  0.4767250000000  0.5371290000000  0.4638490000000 1.0
C      1  0.4977510000000  0.4284380000000  0.5107230000000 1.0
C      1  0.4560600000000  0.5278240000000  0.6101030000000 1.0
C      1  0.5292490000000  0.5939450000000  0.5517880000000 1.0
C      1  0.5451990000000  0.4636180000000  0.4606860000000 1.0
C      1  0.4512910000000  0.4090670000000  0.4251610000000 1.0
C      1  0.6081310000000  0.4891680000000  0.5236350000000 1.0
C      1  0.4794090000000  0.4121360000000  0.4282330000000 1.0
C      1  0.5997060000000  0.4364810000000  0.4183380000000 1.0
C      1  0.5801910000000  0.4980280000000  0.3990820000000 1.0
C      1  0.4867530000000  0.5788670000000  0.4172020000000 1.0
C      1  0.5336460000000  0.5054400000000  0.4786340000000 1.0
C      1  0.4866520000000  0.5244980000000  0.5661310000000 1.0
C      1  0.4434910000000  0.5715080000000  0.4475830000000 1.0
C      1  0.5262780000000  0.3835940000000  0.4785440000000 1.0
C      1  0.5180950000000  0.5682270000000  0.5892540000000 1.0
C      1  0.6115180000000  0.4466060000000  0.5010960000000 1.0
C      1  0.5030120000000  0.3906720000000  0.5700180000000 1.0
C      1  0.5647390000000  0.4137010000000  0.4458650000000 1.0
C      1  0.4655130000000  0.4531730000000  0.5741640000000 1.0
C      1  0.4381530000000  0.4937620000000  0.5232050000000 1.0
C      1  0.4823190000000  0.5046290000000  0.5248240000000 1.0
C      1  0.5997600000000  0.5473360000000  0.4751520000000 1.0
C      1  0.4294830000000  0.6016010000000  0.4832030000000 1.0
C      1  0.5358300000000  0.5897500000000  0.5810430000000 1.0
C      1  0.5083860000000  0.5065300000000  0.4882740000000 1.0
C      1  0.4744710000000  0.4139150000000  0.4742960000000 1.0
C      1  0.5573680000000  0.4884980000000  0.4740270000000 1.0
C      1  0.4775520000000  0.4588780000000  0.4190250000000 1.0
C      1  0.4364770000000  0.5402430000000  0.5361580000000 1.0
C      1  0.4247650000000  0.3775040000000  0.5288110000000 1.0
C      1  0.4410500000000  0.5463360000000  0.5067650000000 1.0
C      1  0.5742580000000  0.5087740000000  0.4594110000000 1.0
C      1  0.5294510000000  0.3916500000000  0.5555820000000 1.0
C      1  0.5411830000000  0.5608570000000  0.5052780000000 1.0
C      1  0.5239150000000  0.4356620000000  0.4268800000000 1.0
C      1  0.4890500000000  0.4020980000000  0.4529810000000 1.0
C      1  0.3953370000000  0.5015260000000  0.4922190000000 1.0
C      1  0.5844010000000  0.5019030000000  0.5860490000000 1.0
C      1  0.5557860000000  0.4418470000000  0.5267540000000 1.0
C      1  0.4862320000000  0.4802710000000  0.5404950000000 1.0
C      1  0.5169510000000  0.3955680000000  0.4547290000000 1.0
C      1  0.5606680000000  0.5295450000000  0.4455880000000 1.0
C      1  0.4987590000000  0.4587790000000  0.4755250000000 1.0
C      1  0.5757810000000  0.5838990000000  0.5519200000000 1.0
C      1  0.3905710000000  0.4534530000000  0.4747720000000 1.0
C      1  0.5524020000000  0.5031410000000  0.4004890000000 1.0
C      1  0.4599260000000  0.5028140000000  0.5073640000000 1.0
C      1  0.5829150000000  0.5003800000000  0.5170960000000 1.0
C      1  0.4483460000000  0.4622570000000  0.4190000000000 1.0
C      1  0.4152900000000  0.3826720000000  0.4782130000000 1.0
C      1  0.5656820000000  0.4832550000000  0.5026480000000 1.0
C      1  0.3929780000000  0.4891030000000  0.5414950000000 1.0
C      1  0.4373160000000  0.4671680000000  0.3918270000000 1.0
C      1  0.4031140000000  0.4739840000000  0.4331270000000 1.0
C      1  0.4141030000000  0.4274190000000  0.5072890000000 1.0
C      1  0.5965660000000  0.5677020000000  0.6145780000000 1.0
C      1  0.6136540000000  0.4880080000000  0.4745180000000 1.0
C      1  0.3940160000000  0.4669620000000  0.5230140000000 1.0
C      1  0.4640910000000  0.4850340000000  0.6376800000000 1.0
C      1  0.5311520000000  0.6105910000000  0.4967250000000 1.0
C      1  0.4284190000000  0.4092680000000  0.4395470000000 1.0
C      1  0.4946240000000  0.4069270000000  0.5288160000000 1.0
C      1  0.4274000000000  0.5468580000000  0.4501490000000 1.0
C      1  0.5267300000000  0.6082860000000  0.4690580000000 1.0
C      1  0.4886590000000  0.4841830000000  0.4137050000000 1.0
C      1  0.5261180000000  0.4495220000000  0.4774400000000 1.0
C      1  0.5646220000000  0.5814360000000  0.5805190000000 1.0
C      1  0.4543990000000  0.5184050000000  0.4237800000000 1.0
C      1  0.5313470000000  0.5268630000000  0.6141380000000 1.0
C      1  0.5114560000000  0.5690400000000  0.5428680000000 1.0
C      1  0.4511720000000  0.4344470000000  0.3512950000000 1.0
C      1  0.4372680000000  0.4882070000000  0.4649880000000 1.0
C      1  0.5437240000000  0.5879500000000  0.4571300000000 1.0
C      1  0.5357550000000  0.4122360000000  0.4402950000000 1.0
C      1  0.4244210000000  0.5144450000000  0.3760700000000 1.0
C      1  0.5533160000000  0.5454930000000  0.6143060000000 1.0
C      1  0.5500560000000  0.4681410000000  0.5203840000000 1.0
C      1  0.4866370000000  0.6077580000000  0.5140120000000 1.0
C      1  0.5404520000000  0.4595020000000  0.4319010000000 1.0
C      1  0.5121430000000  0.4506340000000  0.5689880000000 1.0
C      1  0.5958010000000  0.4604380000000  0.5651810000000 1.0
C      1  0.4189490000000  0.4895040000000  0.3890070000000 1.0
C      1  0.4319710000000  0.5406630000000  0.3790550000000 1.0
C      1  0.4790650000000  0.4388860000000  0.4897790000000 1.0
C      1  0.4313060000000  0.4729020000000  0.4409030000000 1.0
C      1  0.4854080000000  0.6376450000000  0.5854000000000 1.0
C      1  0.4524110000000  0.4095360000000  0.5614240000000 1.0
C      1  0.4661390000000  0.5964750000000  0.5560980000000 1.0
C      1  0.5536450000000  0.5951610000000  0.5362210000000 1.0
C      1  0.5894850000000  0.5239870000000  0.5717270000000 1.0
C      1  0.5060870000000  0.5301670000000  0.6279960000000 1.0
C      1  0.4447750000000  0.5800250000000  0.4742240000000 1.0
C      1  0.4364560000000  0.5506760000000  0.5642240000000 1.0
C      1  0.4569830000000  0.5674320000000  0.4966010000000 1.0
C      1  0.5067820000000  0.5200090000000  0.5158330000000 1.0
C      1  0.4905130000000  0.4861030000000  0.4775080000000 1.0
C      1  0.4383070000000  0.5291190000000  0.5857870000000 1.0
C      1  0.5981760000000  0.4402220000000  0.4754900000000 1.0
C      1  0.5242010000000  0.4285910000000  0.4971230000000 1.0
C      1  0.5318710000000  0.4638430000000  0.6131450000000 1.0
C      1  0.5321820000000  0.4328700000000  0.5763460000000 1.0
C      1  0.5375430000000  0.4828760000000  0.4153740000000 1.0
C      1  0.4823930000000  0.5730000000000  0.5520830000000 1.0
C      1  0.5287290000000  0.5114400000000  0.5900990000000 1.0
C      1  0.3914260000000  0.5174680000000  0.5172790000000 1.0
C      1  0.5989720000000  0.4841630000000  0.4122980000000 1.0
C      1  0.3984230000000  0.4875110000000  0.4086290000000 1.0
C      1  0.4908430000000  0.4539160000000  0.5876230000000 1.0
C      1  0.4976340000000  0.5337550000000  0.4211450000000 1.0
C      1  0.5927970000000  0.5645950000000  0.5381760000000 1.0
C      1  0.5791580000000  0.4737500000000  0.5855720000000 1.0
C      1  0.4854920000000  0.4696630000000  0.6333020000000 1.0
C      1  0.3943180000000  0.5496980000000  0.5134610000000 1.0
C      1  0.4089650000000  0.4827600000000  0.5671400000000 1.0
C      1  0.5121660000000  0.5415470000000  0.3976110000000 1.0
C      1  0.5323940000000  0.4822160000000  0.5367740000000 1.0
C      1  0.4430250000000  0.4632230000000  0.5256150000000 1.0
C      1  0.5159210000000  0.5515210000000  0.5171390000000 1.0
C      1  0.5719400000000  0.5864620000000  0.4573690000000 1.0
C      1  0.5470370000000  0.4130790000000  0.5632370000000 1.0
C      1  0.4141660000000  0.4072290000000  0.4639040000000 1.0
C      1  0.6009500000000  0.5155150000000  0.4701820000000 1.0
C      1  0.5569840000000  0.4653110000000  0.6020770000000 1.0
C      1  0.5230210000000  0.5501670000000  0.5653580000000 1.0
C      1  0.4394840000000  0.5985080000000  0.5469180000000 1.0
C      1  0.5718500000000  0.5646390000000  0.6030270000000 1.0
C      1  0.5027500000000  0.4614760000000  0.6129200000000 1.0
C      1  0.4757380000000  0.5839180000000  0.5086180000000 1.0
C      1  0.4083290000000  0.5820380000000  0.5088750000000 1.0
C      1  0.4178280000000  0.5937430000000  0.5319360000000 1.0
C      1  0.4943070000000  0.4358060000000  0.4209390000000 1.0
C      1  0.4986150000000  0.6067750000000  0.4589170000000 1.0
C      1  0.3591610000000  0.4536670000000  0.4378140000000 1.0
C      1  0.3883240000000  0.4737010000000  0.4954320000000 1.0
C      1  0.5391620000000  0.5779670000000  0.4005450000000 1.0
C      1  0.4904340000000  0.5608420000000  0.5967680000000 1.0
C      1  0.5095980000000  0.6212980000000  0.5112630000000 1.0
C      1  0.4575560000000  0.4576070000000  0.4981810000000 1.0
C      1  0.5170590000000  0.5213010000000  0.5646230000000 1.0
C      1  0.5657860000000  0.4054160000000  0.4941710000000 1.0
C      1  0.4269980000000  0.5057410000000  0.5705130000000 1.0
C      1  0.5253560000000  0.5659700000000  0.4495930000000 1.0
C      1  0.5748660000000  0.5491100000000  0.4297300000000 1.0
C      1  0.4998430000000  0.5817940000000  0.4432950000000 1.0
C      1  0.4311690000000  0.5346760000000  0.4245290000000 1.0
C      1  0.4822690000000  0.5414430000000  0.6159990000000 1.0
C      1  0.4381670000000  0.5548830000000  0.4032310000000 1.0
C      1  0.4640510000000  0.4644000000000  0.5475070000000 1.0
C      1  0.4764340000000  0.6177330000000  0.5711850000000 1.0
C      1  0.6094140000000  0.4334090000000  0.5263820000000 1.0
C      1  0.4319780000000  0.5124590000000  0.5422450000000 1.0
C      1  0.4510220000000  0.5062300000000  0.6279190000000 1.0
C      1  0.3835370000000  0.4602760000000  0.4481770000000 1.0
C      1  0.4165800000000  0.4492370000000  0.5246930000000 1.0
C      1  0.5217410000000  0.3927630000000  0.5274130000000 1.0
C      1  0.4187770000000  0.4546960000000  0.5743210000000 1.0
C      1  0.5934570000000  0.4351520000000  0.5507220000000 1.0
C      1  0.5367240000000  0.4002760000000  0.5012640000000 1.0
C      1  0.4263760000000  0.5343320000000  0.4763480000000 1.0
C      1  0.4809320000000  0.4031090000000  0.5547280000000 1.0
C      1  0.4425870000000  0.4352920000000  0.5741700000000 1.0
C      1  0.4609900000000  0.4851820000000  0.4832280000000 1.0
C      1  0.5669110000000  0.4252520000000  0.5469690000000 1.0
C      1  0.4565330000000  0.5736990000000  0.4193290000000 1.0
C      1  0.5130740000000  0.4932480000000  0.4243660000000 1.0
C      1  0.5109530000000  0.4682610000000  0.5474280000000 1.0
C      1  0.5641950000000  0.5441720000000  0.5058860000000 1.0
C      1  0.6185340000000  0.4753970000000  0.5010600000000 1.0
C      1  0.5334790000000  0.5374230000000  0.4483300000000 1.0
C      1  0.6053840000000  0.4639420000000  0.4577230000000 1.0
C      1  0.5159840000000  0.5185610000000  0.4365720000000 1.0
C      1  0.5411820000000  0.5307390000000  0.3963610000000 1.0
C      1  0.6117210000000  0.4791300000000  0.5498260000000 1.0
C      1  0.5898890000000  0.5578580000000  0.5024110000000 1.0
C      1  0.4337570000000  0.3916770000000  0.5496200000000 1.0
C      1  0.5100620000000  0.5710840000000  0.3986700000000 1.0
C      1  0.4748320000000  0.5325130000000  0.4372320000000 1.0
C      1  0.5260060000000  0.5097110000000  0.5383200000000 1.0
C      1  0.5824410000000  0.4166780000000  0.4239710000000 1.0
C      1  0.5887690000000  0.5638410000000  0.4514560000000 1.0
C      1  0.4478240000000  0.6234890000000  0.4764060000000 1.0
C      1  0.4052870000000  0.4291450000000  0.4802400000000 1.0
C      1  0.5870940000000  0.5376390000000  0.5475280000000 1.0
C      1  0.5580300000000  0.5550820000000  0.4058710000000 1.0
C      1  0.4192480000000  0.3731980000000  0.5029950000000 1.0
C      1  0.4789150000000  0.5520830000000  0.5713780000000 1.0
C      1  0.6039230000000  0.4622390000000  0.4291980000000 1.0
C      1  0.4739190000000  0.6208690000000  0.4659380000000 1.0
C      1  0.5773460000000  0.4195570000000  0.4719500000000 1.0
C      1  0.5464560000000  0.5897020000000  0.5092850000000 1.0
END
