TITL C-612601-4209-387 -2981.34910868744 125000 -885.807243840147 0 0 145 (C1) n - 1
REM
REM in /home/nfs/bkarasulu/CARBON/AIRSS/Generating-Clusters/TERSOFF/Only-C1/FIRE-HFTN
REM
REM
REM
REM
REM
REM ./C.cell (11c1c37f851c82e70ff6c80c92926a4b)
REM AIRSS Version 0.9.1 bugfix July 2018 build 013d7b7c2542+ Fri, 06 Jul 2018 19:26:36 +0100
REM compiler GCC version 9.2.1 20190827 (Red Hat 9.2.1-1)
REM options -cpp -mtune=generic -march=x86-64 -g -O0 -fpre-include=/usr/include/finclude/math-vector-fortran.h
REM seed 182529718 -1890734255 2089008268 1634232476 1820701867 1939843538 -242959240 1537968608 421052889 684990769 1446919396 408452671 2078342316 645793802 -545851705 1499868795 -123761538 -1895241071 -629318814 -854632849 -1529429737 1856634557 1025082105 -1464780897 1346559663 1445860578 2003217044 -1141592903 548114815 925360523 -1367872439 146318113 -845560883
REM
CELL 1.54180   50.00000   50.00000   50.00000   90.00000   90.00000   90.00000
LATT -1
SFAC C  
C      1  0.4752990000000  0.5566600000000  0.4196180000000 1.0
C      1  0.4057810000000  0.4993310000000  0.4235890000000 1.0
C      1  0.4335130000000  0.4203880000000  0.4794810000000 1.0
C      1  0.5641170000000  0.4476340000000  0.4946380000000 1.0
C      1  0.3803640000000  0.4387440000000  0.4825700000000 1.0
C      1  0.4715700000000  0.4491430000000  0.4483140000000 1.0
C      1  0.6212400000000  0.5786390000000  0.4911070000000 1.0
C      1  0.5447980000000  0.4406510000000  0.5600810000000 1.0
C      1  0.4572780000000  0.5695330000000  0.4384620000000 1.0
C      1  0.5309440000000  0.5348330000000  0.4928310000000 1.0
C      1  0.5771310000000  0.5109630000000  0.5372170000000 1.0
C      1  0.3887190000000  0.4832520000000  0.4918950000000 1.0
C      1  0.4400700000000  0.4585610000000  0.5106820000000 1.0
C      1  0.5276590000000  0.4589020000000  0.5465550000000 1.0
C      1  0.4226420000000  0.4362840000000  0.4571740000000 1.0
C      1  0.5083640000000  0.4867000000000  0.4861070000000 1.0
C      1  0.5498560000000  0.4913010000000  0.4107100000000 1.0
C      1  0.4558090000000  0.4025730000000  0.4742850000000 1.0
C      1  0.4467710000000  0.5796330000000  0.4870370000000 1.0
C      1  0.5512450000000  0.5255590000000  0.4419630000000 1.0
C      1  0.4915580000000  0.4963670000000  0.3917720000000 1.0
C      1  0.3938900000000  0.5319790000000  0.4590740000000 1.0
C      1  0.6055960000000  0.4655840000000  0.4699740000000 1.0
C      1  0.4308710000000  0.4316930000000  0.5056310000000 1.0
C      1  0.5763290000000  0.4261120000000  0.4782000000000 1.0
C      1  0.5642760000000  0.5526740000000  0.4494600000000 1.0
C      1  0.5939030000000  0.5221670000000  0.6011700000000 1.0
C      1  0.5124170000000  0.5914860000000  0.4933640000000 1.0
C      1  0.5477020000000  0.5079570000000  0.5282520000000 1.0
C      1  0.3770700000000  0.4587450000000  0.5016180000000 1.0
C      1  0.5514440000000  0.5159340000000  0.4987830000000 1.0
C      1  0.5914050000000  0.4833320000000  0.4878020000000 1.0
C      1  0.5421180000000  0.5663740000000  0.5655490000000 1.0
C      1  0.5098630000000  0.3973590000000  0.4663120000000 1.0
C      1  0.5459490000000  0.5186340000000  0.6060260000000 1.0
C      1  0.4730190000000  0.5234810000000  0.5574180000000 1.0
C      1  0.4968000000000  0.5613080000000  0.5374230000000 1.0
C      1  0.5309730000000  0.3908780000000  0.4856420000000 1.0
C      1  0.4023520000000  0.5559000000000  0.5048550000000 1.0
C      1  0.4981990000000  0.4841260000000  0.6340480000000 1.0
C      1  0.5400540000000  0.5291760000000  0.6314350000000 1.0
C      1  0.5676540000000  0.4508040000000  0.5738910000000 1.0
C      1  0.5044360000000  0.5291650000000  0.5020740000000 1.0
C      1  0.5717610000000  0.4451590000000  0.6275750000000 1.0
C      1  0.4500800000000  0.5199730000000  0.3887420000000 1.0
C      1  0.5157480000000  0.5062180000000  0.5683270000000 1.0
C      1  0.5783480000000  0.5401060000000  0.5435150000000 1.0
C      1  0.4450660000000  0.5482500000000  0.5275770000000 1.0
C      1  0.4921130000000  0.5969690000000  0.4715720000000 1.0
C      1  0.4448620000000  0.4418250000000  0.4400280000000 1.0
C      1  0.5020730000000  0.5816500000000  0.5180330000000 1.0
C      1  0.5855320000000  0.4667630000000  0.5590890000000 1.0
C      1  0.5283050000000  0.5224710000000  0.5479400000000 1.0
C      1  0.5460090000000  0.5702650000000  0.4631820000000 1.0
C      1  0.4990260000000  0.4357440000000  0.4085740000000 1.0
C      1  0.4484030000000  0.4392570000000  0.5648190000000 1.0
C      1  0.4720040000000  0.5377430000000  0.3969820000000 1.0
C      1  0.5264520000000  0.4119910000000  0.4478280000000 1.0
C      1  0.5026050000000  0.4990880000000  0.4611200000000 1.0
C      1  0.6451180000000  0.5857620000000  0.4987360000000 1.0
C      1  0.4663090000000  0.4872810000000  0.3860020000000 1.0
C      1  0.5809130000000  0.4679930000000  0.5099930000000 1.0
C      1  0.5955380000000  0.5707760000000  0.4838550000000 1.0
C      1  0.5857300000000  0.4822780000000  0.5355370000000 1.0
C      1  0.5179540000000  0.5344330000000  0.4099900000000 1.0
C      1  0.5154000000000  0.5693640000000  0.6361100000000 1.0
C      1  0.4768990000000  0.4148230000000  0.5345810000000 1.0
C      1  0.5650780000000  0.5453480000000  0.5700760000000 1.0
C      1  0.5012130000000  0.5499320000000  0.4591910000000 1.0
C      1  0.4982260000000  0.6185250000000  0.4550610000000 1.0
C      1  0.4380660000000  0.5281110000000  0.4733870000000 1.0
C      1  0.5727290000000  0.5663970000000  0.5276180000000 1.0
C      1  0.5721190000000  0.5033880000000  0.4804620000000 1.0
C      1  0.4923740000000  0.5019150000000  0.6533380000000 1.0
C      1  0.5420120000000  0.4555790000000  0.4771280000000 1.0
C      1  0.4656760000000  0.5829870000000  0.4649900000000 1.0
C      1  0.5126580000000  0.4837940000000  0.6114600000000 1.0
C      1  0.4805680000000  0.4740930000000  0.5553960000000 1.0
C      1  0.3987050000000  0.5407050000000  0.5297010000000 1.0
C      1  0.5174590000000  0.4607040000000  0.4889890000000 1.0
C      1  0.5585690000000  0.4799460000000  0.4363940000000 1.0
C      1  0.4303640000000  0.5588900000000  0.4352050000000 1.0
C      1  0.4883920000000  0.5004590000000  0.5625840000000 1.0
C      1  0.4970840000000  0.5238090000000  0.3928750000000 1.0
C      1  0.4361020000000  0.4750500000000  0.5345100000000 1.0
C      1  0.4300420000000  0.4146780000000  0.5282210000000 1.0
C      1  0.5386270000000  0.3936640000000  0.5371280000000 1.0
C      1  0.4963850000000  0.4428140000000  0.4957840000000 1.0
C      1  0.4314750000000  0.4907110000000  0.4260240000000 1.0
C      1  0.4473010000000  0.4918930000000  0.4497860000000 1.0
C      1  0.5423110000000  0.4132970000000  0.5547000000000 1.0
C      1  0.5572330000000  0.4076700000000  0.4682750000000 1.0
C      1  0.5687680000000  0.5285980000000  0.5924900000000 1.0
C      1  0.5672830000000  0.5025380000000  0.4525780000000 1.0
C      1  0.4960620000000  0.5021910000000  0.5062490000000 1.0
C      1  0.4241850000000  0.5267830000000  0.5334170000000 1.0
C      1  0.4774020000000  0.4931940000000  0.4478470000000 1.0
C      1  0.5194960000000  0.5430620000000  0.6449330000000 1.0
C      1  0.4307450000000  0.5000310000000  0.4731790000000 1.0
C      1  0.3884280000000  0.4795950000000  0.4620820000000 1.0
C      1  0.5340760000000  0.3854200000000  0.5122540000000 1.0
C      1  0.3965360000000  0.4493860000000  0.4600850000000 1.0
C      1  0.5388550000000  0.4797830000000  0.5318800000000 1.0
C      1  0.5209950000000  0.5503530000000  0.5500330000000 1.0
C      1  0.5246390000000  0.4361480000000  0.4332190000000 1.0
C      1  0.3768850000000  0.5399990000000  0.5457650000000 1.0
C      1  0.5707990000000  0.4452960000000  0.6536260000000 1.0
C      1  0.4856190000000  0.5408570000000  0.4820550000000 1.0
C      1  0.3901910000000  0.5045100000000  0.4470410000000 1.0
C      1  0.5014200000000  0.5501010000000  0.4306120000000 1.0
C      1  0.4709230000000  0.5467860000000  0.5408570000000 1.0
C      1  0.4592290000000  0.4710650000000  0.4934870000000 1.0
C      1  0.5213440000000  0.5823780000000  0.6134670000000 1.0
C      1  0.4747300000000  0.4516860000000  0.4780260000000 1.0
C      1  0.5564940000000  0.5831080000000  0.5452320000000 1.0
C      1  0.4736810000000  0.4524260000000  0.3921390000000 1.0
C      1  0.4201570000000  0.5528850000000  0.4092410000000 1.0
C      1  0.5904700000000  0.5568030000000  0.4594250000000 1.0
C      1  0.4140540000000  0.4949980000000  0.4972640000000 1.0
C      1  0.4315420000000  0.5649160000000  0.5062680000000 1.0
C      1  0.5444810000000  0.5208790000000  0.4124240000000 1.0
C      1  0.4212510000000  0.5420660000000  0.4557520000000 1.0
C      1  0.5726300000000  0.5766090000000  0.5007880000000 1.0
C      1  0.5262120000000  0.5526250000000  0.4711690000000 1.0
C      1  0.4621860000000  0.5264110000000  0.4870830000000 1.0
C      1  0.4857830000000  0.4700400000000  0.4324090000000 1.0
C      1  0.5264690000000  0.5013480000000  0.5941220000000 1.0
C      1  0.5712830000000  0.4462460000000  0.6011080000000 1.0
C      1  0.5426130000000  0.4572800000000  0.4471810000000 1.0
C      1  0.5298950000000  0.4746210000000  0.4005770000000 1.0
C      1  0.4512260000000  0.4171960000000  0.5468510000000 1.0
C      1  0.4241050000000  0.4994100000000  0.5246660000000 1.0
C      1  0.5037600000000  0.4787930000000  0.4101470000000 1.0
C      1  0.4253630000000  0.5330060000000  0.3913460000000 1.0
C      1  0.4528920000000  0.4661330000000  0.5559960000000 1.0
C      1  0.5234400000000  0.5144790000000  0.4518420000000 1.0
C      1  0.5997180000000  0.4387150000000  0.4667440000000 1.0
C      1  0.4920110000000  0.4360760000000  0.5235710000000 1.0
C      1  0.4678400000000  0.4993260000000  0.4994700000000 1.0
C      1  0.5319440000000  0.5803800000000  0.5891020000000 1.0
C      1  0.5477800000000  0.5868190000000  0.4869950000000 1.0
C      1  0.4817660000000  0.3960430000000  0.4693810000000 1.0
C      1  0.3859370000000  0.5466610000000  0.4828080000000 1.0
C      1  0.4997150000000  0.4558170000000  0.5433240000000 1.0
C      1  0.5006310000000  0.5270690000000  0.6583110000000 1.0
END
