TITL C-612603-7354-1234 981.823031965096 125000 -901.354262388514 0 0 152 (C1) n - 1
REM
REM in /home/nfs/bkarasulu/CARBON/AIRSS/Generating-Clusters/TERSOFF/Only-C1/FIRE-HFTN
REM
REM
REM
REM
REM
REM ./C.cell (11c1c37f851c82e70ff6c80c92926a4b)
REM AIRSS Version 0.9.1 bugfix July 2018 build 013d7b7c2542+ Fri, 06 Jul 2018 19:26:36 +0100
REM compiler GCC version 9.2.1 20190827 (Red Hat 9.2.1-1)
REM options -cpp -mtune=generic -march=x86-64 -g -O0 -fpre-include=/usr/include/finclude/math-vector-fortran.h
REM seed -30592859 -1033391090 -1279501076 1421470723 -703453898 717041323 471706155 -720638082 227913587 1581442017 -1712313260 -452269391 1751404811 1690410746 1082611959 -477296348 1861813256 116267148 -758513801 -988517035 -650250007 -1599598418 -827235878 -1553250592 682124264 1560484438 -1172832141 -734419579 -13562975 -1591838487 574710830 -1809405521 -1184034875
REM
CELL 1.54180   50.00000   50.00000   50.00000   90.00000   90.00000   90.00000
LATT -1
SFAC C  
C      1  0.4879770000000  0.5963880000000  0.4419700000000 1.0
C      1  0.5417520000000  0.4350300000000  0.4727350000000 1.0
C      1  0.5979210000000  0.5130850000000  0.5010470000000 1.0
C      1  0.5702910000000  0.4829170000000  0.4617930000000 1.0
C      1  0.5160980000000  0.5967880000000  0.4461670000000 1.0
C      1  0.4176600000000  0.5421130000000  0.4669890000000 1.0
C      1  0.4700780000000  0.4694190000000  0.5069090000000 1.0
C      1  0.4456170000000  0.5871940000000  0.4749570000000 1.0
C      1  0.4956380000000  0.5130450000000  0.6159480000000 1.0
C      1  0.4515820000000  0.4970720000000  0.6738450000000 1.0
C      1  0.4096340000000  0.4838830000000  0.4707380000000 1.0
C      1  0.4960700000000  0.4576850000000  0.5031240000000 1.0
C      1  0.4238560000000  0.4289570000000  0.5322760000000 1.0
C      1  0.4083040000000  0.5492930000000  0.5142520000000 1.0
C      1  0.4549900000000  0.4944940000000  0.5996370000000 1.0
C      1  0.4804120000000  0.5570930000000  0.5895440000000 1.0
C      1  0.5702350000000  0.4003480000000  0.5297990000000 1.0
C      1  0.5055770000000  0.4894970000000  0.3886290000000 1.0
C      1  0.5487300000000  0.5281020000000  0.5301660000000 1.0
C      1  0.5761620000000  0.4937750000000  0.5070570000000 1.0
C      1  0.5225240000000  0.4491060000000  0.5121000000000 1.0
C      1  0.5100710000000  0.5916110000000  0.5698820000000 1.0
C      1  0.4075590000000  0.5297730000000  0.4923150000000 1.0
C      1  0.4064760000000  0.5509930000000  0.5811010000000 1.0
C      1  0.4056020000000  0.5054220000000  0.5603510000000 1.0
C      1  0.4750190000000  0.5200110000000  0.4027330000000 1.0
C      1  0.4909350000000  0.3934970000000  0.5375500000000 1.0
C      1  0.4578210000000  0.5107850000000  0.4851950000000 1.0
C      1  0.5246840000000  0.4187380000000  0.5179520000000 1.0
C      1  0.4359050000000  0.4749270000000  0.4639070000000 1.0
C      1  0.5029270000000  0.6171740000000  0.4888370000000 1.0
C      1  0.5410790000000  0.4282890000000  0.4205940000000 1.0
C      1  0.4604190000000  0.4995680000000  0.6494570000000 1.0
C      1  0.5101620000000  0.4143020000000  0.5447820000000 1.0
C      1  0.5834290000000  0.5443420000000  0.4429120000000 1.0
C      1  0.5101740000000  0.4930020000000  0.6007900000000 1.0
C      1  0.4895220000000  0.4885320000000  0.4383000000000 1.0
C      1  0.4694720000000  0.5793100000000  0.5448960000000 1.0
C      1  0.3945250000000  0.4833930000000  0.5724150000000 1.0
C      1  0.4320770000000  0.5537740000000  0.5878780000000 1.0
C      1  0.5529670000000  0.3901590000000  0.4847450000000 1.0
C      1  0.5105440000000  0.4312330000000  0.4209450000000 1.0
C      1  0.6118370000000  0.5128480000000  0.4761430000000 1.0
C      1  0.4696350000000  0.5020770000000  0.6234660000000 1.0
C      1  0.5449670000000  0.5267980000000  0.4569340000000 1.0
C      1  0.4219400000000  0.5714190000000  0.4677290000000 1.0
C      1  0.5717330000000  0.5295650000000  0.6001070000000 1.0
C      1  0.4616080000000  0.4383760000000  0.4299590000000 1.0
C      1  0.5682180000000  0.5759210000000  0.4503960000000 1.0
C      1  0.4548150000000  0.4828300000000  0.4847680000000 1.0
C      1  0.5533710000000  0.5764130000000  0.5852660000000 1.0
C      1  0.4498110000000  0.5276130000000  0.5068030000000 1.0
C      1  0.4600990000000  0.5566300000000  0.4261720000000 1.0
C      1  0.5357010000000  0.5351190000000  0.4840270000000 1.0
C      1  0.5501960000000  0.5023620000000  0.5168820000000 1.0
C      1  0.5510000000000  0.6146850000000  0.4731430000000 1.0
C      1  0.5309310000000  0.5623560000000  0.4115320000000 1.0
C      1  0.4786130000000  0.6129910000000  0.4999120000000 1.0
C      1  0.5135790000000  0.5532690000000  0.4769720000000 1.0
C      1  0.6020720000000  0.5144650000000  0.4496090000000 1.0
C      1  0.5695770000000  0.5929930000000  0.4736440000000 1.0
C      1  0.5232570000000  0.6121250000000  0.4695860000000 1.0
C      1  0.5973770000000  0.5394520000000  0.5118570000000 1.0
C      1  0.5891790000000  0.4453890000000  0.4827120000000 1.0
C      1  0.4795080000000  0.4024790000000  0.5115430000000 1.0
C      1  0.5001280000000  0.4752640000000  0.4604490000000 1.0
C      1  0.3957450000000  0.5305630000000  0.5676810000000 1.0
C      1  0.5584680000000  0.4524150000000  0.4200350000000 1.0
C      1  0.4773900000000  0.4859500000000  0.4113370000000 1.0
C      1  0.4798580000000  0.5070020000000  0.5331440000000 1.0
C      1  0.5502150000000  0.4037490000000  0.4336650000000 1.0
C      1  0.5649000000000  0.5549680000000  0.5960330000000 1.0
C      1  0.5122380000000  0.4355230000000  0.5637840000000 1.0
C      1  0.5516560000000  0.6018840000000  0.5442730000000 1.0
C      1  0.4320550000000  0.5078130000000  0.4257240000000 1.0
C      1  0.4476440000000  0.4841740000000  0.4192750000000 1.0
C      1  0.5002110000000  0.4144280000000  0.4437090000000 1.0
C      1  0.4668280000000  0.4546170000000  0.5548190000000 1.0
C      1  0.4935150000000  0.4573510000000  0.5645510000000 1.0
C      1  0.4278660000000  0.4291530000000  0.5613170000000 1.0
C      1  0.4853970000000  0.4481610000000  0.4139560000000 1.0
C      1  0.5724470000000  0.4700090000000  0.4893580000000 1.0
C      1  0.5489810000000  0.5405490000000  0.4108510000000 1.0
C      1  0.6153590000000  0.4403860000000  0.4896290000000 1.0
C      1  0.4908890000000  0.5405500000000  0.4669390000000 1.0
C      1  0.4245710000000  0.5021680000000  0.5393610000000 1.0
C      1  0.4624220000000  0.4412340000000  0.4738250000000 1.0
C      1  0.5362270000000  0.4391960000000  0.5780550000000 1.0
C      1  0.4846480000000  0.5788410000000  0.5702440000000 1.0
C      1  0.5446280000000  0.4556600000000  0.4947630000000 1.0
C      1  0.5907480000000  0.4879060000000  0.4415270000000 1.0
C      1  0.4539280000000  0.5980590000000  0.5012770000000 1.0
C      1  0.5237330000000  0.4876960000000  0.4702600000000 1.0
C      1  0.4925760000000  0.4493820000000  0.4740570000000 1.0
C      1  0.5442500000000  0.4853350000000  0.4515780000000 1.0
C      1  0.4502020000000  0.5127200000000  0.5311650000000 1.0
C      1  0.5342280000000  0.5329330000000  0.5529450000000 1.0
C      1  0.4295470000000  0.4105100000000  0.5099650000000 1.0
C      1  0.4549900000000  0.3987860000000  0.4980440000000 1.0
C      1  0.4703800000000  0.4112530000000  0.4438830000000 1.0
C      1  0.4439440000000  0.4687920000000  0.5937020000000 1.0
C      1  0.5053490000000  0.5123850000000  0.3719010000000 1.0
C      1  0.4624220000000  0.5139280000000  0.5788880000000 1.0
C      1  0.5601810000000  0.5321520000000  0.4347760000000 1.0
C      1  0.4659730000000  0.5504080000000  0.5081680000000 1.0
C      1  0.5556880000000  0.4547080000000  0.5875740000000 1.0
C      1  0.4764040000000  0.5472970000000  0.4443730000000 1.0
C      1  0.4938930000000  0.5339480000000  0.3873210000000 1.0
C      1  0.4592340000000  0.3960300000000  0.4676790000000 1.0
C      1  0.5858930000000  0.4648130000000  0.4228340000000 1.0
C      1  0.5102870000000  0.5274930000000  0.5628580000000 1.0
C      1  0.4442150000000  0.4622090000000  0.4379790000000 1.0
C      1  0.6402600000000  0.4368660000000  0.4964510000000 1.0
C      1  0.4273350000000  0.4578030000000  0.5242550000000 1.0
C      1  0.5369890000000  0.5803910000000  0.4336150000000 1.0
C      1  0.4058680000000  0.4992110000000  0.4948590000000 1.0
C      1  0.4364430000000  0.4325720000000  0.4707710000000 1.0
C      1  0.4636460000000  0.5947950000000  0.4537550000000 1.0
C      1  0.5381970000000  0.5913330000000  0.5667890000000 1.0
C      1  0.4824390000000  0.5623980000000  0.5256630000000 1.0
C      1  0.5416720000000  0.4755710000000  0.4248620000000 1.0
C      1  0.5731380000000  0.5030260000000  0.5987490000000 1.0
C      1  0.5028960000000  0.3685510000000  0.5296460000000 1.0
C      1  0.5504290000000  0.4026880000000  0.5110440000000 1.0
C      1  0.4985460000000  0.5100510000000  0.5077000000000 1.0
C      1  0.4217780000000  0.5700210000000  0.5263790000000 1.0
C      1  0.4458280000000  0.4484590000000  0.5736990000000 1.0
C      1  0.5049130000000  0.4066230000000  0.4955910000000 1.0
C      1  0.4878560000000  0.5075370000000  0.5617380000000 1.0
C      1  0.4145200000000  0.4839820000000  0.5189830000000 1.0
C      1  0.5524330000000  0.3898740000000  0.4572890000000 1.0
C      1  0.5004010000000  0.4830690000000  0.5752870000000 1.0
C      1  0.5112660000000  0.4241300000000  0.4703980000000 1.0
C      1  0.4224810000000  0.5262810000000  0.4433890000000 1.0
C      1  0.5761820000000  0.5852350000000  0.5004900000000 1.0
C      1  0.3998790000000  0.5864660000000  0.4600920000000 1.0
C      1  0.5284670000000  0.4840600000000  0.4023150000000 1.0
C      1  0.4965750000000  0.5415930000000  0.6085810000000 1.0
C      1  0.4568390000000  0.5417680000000  0.5840800000000 1.0
C      1  0.4175880000000  0.4205940000000  0.4859010000000 1.0
C      1  0.5675020000000  0.6009840000000  0.5225890000000 1.0
C      1  0.4846150000000  0.5182470000000  0.4826400000000 1.0
C      1  0.4560540000000  0.4612620000000  0.5293530000000 1.0
C      1  0.5769350000000  0.5578270000000  0.5060610000000 1.0
C      1  0.4453340000000  0.5872610000000  0.5279780000000 1.0
C      1  0.5681400000000  0.4772760000000  0.5942500000000 1.0
C      1  0.5269690000000  0.5053930000000  0.4962240000000 1.0
C      1  0.5139260000000  0.5139550000000  0.3462300000000 1.0
C      1  0.5515760000000  0.5457050000000  0.5075840000000 1.0
C      1  0.5701720000000  0.4295340000000  0.4677170000000 1.0
C      1  0.5123710000000  0.3678450000000  0.5050390000000 1.0
C      1  0.5076870000000  0.5571220000000  0.3960500000000 1.0
END
