TITL C-612605-9286-1109 1.75524263430198 125000 -445.765108246219 0 0 74 (C1) n - 1
REM
REM in /home/nfs/bkarasulu/CARBON/AIRSS/Generating-Clusters/TERSOFF/Only-C1/FIRE-HFTN
REM
REM
REM
REM
REM
REM ./C.cell (11c1c37f851c82e70ff6c80c92926a4b)
REM AIRSS Version 0.9.1 bugfix July 2018 build 013d7b7c2542+ Fri, 06 Jul 2018 19:26:36 +0100
REM compiler GCC version 9.2.1 20190827 (Red Hat 9.2.1-1)
REM options -cpp -mtune=generic -march=x86-64 -g -O0 -fpre-include=/usr/include/finclude/math-vector-fortran.h
REM seed -921150387 -1008026958 437374040 1213398819 -758603464 1698595029 -2118037551 -1444013003 -1658288896 1535547136 -565369162 247348401 -163860109 1126676380 1768090076 234897618 850867132 1171771619 781231367 666891356 1311705885 2009201026 1408477862 648016799 1292185209 1745047415 -510788819 245749975 77200796 -1816308893 1714159269 -2046444347 858450477
REM
CELL 1.54180   50.00000   50.00000   50.00000   90.00000   90.00000   90.00000
LATT -1
SFAC C  
C      1  0.4587610000000  0.5275040000000  0.4235340000000 1.0
C      1  0.4489030000000  0.4414910000000  0.5169310000000 1.0
C      1  0.4455480000000  0.4599860000000  0.4155020000000 1.0
C      1  0.4964660000000  0.4554260000000  0.4262260000000 1.0
C      1  0.5608010000000  0.5121640000000  0.5466510000000 1.0
C      1  0.4535840000000  0.5589120000000  0.4807010000000 1.0
C      1  0.5488550000000  0.4271230000000  0.4603420000000 1.0
C      1  0.4946410000000  0.4517570000000  0.4538870000000 1.0
C      1  0.4434030000000  0.4348680000000  0.4251910000000 1.0
C      1  0.5499720000000  0.4830570000000  0.5077100000000 1.0
C      1  0.4445780000000  0.5658160000000  0.5069160000000 1.0
C      1  0.5878800000000  0.4847310000000  0.4386570000000 1.0
C      1  0.5079580000000  0.4478780000000  0.5620800000000 1.0
C      1  0.4847630000000  0.4620780000000  0.5706310000000 1.0
C      1  0.5305030000000  0.4414960000000  0.5486850000000 1.0
C      1  0.5095750000000  0.4084020000000  0.4867390000000 1.0
C      1  0.4988390000000  0.6069820000000  0.5816000000000 1.0
C      1  0.4770860000000  0.4312470000000  0.4625540000000 1.0
C      1  0.4319200000000  0.5430550000000  0.5190900000000 1.0
C      1  0.4396350000000  0.5332800000000  0.4423730000000 1.0
C      1  0.4253580000000  0.5248060000000  0.4957720000000 1.0
C      1  0.4842530000000  0.5110110000000  0.5886290000000 1.0
C      1  0.5550930000000  0.5084970000000  0.5193080000000 1.0
C      1  0.5473720000000  0.5437870000000  0.4564540000000 1.0
C      1  0.4686800000000  0.4990540000000  0.4738360000000 1.0
C      1  0.4344300000000  0.5385610000000  0.4699750000000 1.0
C      1  0.5500330000000  0.5257140000000  0.5671030000000 1.0
C      1  0.4825850000000  0.5200420000000  0.4858560000000 1.0
C      1  0.5920050000000  0.4572420000000  0.4763750000000 1.0
C      1  0.5050240000000  0.5531190000000  0.5777570000000 1.0
C      1  0.4420040000000  0.4609880000000  0.5363540000000 1.0
C      1  0.4741610000000  0.5037890000000  0.4166610000000 1.0
C      1  0.4916490000000  0.6594170000000  0.5843730000000 1.0
C      1  0.5022880000000  0.5807630000000  0.5801130000000 1.0
C      1  0.4579050000000  0.4822010000000  0.4273700000000 1.0
C      1  0.4820790000000  0.5362720000000  0.5765700000000 1.0
C      1  0.5203350000000  0.5224580000000  0.4176250000000 1.0
C      1  0.4879510000000  0.4847430000000  0.5868900000000 1.0
C      1  0.4959230000000  0.5146600000000  0.5100590000000 1.0
C      1  0.4941070000000  0.4885040000000  0.5201610000000 1.0
C      1  0.5497050000000  0.4388270000000  0.5279360000000 1.0
C      1  0.4290120000000  0.4856910000000  0.5295200000000 1.0
C      1  0.5409160000000  0.4598560000000  0.4228850000000 1.0
C      1  0.4230690000000  0.4971300000000  0.5036440000000 1.0
C      1  0.5646950000000  0.4608460000000  0.5177650000000 1.0
C      1  0.5305280000000  0.5412500000000  0.5765780000000 1.0
C      1  0.4557990000000  0.4233060000000  0.4461540000000 1.0
C      1  0.4759230000000  0.4392080000000  0.5086530000000 1.0
C      1  0.4382570000000  0.5325270000000  0.5448520000000 1.0
C      1  0.5035280000000  0.5002610000000  0.4137520000000 1.0
C      1  0.4591240000000  0.5419570000000  0.5612270000000 1.0
C      1  0.5159460000000  0.5332980000000  0.5161360000000 1.0
C      1  0.5891580000000  0.4562860000000  0.5042160000000 1.0
C      1  0.4952450000000  0.6331990000000  0.5829870000000 1.0
C      1  0.5653230000000  0.4669680000000  0.4366440000000 1.0
C      1  0.4880520000000  0.6856420000000  0.5857590000000 1.0
C      1  0.4793770000000  0.5472740000000  0.4783370000000 1.0
C      1  0.5371160000000  0.4149680000000  0.4840260000000 1.0
C      1  0.5366790000000  0.4317550000000  0.4338250000000 1.0
C      1  0.5494360000000  0.4173170000000  0.5094990000000 1.0
C      1  0.5124360000000  0.4667250000000  0.4708150000000 1.0
C      1  0.4559030000000  0.4845370000000  0.4555250000000 1.0
C      1  0.4847680000000  0.4218880000000  0.4879050000000 1.0
C      1  0.5424530000000  0.5307370000000  0.5070220000000 1.0
C      1  0.4845140000000  0.7114350000000  0.5871230000000 1.0
C      1  0.5157200000000  0.4737230000000  0.4161120000000 1.0
C      1  0.5314740000000  0.4779390000000  0.4864260000000 1.0
C      1  0.4911030000000  0.4621810000000  0.5157830000000 1.0
C      1  0.5361040000000  0.5370970000000  0.4332920000000 1.0
C      1  0.6035210000000  0.4787200000000  0.4607310000000 1.0
C      1  0.5505350000000  0.5419380000000  0.4828270000000 1.0
C      1  0.4587500000000  0.4590960000000  0.5594700000000 1.0
C      1  0.5698870000000  0.4474660000000  0.4599230000000 1.0
C      1  0.4290370000000  0.5060720000000  0.5494090000000 1.0
END
