TITL C-612600-6631-1266 0.737953234791204 125000 -895.513605918683 0 0 145 (C1) n - 1
REM
REM in /home/nfs/bkarasulu/CARBON/AIRSS/Generating-Clusters/TERSOFF/Only-C1/FIRE-HFTN
REM
REM
REM
REM
REM
REM ./C.cell (11c1c37f851c82e70ff6c80c92926a4b)
REM AIRSS Version 0.9.1 bugfix July 2018 build 013d7b7c2542+ Fri, 06 Jul 2018 19:26:36 +0100
REM compiler GCC version 9.2.1 20190827 (Red Hat 9.2.1-1)
REM options -cpp -mtune=generic -march=x86-64 -g -O0 -fpre-include=/usr/include/finclude/math-vector-fortran.h
REM seed 1831410662 1929116122 -670639912 -677234945 -1690233830 1308437313 202621830 1918921889 -1798435667 -1119231899 1132235794 194913362 -1986895550 1096164375 -960522088 -1018229709 177150107 2120869557 2035815077 -185356859 -1673114472 2102333962 261749126 1534433038 -1849459378 -1678343470 1531913713 -151154527 -2143207143 -426904766 -1802933967 -1108373900 -712241626
REM
CELL 1.54180   50.00000   50.00000   50.00000   90.00000   90.00000   90.00000
LATT -1
SFAC C  
C      1  0.4571050000000  0.5051350000000  0.5991180000000 1.0
C      1  0.5559820000000  0.5908590000000  0.3993580000000 1.0
C      1  0.5534440000000  0.5480180000000  0.5652510000000 1.0
C      1  0.4731980000000  0.5822600000000  0.5218590000000 1.0
C      1  0.6088590000000  0.4665850000000  0.5420130000000 1.0
C      1  0.5061900000000  0.6127560000000  0.5463790000000 1.0
C      1  0.5326670000000  0.4600140000000  0.4955160000000 1.0
C      1  0.4402000000000  0.4817240000000  0.4187490000000 1.0
C      1  0.5072780000000  0.4180950000000  0.4266980000000 1.0
C      1  0.4897240000000  0.4655580000000  0.4298430000000 1.0
C      1  0.4933000000000  0.5640210000000  0.5396690000000 1.0
C      1  0.3939800000000  0.6355680000000  0.4661060000000 1.0
C      1  0.5321230000000  0.5241370000000  0.4968570000000 1.0
C      1  0.4306680000000  0.5726170000000  0.4617590000000 1.0
C      1  0.5220940000000  0.5040900000000  0.6183340000000 1.0
C      1  0.4125350000000  0.5865930000000  0.4787230000000 1.0
C      1  0.4819710000000  0.4783290000000  0.5227670000000 1.0
C      1  0.6051400000000  0.5029230000000  0.5800800000000 1.0
C      1  0.5393520000000  0.4060520000000  0.5085630000000 1.0
C      1  0.4981100000000  0.4318760000000  0.5140090000000 1.0
C      1  0.4842850000000  0.4549030000000  0.5064320000000 1.0
C      1  0.5513830000000  0.5941930000000  0.5403710000000 1.0
C      1  0.4319710000000  0.4653620000000  0.4419160000000 1.0
C      1  0.5007230000000  0.5016560000000  0.3846470000000 1.0
C      1  0.6128540000000  0.4850580000000  0.5614170000000 1.0
C      1  0.5577900000000  0.5791520000000  0.4244190000000 1.0
C      1  0.4050820000000  0.5732970000000  0.5024310000000 1.0
C      1  0.5630210000000  0.5188240000000  0.6082360000000 1.0
C      1  0.5543110000000  0.6021800000000  0.3759460000000 1.0
C      1  0.4586490000000  0.5181610000000  0.5161780000000 1.0
C      1  0.5491710000000  0.5522400000000  0.4307200000000 1.0
C      1  0.5693100000000  0.4390170000000  0.4009960000000 1.0
C      1  0.4741560000000  0.5177590000000  0.4930850000000 1.0
C      1  0.5022980000000  0.5648230000000  0.4860220000000 1.0
C      1  0.5782610000000  0.6183250000000  0.4492660000000 1.0
C      1  0.5869120000000  0.4559260000000  0.5275260000000 1.0
C      1  0.5082970000000  0.4631460000000  0.5707020000000 1.0
C      1  0.4587930000000  0.5093350000000  0.6481010000000 1.0
C      1  0.4863070000000  0.3900010000000  0.4633240000000 1.0
C      1  0.4594030000000  0.5748270000000  0.4665670000000 1.0
C      1  0.5532640000000  0.4200380000000  0.4108530000000 1.0
C      1  0.5121870000000  0.3845780000000  0.4731540000000 1.0
C      1  0.4153810000000  0.4776140000000  0.4941910000000 1.0
C      1  0.4584200000000  0.4186230000000  0.4328670000000 1.0
C      1  0.5559860000000  0.5507670000000  0.4600310000000 1.0
C      1  0.5168120000000  0.5530460000000  0.5287310000000 1.0
C      1  0.5827770000000  0.4638010000000  0.4008440000000 1.0
C      1  0.5912940000000  0.5185340000000  0.4872350000000 1.0
C      1  0.4157060000000  0.5275850000000  0.4660490000000 1.0
C      1  0.5395350000000  0.5571540000000  0.5886450000000 1.0
C      1  0.4265420000000  0.4810840000000  0.4665150000000 1.0
C      1  0.4146800000000  0.4116870000000  0.4887300000000 1.0
C      1  0.5446630000000  0.4778070000000  0.5133890000000 1.0
C      1  0.5771070000000  0.5693500000000  0.4978320000000 1.0
C      1  0.5539310000000  0.4594710000000  0.4566640000000 1.0
C      1  0.4838180000000  0.4060730000000  0.4393410000000 1.0
C      1  0.5266000000000  0.4596790000000  0.4676450000000 1.0
C      1  0.5167930000000  0.5472080000000  0.5020430000000 1.0
C      1  0.4769050000000  0.4527380000000  0.4792030000000 1.0
C      1  0.4508630000000  0.4395970000000  0.5575430000000 1.0
C      1  0.5088260000000  0.4900670000000  0.5596880000000 1.0
C      1  0.5822820000000  0.4795040000000  0.4242790000000 1.0
C      1  0.4947950000000  0.4634690000000  0.6157420000000 1.0
C      1  0.4875250000000  0.4570480000000  0.5892780000000 1.0
C      1  0.4571620000000  0.3861680000000  0.5074270000000 1.0
C      1  0.5653940000000  0.4124780000000  0.5179980000000 1.0
C      1  0.4141150000000  0.4994300000000  0.5509570000000 1.0
C      1  0.5477000000000  0.4122960000000  0.4583040000000 1.0
C      1  0.4629750000000  0.4134900000000  0.5529660000000 1.0
C      1  0.4323830000000  0.4490890000000  0.5369400000000 1.0
C      1  0.4280860000000  0.5082410000000  0.4135930000000 1.0
C      1  0.5886620000000  0.5161500000000  0.5968680000000 1.0
C      1  0.4721550000000  0.5370960000000  0.4381010000000 1.0
C      1  0.5150510000000  0.5096060000000  0.4083900000000 1.0
C      1  0.5837530000000  0.4329630000000  0.5105720000000 1.0
C      1  0.4007420000000  0.5006380000000  0.5041280000000 1.0
C      1  0.5195720000000  0.5759910000000  0.5775330000000 1.0
C      1  0.4620210000000  0.5309810000000  0.5883250000000 1.0
C      1  0.4522510000000  0.4396090000000  0.4739750000000 1.0
C      1  0.4540670000000  0.3967680000000  0.5318600000000 1.0
C      1  0.4663380000000  0.4746730000000  0.4094020000000 1.0
C      1  0.5401370000000  0.5451180000000  0.5422610000000 1.0
C      1  0.5625790000000  0.4699350000000  0.5337910000000 1.0
C      1  0.4983250000000  0.4522690000000  0.3853480000000 1.0
C      1  0.4835500000000  0.6091960000000  0.5312170000000 1.0
C      1  0.5847770000000  0.4980120000000  0.4704260000000 1.0
C      1  0.4705220000000  0.5021530000000  0.6245210000000 1.0
C      1  0.3912210000000  0.5477240000000  0.5034740000000 1.0
C      1  0.4020550000000  0.5603390000000  0.5463090000000 1.0
C      1  0.4874770000000  0.5372030000000  0.5783300000000 1.0
C      1  0.5037520000000  0.5143900000000  0.5729950000000 1.0
C      1  0.5334000000000  0.5147590000000  0.4510560000000 1.0
C      1  0.5581740000000  0.4742420000000  0.5613890000000 1.0
C      1  0.5660250000000  0.4338880000000  0.4629690000000 1.0
C      1  0.4412580000000  0.4930690000000  0.5537530000000 1.0
C      1  0.5871970000000  0.6427950000000  0.4499530000000 1.0
C      1  0.5174970000000  0.4148130000000  0.5248280000000 1.0
C      1  0.5235200000000  0.4402530000000  0.5642720000000 1.0
C      1  0.3973080000000  0.5102020000000  0.5316120000000 1.0
C      1  0.4200050000000  0.5490600000000  0.4474190000000 1.0
C      1  0.5279320000000  0.5971370000000  0.5574780000000 1.0
C      1  0.5087010000000  0.5024210000000  0.4551310000000 1.0
C      1  0.5530290000000  0.4768490000000  0.5876000000000 1.0
C      1  0.4890670000000  0.4072970000000  0.5626670000000 1.0
C      1  0.5455810000000  0.5274510000000  0.4724140000000 1.0
C      1  0.5426290000000  0.5384860000000  0.6099880000000 1.0
C      1  0.4243100000000  0.4543100000000  0.5096820000000 1.0
C      1  0.4221070000000  0.5344590000000  0.4215150000000 1.0
C      1  0.5894010000000  0.5429760000000  0.4995050000000 1.0
C      1  0.4976810000000  0.4570530000000  0.4592360000000 1.0
C      1  0.4446840000000  0.4395530000000  0.4463810000000 1.0
C      1  0.5036390000000  0.4919060000000  0.4294410000000 1.0
C      1  0.5350660000000  0.3991200000000  0.4805590000000 1.0
C      1  0.4028400000000  0.6118190000000  0.4721580000000 1.0
C      1  0.4657780000000  0.3849220000000  0.4820470000000 1.0
C      1  0.5284400000000  0.5013120000000  0.5149410000000 1.0
C      1  0.5347640000000  0.5273970000000  0.4238600000000 1.0
C      1  0.4736510000000  0.5631940000000  0.4445650000000 1.0
C      1  0.5679180000000  0.5742290000000  0.4710800000000 1.0
C      1  0.4584800000000  0.5163200000000  0.4484280000000 1.0
C      1  0.3982750000000  0.5249430000000  0.4875200000000 1.0
C      1  0.4354970000000  0.5077950000000  0.4624750000000 1.0
C      1  0.4969390000000  0.4909360000000  0.6232890000000 1.0
C      1  0.5353880000000  0.4128990000000  0.4317490000000 1.0
C      1  0.4504630000000  0.4846870000000  0.5793620000000 1.0
C      1  0.4837970000000  0.4778990000000  0.3846580000000 1.0
C      1  0.4313790000000  0.4330790000000  0.4919470000000 1.0
C      1  0.4610780000000  0.4579020000000  0.5785170000000 1.0
C      1  0.4766250000000  0.5770910000000  0.4906240000000 1.0
C      1  0.4493060000000  0.5413150000000  0.5276780000000 1.0
C      1  0.5728540000000  0.4804650000000  0.4508600000000 1.0
C      1  0.3900300000000  0.5382160000000  0.5319930000000 1.0
C      1  0.5670710000000  0.5845220000000  0.5201580000000 1.0
C      1  0.4188670000000  0.5767230000000  0.5284130000000 1.0
C      1  0.5015960000000  0.4425680000000  0.4125810000000 1.0
C      1  0.5146060000000  0.4158380000000  0.5532290000000 1.0
C      1  0.5959210000000  0.4724460000000  0.3785060000000 1.0
C      1  0.4463730000000  0.5695010000000  0.5283250000000 1.0
C      1  0.4915320000000  0.5067990000000  0.4762530000000 1.0
C      1  0.5465440000000  0.4946160000000  0.6082230000000 1.0
C      1  0.5866740000000  0.4341130000000  0.4823430000000 1.0
C      1  0.5686860000000  0.5923240000000  0.4484050000000 1.0
C      1  0.4951140000000  0.5624790000000  0.5683250000000 1.0
C      1  0.5060720000000  0.4917840000000  0.5314000000000 1.0
C      1  0.4588210000000  0.4938520000000  0.5307800000000 1.0
END
