TITL C-612602-9376-408 69375.3848947949 125000 -1158.38598630644 0 0 190 (C1) n - 1
REM
REM in /home/nfs/bkarasulu/CARBON/AIRSS/Generating-Clusters/TERSOFF/Only-C1/FIRE-HFTN
REM
REM
REM
REM
REM
REM ./C.cell (11c1c37f851c82e70ff6c80c92926a4b)
REM AIRSS Version 0.9.1 bugfix July 2018 build 013d7b7c2542+ Fri, 06 Jul 2018 19:26:36 +0100
REM compiler GCC version 9.2.1 20190827 (Red Hat 9.2.1-1)
REM options -cpp -mtune=generic -march=x86-64 -g -O0 -fpre-include=/usr/include/finclude/math-vector-fortran.h
REM seed -319276210 1875794368 891556785 -1273874903 -235751571 -1453149751 863761221 -33577468 1201427293 -1607718058 -209644244 -1845036848 504443765 1221881229 -793697083 271523447 1883964958 45192088 -1803617628 -592500571 1670255740 225406158 -1021656335 1497204758 302842441 -254287811 1105903666 928395811 296649322 1918717700 1054652302 39825648 -740246642
REM
CELL 1.54180   50.00000   50.00000   50.00000   90.00000   90.00000   90.00000
LATT -1
SFAC C  
C      1  0.4983590000000  0.5232430000000  0.4553250000000 1.0
C      1  0.5384480000000  0.5675310000000  0.5794040000000 1.0
C      1  0.5602110000000  0.4427740000000  0.5716500000000 1.0
C      1  0.5630630000000  0.5451860000000  0.5121090000000 1.0
C      1  0.4658440000000  0.3799230000000  0.4875380000000 1.0
C      1  0.5342300000000  0.3980560000000  0.5162710000000 1.0
C      1  0.5432290000000  0.5067720000000  0.4805320000000 1.0
C      1  0.4408170000000  0.4867560000000  0.5760060000000 1.0
C      1  0.4931230000000  0.3997860000000  0.3945400000000 1.0
C      1  0.5470060000000  0.5941740000000  0.5707310000000 1.0
C      1  0.4393870000000  0.4414070000000  0.4848020000000 1.0
C      1  0.4171840000000  0.5523410000000  0.4651800000000 1.0
C      1  0.5935020000000  0.5808280000000  0.4534190000000 1.0
C      1  0.4523430000000  0.5668310000000  0.5516240000000 1.0
C      1  0.5636030000000  0.4791520000000  0.6156970000000 1.0
C      1  0.5199610000000  0.4344140000000  0.5467180000000 1.0
C      1  0.4799010000000  0.5621590000000  0.4291100000000 1.0
C      1  0.4369630000000  0.5740130000000  0.4519140000000 1.0
C      1  0.5363990000000  0.4126380000000  0.4057800000000 1.0
C      1  0.4868620000000  0.4012420000000  0.5350040000000 1.0
C      1  0.5171140000000  0.5621630000000  0.5617760000000 1.0
C      1  0.5355280000000  0.4780220000000  0.6226110000000 1.0
C      1  0.5567820000000  0.5074620000000  0.4031830000000 1.0
C      1  0.5507180000000  0.6090090000000  0.4998710000000 1.0
C      1  0.3865380000000  0.4982990000000  0.5582950000000 1.0
C      1  0.3958850000000  0.4717020000000  0.5475190000000 1.0
C      1  0.5128700000000  0.4205170000000  0.3920420000000 1.0
C      1  0.4014460000000  0.5633910000000  0.5136660000000 1.0
C      1  0.4431660000000  0.4053680000000  0.4460640000000 1.0
C      1  0.4954020000000  0.5100270000000  0.6249460000000 1.0
C      1  0.4874130000000  0.4319650000000  0.4899930000000 1.0
C      1  0.5802160000000  0.4594550000000  0.5280260000000 1.0
C      1  0.4754750000000  0.5562560000000  0.6253420000000 1.0
C      1  0.5755890000000  0.5917340000000  0.4356110000000 1.0
C      1  0.4176990000000  0.5256660000000  0.4530460000000 1.0
C      1  0.5129840000000  0.4187810000000  0.4785770000000 1.0
C      1  0.5212570000000  0.4756420000000  0.5701100000000 1.0
C      1  0.5012730000000  0.5711860000000  0.5145010000000 1.0
C      1  0.3872320000000  0.5256560000000  0.5517990000000 1.0
C      1  0.5814940000000  0.4821430000000  0.5112780000000 1.0
C      1  0.5041440000000  0.4921790000000  0.4196260000000 1.0
C      1  0.4634980000000  0.6667570000000  0.4561640000000 1.0
C      1  0.5835350000000  0.4911890000000  0.6014780000000 1.0
C      1  0.5733510000000  0.5633750000000  0.4930720000000 1.0
C      1  0.4336190000000  0.5049110000000  0.5561210000000 1.0
C      1  0.4456380000000  0.4631480000000  0.4684980000000 1.0
C      1  0.4680060000000  0.4947630000000  0.5068700000000 1.0
C      1  0.4282210000000  0.4607490000000  0.3973520000000 1.0
C      1  0.5901080000000  0.5340420000000  0.4520000000000 1.0
C      1  0.4407370000000  0.5349290000000  0.5211790000000 1.0
C      1  0.4901920000000  0.4727250000000  0.4621890000000 1.0
C      1  0.5008420000000  0.4505800000000  0.5331150000000 1.0
C      1  0.5340490000000  0.4818360000000  0.5147830000000 1.0
C      1  0.4103980000000  0.5086490000000  0.4081300000000 1.0
C      1  0.5562430000000  0.5850690000000  0.4865480000000 1.0
C      1  0.4765670000000  0.6218080000000  0.5170580000000 1.0
C      1  0.4460230000000  0.4896020000000  0.4778270000000 1.0
C      1  0.5055690000000  0.5671940000000  0.4156360000000 1.0
C      1  0.4523800000000  0.5961850000000  0.4648310000000 1.0
C      1  0.4815790000000  0.5107400000000  0.3719440000000 1.0
C      1  0.6138580000000  0.5396890000000  0.4929180000000 1.0
C      1  0.4998900000000  0.4350580000000  0.6217140000000 1.0
C      1  0.5437660000000  0.5529100000000  0.4542070000000 1.0
C      1  0.4735710000000  0.5256550000000  0.5864600000000 1.0
C      1  0.5130030000000  0.3926430000000  0.4954180000000 1.0
C      1  0.5222670000000  0.4254830000000  0.4511940000000 1.0
C      1  0.4297070000000  0.5494850000000  0.5448000000000 1.0
C      1  0.5692010000000  0.4666040000000  0.4287620000000 1.0
C      1  0.5427640000000  0.5327630000000  0.4073330000000 1.0
C      1  0.5939600000000  0.5070690000000  0.4441250000000 1.0
C      1  0.5340990000000  0.4504500000000  0.5658180000000 1.0
C      1  0.4566840000000  0.3819990000000  0.4601370000000 1.0
C      1  0.5187110000000  0.6184080000000  0.5315760000000 1.0
C      1  0.5253540000000  0.5286890000000  0.4906970000000 1.0
C      1  0.5359000000000  0.4361770000000  0.4932590000000 1.0
C      1  0.5491840000000  0.5428870000000  0.5923570000000 1.0
C      1  0.5294150000000  0.4536820000000  0.4490130000000 1.0
C      1  0.3747290000000  0.4950870000000  0.4841120000000 1.0
C      1  0.4765030000000  0.4518340000000  0.4017790000000 1.0
C      1  0.4891960000000  0.4696190000000  0.5511600000000 1.0
C      1  0.5572700000000  0.5353610000000  0.5378710000000 1.0
C      1  0.4746760000000  0.3723460000000  0.4382020000000 1.0
C      1  0.4005110000000  0.5465040000000  0.4898480000000 1.0
C      1  0.5224580000000  0.5882360000000  0.4293330000000 1.0
C      1  0.4438840000000  0.4107800000000  0.5667190000000 1.0
C      1  0.5363690000000  0.5161280000000  0.5464850000000 1.0
C      1  0.4859340000000  0.4951020000000  0.5391290000000 1.0
C      1  0.4675830000000  0.4183010000000  0.5510890000000 1.0
C      1  0.4703420000000  0.5795810000000  0.6385280000000 1.0
C      1  0.4666790000000  0.5538420000000  0.4764560000000 1.0
C      1  0.6141720000000  0.5106380000000  0.4892330000000 1.0
C      1  0.4776530000000  0.5179240000000  0.4987590000000 1.0
C      1  0.4681910000000  0.4591660000000  0.4511670000000 1.0
C      1  0.5165890000000  0.5440530000000  0.3989130000000 1.0
C      1  0.5753100000000  0.5360470000000  0.5827370000000 1.0
C      1  0.4389090000000  0.5495820000000  0.4068370000000 1.0
C      1  0.4824880000000  0.5468530000000  0.4529590000000 1.0
C      1  0.6247890000000  0.4706500000000  0.4645970000000 1.0
C      1  0.4177400000000  0.4218230000000  0.5546110000000 1.0
C      1  0.5314070000000  0.5027120000000  0.5719470000000 1.0
C      1  0.5221800000000  0.4713330000000  0.4037840000000 1.0
C      1  0.3988770000000  0.5169340000000  0.4330920000000 1.0
C      1  0.5415200000000  0.4615680000000  0.4251590000000 1.0
C      1  0.5541370000000  0.4164040000000  0.5031430000000 1.0
C      1  0.5227100000000  0.4632170000000  0.4950100000000 1.0
C      1  0.4602890000000  0.4822910000000  0.5974980000000 1.0
C      1  0.6157260000000  0.5476150000000  0.5207680000000 1.0
C      1  0.4510300000000  0.5663930000000  0.4260820000000 1.0
C      1  0.5169230000000  0.4072040000000  0.5389990000000 1.0
C      1  0.5331330000000  0.5184950000000  0.5959330000000 1.0
C      1  0.4362790000000  0.5215760000000  0.4088710000000 1.0
C      1  0.4778110000000  0.5225990000000  0.5585000000000 1.0
C      1  0.4761280000000  0.5040890000000  0.6046460000000 1.0
C      1  0.4675180000000  0.5517970000000  0.5981440000000 1.0
C      1  0.6183080000000  0.4959740000000  0.5386660000000 1.0
C      1  0.4684010000000  0.6421620000000  0.4632430000000 1.0
C      1  0.4554420000000  0.5710890000000  0.5809230000000 1.0
C      1  0.3853600000000  0.4204400000000  0.5134480000000 1.0
C      1  0.6111430000000  0.5137870000000  0.5598420000000 1.0
C      1  0.3785410000000  0.4688890000000  0.4983220000000 1.0
C      1  0.5191520000000  0.5579470000000  0.4956350000000 1.0
C      1  0.4011730000000  0.5486950000000  0.5399260000000 1.0
C      1  0.4751320000000  0.4313820000000  0.6068650000000 1.0
C      1  0.4764100000000  0.5475860000000  0.5463110000000 1.0
C      1  0.5197120000000  0.4538360000000  0.6255750000000 1.0
C      1  0.4892350000000  0.5346090000000  0.6378020000000 1.0
C      1  0.4765280000000  0.4967850000000  0.4183070000000 1.0
C      1  0.6128210000000  0.4961370000000  0.4638990000000 1.0
C      1  0.5223820000000  0.5037200000000  0.6184470000000 1.0
C      1  0.4650860000000  0.4889450000000  0.3729480000000 1.0
C      1  0.4497830000000  0.5856460000000  0.5279050000000 1.0
C      1  0.4601210000000  0.4262430000000  0.4926770000000 1.0
C      1  0.6065910000000  0.4953960000000  0.5124290000000 1.0
C      1  0.5950870000000  0.5557180000000  0.4730140000000 1.0
C      1  0.4703650000000  0.4428070000000  0.4281900000000 1.0
C      1  0.3751630000000  0.4408070000000  0.4984590000000 1.0
C      1  0.5506160000000  0.5940850000000  0.4242700000000 1.0
C      1  0.5517950000000  0.5451550000000  0.4304910000000 1.0
C      1  0.4406320000000  0.4619160000000  0.5611080000000 1.0
C      1  0.5760790000000  0.4947530000000  0.4239340000000 1.0
C      1  0.4411730000000  0.5086260000000  0.4558000000000 1.0
C      1  0.4716170000000  0.4560780000000  0.5932040000000 1.0
C      1  0.5328030000000  0.5725650000000  0.4730210000000 1.0
C      1  0.4659180000000  0.4154100000000  0.4303450000000 1.0
C      1  0.5923640000000  0.4344370000000  0.4684820000000 1.0
C      1  0.5572600000000  0.4923770000000  0.5007430000000 1.0
C      1  0.4859640000000  0.3871820000000  0.5072160000000 1.0
C      1  0.4743580000000  0.5946320000000  0.5172340000000 1.0
C      1  0.5004410000000  0.5599940000000  0.5400990000000 1.0
C      1  0.3933790000000  0.5169310000000  0.4935470000000 1.0
C      1  0.4799060000000  0.3931760000000  0.4184620000000 1.0
C      1  0.4990360000000  0.5295740000000  0.3810950000000 1.0
C      1  0.4595170000000  0.5394240000000  0.5000820000000 1.0
C      1  0.5429860000000  0.6105280000000  0.5472730000000 1.0
C      1  0.4211270000000  0.4189680000000  0.4333860000000 1.0
C      1  0.5783790000000  0.5441440000000  0.5553210000000 1.0
C      1  0.6178310000000  0.4459670000000  0.4732260000000 1.0
C      1  0.5812910000000  0.4463700000000  0.4448520000000 1.0
C      1  0.5214980000000  0.6165770000000  0.5010690000000 1.0
C      1  0.4970460000000  0.4535230000000  0.5058850000000 1.0
C      1  0.6053150000000  0.5398010000000  0.5461080000000 1.0
C      1  0.5411480000000  0.4885030000000  0.3876800000000 1.0
C      1  0.5042700000000  0.4484210000000  0.3940510000000 1.0
C      1  0.4153150000000  0.4510680000000  0.5561750000000 1.0
C      1  0.4557610000000  0.4658480000000  0.3877400000000 1.0
C      1  0.4103130000000  0.4829050000000  0.3970340000000 1.0
C      1  0.6044110000000  0.4303860000000  0.5627590000000 1.0
C      1  0.4532650000000  0.5082480000000  0.4285040000000 1.0
C      1  0.4552030000000  0.4122590000000  0.5952760000000 1.0
C      1  0.5628030000000  0.6119840000000  0.5260760000000 1.0
C      1  0.4096860000000  0.5011360000000  0.5123460000000 1.0
C      1  0.5032060000000  0.6102600000000  0.4762590000000 1.0
C      1  0.5214320000000  0.4769560000000  0.4674860000000 1.0
C      1  0.5352900000000  0.4088280000000  0.4326080000000 1.0
C      1  0.4746410000000  0.6152070000000  0.4689890000000 1.0
C      1  0.5164580000000  0.5922350000000  0.4578840000000 1.0
C      1  0.4009770000000  0.4115000000000  0.5338620000000 1.0
C      1  0.5820930000000  0.4453750000000  0.5517610000000 1.0
C      1  0.4231110000000  0.5842650000000  0.5150610000000 1.0
C      1  0.3967690000000  0.4768050000000  0.5192020000000 1.0
C      1  0.4997310000000  0.5193180000000  0.4832400000000 1.0
C      1  0.4310210000000  0.5092560000000  0.5279360000000 1.0
C      1  0.5137770000000  0.5038440000000  0.4424590000000 1.0
C      1  0.4203340000000  0.4379430000000  0.4134550000000 1.0
C      1  0.5786280000000  0.4183330000000  0.4882440000000 1.0
C      1  0.5197560000000  0.5007820000000  0.5292320000000 1.0
C      1  0.5710790000000  0.4264310000000  0.5930630000000 1.0
C      1  0.5929000000000  0.5119080000000  0.5841980000000 1.0
C      1  0.5973080000000  0.4193810000000  0.5872520000000 1.0
C      1  0.4688600000000  0.4523800000000  0.5631620000000 1.0
END
