TITL C-612603-7354-212 1.3433181328001e-05 125000 -762.015257745711 0 0 124 (C1) n - 1
REM
REM in /home/nfs/bkarasulu/CARBON/AIRSS/Generating-Clusters/TERSOFF/Only-C1/FIRE-HFTN
REM
REM
REM
REM
REM
REM ./C.cell (11c1c37f851c82e70ff6c80c92926a4b)
REM AIRSS Version 0.9.1 bugfix July 2018 build 013d7b7c2542+ Fri, 06 Jul 2018 19:26:36 +0100
REM compiler GCC version 9.2.1 20190827 (Red Hat 9.2.1-1)
REM options -cpp -mtune=generic -march=x86-64 -g -O0 -fpre-include=/usr/include/finclude/math-vector-fortran.h
REM seed 1827438930 382907791 -1648752049 -1236139163 -803770486 1354525061 -2124259896 -1243928118 128137036 -621695569 -1130771163 90867691 -1689354617 -1727780843 -1608936713 -1519805787 -355455716 -590421364 2115276592 390602978 -1314823190 -45464379 1093447332 1380730657 -1269897840 1367055301 -10916814 -1748633829 -1140479228 -179322425 -235904382 247555538 -1592535650
REM
CELL 1.54180   50.00000   50.00000   50.00000   90.00000   90.00000   90.00000
LATT -1
SFAC C  
C      1  0.5762770000000  0.4865610000000  0.4056510000000 1.0
C      1  0.5346090000000  0.5054000000000  0.5010610000000 1.0
C      1  0.5354980000000  0.5125860000000  0.4159040000000 1.0
C      1  0.4190710000000  0.4966860000000  0.4910210000000 1.0
C      1  0.4722680000000  0.4814440000000  0.5400850000000 1.0
C      1  0.5633760000000  0.5063930000000  0.4212300000000 1.0
C      1  0.4386620000000  0.4417290000000  0.5435410000000 1.0
C      1  0.4901840000000  0.5802150000000  0.6066100000000 1.0
C      1  0.4849720000000  0.5567820000000  0.5928020000000 1.0
C      1  0.5154250000000  0.4960100000000  0.5204220000000 1.0
C      1  0.4869400000000  0.6147660000000  0.5020560000000 1.0
C      1  0.4830210000000  0.4128860000000  0.5376110000000 1.0
C      1  0.5544060000000  0.4218400000000  0.5596280000000 1.0
C      1  0.4875250000000  0.4858900000000  0.4677930000000 1.0
C      1  0.4919810000000  0.4772130000000  0.5199310000000 1.0
C      1  0.5763880000000  0.5546240000000  0.5454150000000 1.0
C      1  0.4677970000000  0.5106310000000  0.3966080000000 1.0
C      1  0.4006050000000  0.5371630000000  0.5082690000000 1.0
C      1  0.5759730000000  0.4658340000000  0.5750870000000 1.0
C      1  0.5925370000000  0.4679030000000  0.4189490000000 1.0
C      1  0.5027770000000  0.5613460000000  0.5464590000000 1.0
C      1  0.5644670000000  0.4414490000000  0.5776060000000 1.0
C      1  0.4559140000000  0.4195080000000  0.5431980000000 1.0
C      1  0.4676210000000  0.4247610000000  0.4431170000000 1.0
C      1  0.5126330000000  0.4921120000000  0.4567240000000 1.0
C      1  0.5688720000000  0.5244020000000  0.4440390000000 1.0
C      1  0.5690230000000  0.5550910000000  0.6181740000000 1.0
C      1  0.4456930000000  0.4882610000000  0.4966360000000 1.0
C      1  0.4601800000000  0.5427730000000  0.5998010000000 1.0
C      1  0.4079190000000  0.5611270000000  0.4989910000000 1.0
C      1  0.5601480000000  0.4604610000000  0.3361460000000 1.0
C      1  0.5343520000000  0.4902110000000  0.4755440000000 1.0
C      1  0.4646570000000  0.4449860000000  0.3877480000000 1.0
C      1  0.5388090000000  0.5728100000000  0.4870030000000 1.0
C      1  0.4219580000000  0.5815650000000  0.4890730000000 1.0
C      1  0.4652230000000  0.6110360000000  0.4865840000000 1.0
C      1  0.4582990000000  0.4973980000000  0.6006770000000 1.0
C      1  0.4476900000000  0.5282600000000  0.4049610000000 1.0
C      1  0.4352180000000  0.5040630000000  0.5825900000000 1.0
C      1  0.4700140000000  0.5277300000000  0.5466490000000 1.0
C      1  0.5032740000000  0.4044140000000  0.5558970000000 1.0
C      1  0.4416400000000  0.5987540000000  0.4835070000000 1.0
C      1  0.4163300000000  0.4769530000000  0.4474950000000 1.0
C      1  0.4771480000000  0.4209010000000  0.4692440000000 1.0
C      1  0.4661440000000  0.4984120000000  0.4799730000000 1.0
C      1  0.5835100000000  0.4445580000000  0.5270820000000 1.0
C      1  0.5291850000000  0.4088380000000  0.5626250000000 1.0
C      1  0.4023140000000  0.5090450000000  0.5101020000000 1.0
C      1  0.4940470000000  0.4273270000000  0.5155860000000 1.0
C      1  0.5655400000000  0.5092830000000  0.5546150000000 1.0
C      1  0.5310980000000  0.4488650000000  0.3730190000000 1.0
C      1  0.5058220000000  0.5485590000000  0.5726970000000 1.0
C      1  0.5186840000000  0.4668430000000  0.4151350000000 1.0
C      1  0.5530570000000  0.4629930000000  0.3623890000000 1.0
C      1  0.4428430000000  0.4412020000000  0.4055490000000 1.0
C      1  0.4977960000000  0.4202330000000  0.4883690000000 1.0
C      1  0.4824120000000  0.4964210000000  0.5850380000000 1.0
C      1  0.5770430000000  0.5663280000000  0.5953840000000 1.0
C      1  0.5901580000000  0.4918050000000  0.4786720000000 1.0
C      1  0.5779930000000  0.4696260000000  0.4658190000000 1.0
C      1  0.5317150000000  0.5408000000000  0.4197410000000 1.0
C      1  0.5971350000000  0.4867750000000  0.5058870000000 1.0
C      1  0.4777390000000  0.5030770000000  0.5571660000000 1.0
C      1  0.4616820000000  0.5203060000000  0.6188170000000 1.0
C      1  0.4354010000000  0.5229420000000  0.4537190000000 1.0
C      1  0.4598750000000  0.5243990000000  0.4690970000000 1.0
C      1  0.4434630000000  0.4378170000000  0.4338630000000 1.0
C      1  0.4285500000000  0.4856180000000  0.5616700000000 1.0
C      1  0.5049690000000  0.5759150000000  0.3893690000000 1.0
C      1  0.4073840000000  0.4332020000000  0.4654910000000 1.0
C      1  0.5910230000000  0.4582870000000  0.4438950000000 1.0
C      1  0.5820940000000  0.5177790000000  0.4685230000000 1.0
C      1  0.5051840000000  0.4514990000000  0.5238920000000 1.0
C      1  0.4893040000000  0.4339950000000  0.3977480000000 1.0
C      1  0.5375270000000  0.4417550000000  0.4694770000000 1.0
C      1  0.4886030000000  0.5050540000000  0.4146330000000 1.0
C      1  0.4936100000000  0.6049760000000  0.5277310000000 1.0
C      1  0.5427130000000  0.4012110000000  0.4938600000000 1.0
C      1  0.4362710000000  0.5338670000000  0.5835390000000 1.0
C      1  0.5332840000000  0.5809250000000  0.5119430000000 1.0
C      1  0.5503720000000  0.4665920000000  0.4712260000000 1.0
C      1  0.5888800000000  0.4725490000000  0.5290130000000 1.0
C      1  0.5677090000000  0.4219150000000  0.5339240000000 1.0
C      1  0.5065120000000  0.5061800000000  0.5962250000000 1.0
C      1  0.4346170000000  0.5332770000000  0.4277690000000 1.0
C      1  0.4857600000000  0.4189680000000  0.4216980000000 1.0
C      1  0.5301690000000  0.5569560000000  0.4654040000000 1.0
C      1  0.3624490000000  0.4963420000000  0.5347280000000 1.0
C      1  0.4312510000000  0.5719190000000  0.5531040000000 1.0
C      1  0.4046650000000  0.4764390000000  0.5471590000000 1.0
C      1  0.5732970000000  0.5341800000000  0.4894110000000 1.0
C      1  0.5203340000000  0.5232440000000  0.5774020000000 1.0
C      1  0.5675610000000  0.5299230000000  0.5355540000000 1.0
C      1  0.4641150000000  0.4670940000000  0.3705620000000 1.0
C      1  0.5562190000000  0.5244900000000  0.5096580000000 1.0
C      1  0.5135350000000  0.4483100000000  0.3947450000000 1.0
C      1  0.4707390000000  0.6017450000000  0.5444980000000 1.0
C      1  0.5368970000000  0.5183010000000  0.6349140000000 1.0
C      1  0.4571680000000  0.5768620000000  0.5441000000000 1.0
C      1  0.5177690000000  0.5049360000000  0.6217660000000 1.0
C      1  0.4216840000000  0.5526340000000  0.5690040000000 1.0
C      1  0.3894510000000  0.4939570000000  0.5308290000000 1.0
C      1  0.5599650000000  0.4035740000000  0.5141930000000 1.0
C      1  0.5383730000000  0.5070120000000  0.5622990000000 1.0
C      1  0.5246100000000  0.4586520000000  0.5440140000000 1.0
C      1  0.4749600000000  0.5541000000000  0.5344270000000 1.0
C      1  0.5134700000000  0.5840770000000  0.5316340000000 1.0
C      1  0.4179920000000  0.5010830000000  0.4622900000000 1.0
C      1  0.4777050000000  0.5447730000000  0.4779900000000 1.0
C      1  0.5275050000000  0.4870960000000  0.5458330000000 1.0
C      1  0.5795870000000  0.5670940000000  0.5688490000000 1.0
C      1  0.4647170000000  0.4935940000000  0.3745410000000 1.0
C      1  0.4749550000000  0.5527190000000  0.5048470000000 1.0
C      1  0.5674040000000  0.4798320000000  0.3798430000000 1.0
C      1  0.5553920000000  0.5374290000000  0.6327550000000 1.0
C      1  0.5804060000000  0.4846650000000  0.5540160000000 1.0
C      1  0.4495510000000  0.4679670000000  0.5493980000000 1.0
C      1  0.5021330000000  0.5511330000000  0.4652570000000 1.0
C      1  0.4103160000000  0.4481130000000  0.5411500000000 1.0
C      1  0.5465360000000  0.5454600000000  0.4447840000000 1.0
C      1  0.5140800000000  0.4938800000000  0.4261400000000 1.0
C      1  0.5188950000000  0.5592160000000  0.4037290000000 1.0
C      1  0.5254000000000  0.4190240000000  0.4806250000000 1.0
C      1  0.4223490000000  0.4492320000000  0.4490410000000 1.0
END
