TITL C-612604-1799-1063 751.814506726842 125000 -1011.96095272975 0 0 164 (C1) n - 1
REM
REM in /home/nfs/bkarasulu/CARBON/AIRSS/Generating-Clusters/TERSOFF/Only-C1/FIRE-HFTN
REM
REM
REM
REM
REM
REM ./C.cell (11c1c37f851c82e70ff6c80c92926a4b)
REM AIRSS Version 0.9.1 bugfix July 2018 build 013d7b7c2542+ Fri, 06 Jul 2018 19:26:36 +0100
REM compiler GCC version 9.2.1 20190827 (Red Hat 9.2.1-1)
REM options -cpp -mtune=generic -march=x86-64 -g -O0 -fpre-include=/usr/include/finclude/math-vector-fortran.h
REM seed -970319321 -1881893706 -2100059461 100136190 -939424409 1201990915 -2009730221 900176342 -2044480108 -1360174297 -345252415 1453692159 -312940160 164112057 -629981216 1053241709 -1298069611 863498329 73975063 1627234716 1788371087 222550907 757719263 -1565174222 -1323258882 -133044346 -1210991945 -1344296064 904502224 -2129733505 -1995805473 -699182656 -852932825
REM
CELL 1.54180   50.00000   50.00000   50.00000   90.00000   90.00000   90.00000
LATT -1
SFAC C  
C      1  0.5094440000000  0.4877580000000  0.6038550000000 1.0
C      1  0.5710050000000  0.4484060000000  0.5807550000000 1.0
C      1  0.4917690000000  0.4672740000000  0.5516940000000 1.0
C      1  0.4895500000000  0.5331130000000  0.3950370000000 1.0
C      1  0.5115340000000  0.5846160000000  0.5001280000000 1.0
C      1  0.4388670000000  0.4683570000000  0.5245140000000 1.0
C      1  0.4587230000000  0.5258100000000  0.5973000000000 1.0
C      1  0.5597240000000  0.4646570000000  0.4607850000000 1.0
C      1  0.5885570000000  0.4091480000000  0.4920450000000 1.0
C      1  0.4947190000000  0.4585460000000  0.4766120000000 1.0
C      1  0.5110190000000  0.4323000000000  0.5238580000000 1.0
C      1  0.4841150000000  0.4586420000000  0.4027830000000 1.0
C      1  0.5158960000000  0.6219530000000  0.4302060000000 1.0
C      1  0.5559340000000  0.6095600000000  0.5086810000000 1.0
C      1  0.4534580000000  0.5516080000000  0.5315660000000 1.0
C      1  0.5795400000000  0.5505910000000  0.5312070000000 1.0
C      1  0.4870190000000  0.5358870000000  0.4936810000000 1.0
C      1  0.5673110000000  0.5673690000000  0.4366300000000 1.0
C      1  0.4528220000000  0.5196920000000  0.4259000000000 1.0
C      1  0.4872400000000  0.5158320000000  0.3727140000000 1.0
C      1  0.3906210000000  0.5205450000000  0.4260130000000 1.0
C      1  0.5299700000000  0.3760850000000  0.4462460000000 1.0
C      1  0.4631500000000  0.5806520000000  0.4942470000000 1.0
C      1  0.4560410000000  0.4583000000000  0.4060590000000 1.0
C      1  0.4548120000000  0.5926310000000  0.4466510000000 1.0
C      1  0.4960550000000  0.4555310000000  0.5269860000000 1.0
C      1  0.4576510000000  0.4977330000000  0.5981360000000 1.0
C      1  0.4906560000000  0.5978820000000  0.5376860000000 1.0
C      1  0.4997820000000  0.3629680000000  0.4848900000000 1.0
C      1  0.5483000000000  0.4618810000000  0.3674300000000 1.0
C      1  0.4833010000000  0.4643230000000  0.4520200000000 1.0
C      1  0.4773870000000  0.4635600000000  0.5754110000000 1.0
C      1  0.4398630000000  0.5656820000000  0.5788300000000 1.0
C      1  0.6252850000000  0.5028950000000  0.4836650000000 1.0
C      1  0.5743750000000  0.4364000000000  0.5540470000000 1.0
C      1  0.5419960000000  0.4696420000000  0.5519810000000 1.0
C      1  0.4088690000000  0.4317210000000  0.5171590000000 1.0
C      1  0.5565350000000  0.4871360000000  0.3765260000000 1.0
C      1  0.5381820000000  0.5486800000000  0.4821420000000 1.0
C      1  0.6201650000000  0.5261730000000  0.4711340000000 1.0
C      1  0.5760490000000  0.3890650000000  0.5719680000000 1.0
C      1  0.5633820000000  0.5888700000000  0.5539050000000 1.0
C      1  0.5176190000000  0.4371710000000  0.6086030000000 1.0
C      1  0.4639500000000  0.5387990000000  0.4078180000000 1.0
C      1  0.4560080000000  0.4023300000000  0.5688280000000 1.0
C      1  0.4355970000000  0.4827250000000  0.5838320000000 1.0
C      1  0.5157370000000  0.5564190000000  0.4976850000000 1.0
C      1  0.4187610000000  0.4118630000000  0.5325540000000 1.0
C      1  0.5987300000000  0.5401230000000  0.4600510000000 1.0
C      1  0.4385250000000  0.5699490000000  0.5496080000000 1.0
C      1  0.5663880000000  0.4440200000000  0.3560430000000 1.0
C      1  0.5684330000000  0.3896260000000  0.5980060000000 1.0
C      1  0.4727580000000  0.4096240000000  0.4620780000000 1.0
C      1  0.5325020000000  0.5047440000000  0.4643640000000 1.0
C      1  0.4240040000000  0.5910380000000  0.5395850000000 1.0
C      1  0.4338000000000  0.5382740000000  0.5877290000000 1.0
C      1  0.4458790000000  0.5828590000000  0.4715320000000 1.0
C      1  0.4518560000000  0.4990290000000  0.4675970000000 1.0
C      1  0.5652240000000  0.3958110000000  0.4929680000000 1.0
C      1  0.4823370000000  0.4827660000000  0.5967690000000 1.0
C      1  0.3637180000000  0.5538800000000  0.5170540000000 1.0
C      1  0.5883230000000  0.5675150000000  0.4586220000000 1.0
C      1  0.4642710000000  0.5195840000000  0.4519080000000 1.0
C      1  0.4871970000000  0.5298680000000  0.4635660000000 1.0
C      1  0.5796710000000  0.4087280000000  0.5537510000000 1.0
C      1  0.5319700000000  0.5616040000000  0.5839040000000 1.0
C      1  0.4980270000000  0.4629810000000  0.4273480000000 1.0
C      1  0.5371160000000  0.4205070000000  0.6210040000000 1.0
C      1  0.4711070000000  0.5341160000000  0.5457770000000 1.0
C      1  0.4847140000000  0.5934510000000  0.5087840000000 1.0
C      1  0.4293670000000  0.5151440000000  0.5155460000000 1.0
C      1  0.5218220000000  0.3835630000000  0.5202830000000 1.0
C      1  0.5129680000000  0.4063820000000  0.5346050000000 1.0
C      1  0.5279850000000  0.5987070000000  0.4340960000000 1.0
C      1  0.6072050000000  0.4285410000000  0.4929170000000 1.0
C      1  0.5496350000000  0.5142990000000  0.5456400000000 1.0
C      1  0.5032840000000  0.6445580000000  0.4271120000000 1.0
C      1  0.5132430000000  0.5276320000000  0.4525040000000 1.0
C      1  0.4470240000000  0.4959700000000  0.5293660000000 1.0
C      1  0.5352800000000  0.5903150000000  0.5621150000000 1.0
C      1  0.3976370000000  0.4870710000000  0.5450060000000 1.0
C      1  0.4361610000000  0.4020800000000  0.5506610000000 1.0
C      1  0.5245190000000  0.4716970000000  0.4278610000000 1.0
C      1  0.4856390000000  0.5069620000000  0.5062600000000 1.0
C      1  0.4275170000000  0.4370360000000  0.4637920000000 1.0
C      1  0.4421410000000  0.4516250000000  0.5467880000000 1.0
C      1  0.5845690000000  0.5810240000000  0.4834210000000 1.0
C      1  0.4439810000000  0.4729320000000  0.4266490000000 1.0
C      1  0.4145950000000  0.4597240000000  0.5063700000000 1.0
C      1  0.5638130000000  0.5385360000000  0.4278620000000 1.0
C      1  0.5668360000000  0.5252700000000  0.5252170000000 1.0
C      1  0.5823890000000  0.4863300000000  0.4969150000000 1.0
C      1  0.4756190000000  0.4102000000000  0.5854530000000 1.0
C      1  0.5297010000000  0.4945600000000  0.5451720000000 1.0
C      1  0.5733220000000  0.5967680000000  0.5280840000000 1.0
C      1  0.5032630000000  0.3629110000000  0.5123100000000 1.0
C      1  0.4983120000000  0.4791690000000  0.4989430000000 1.0
C      1  0.5526950000000  0.4487750000000  0.5075740000000 1.0
C      1  0.4943750000000  0.4238920000000  0.5990030000000 1.0
C      1  0.5283750000000  0.4358160000000  0.5010520000000 1.0
C      1  0.5731110000000  0.5621660000000  0.5580800000000 1.0
C      1  0.3943680000000  0.4831760000000  0.5141760000000 1.0
C      1  0.5574130000000  0.5484940000000  0.5776200000000 1.0
C      1  0.5833210000000  0.4273000000000  0.3454150000000 1.0
C      1  0.5261000000000  0.4640590000000  0.5999660000000 1.0
C      1  0.4477510000000  0.4194680000000  0.4613400000000 1.0
C      1  0.5191010000000  0.6034410000000  0.5417990000000 1.0
C      1  0.4471180000000  0.5620380000000  0.4061070000000 1.0
C      1  0.5555510000000  0.5228890000000  0.4762150000000 1.0
C      1  0.4572240000000  0.4745400000000  0.4524740000000 1.0
C      1  0.5294180000000  0.6030100000000  0.5140180000000 1.0
C      1  0.4018740000000  0.4841430000000  0.4632570000000 1.0
C      1  0.5786950000000  0.4353460000000  0.6043640000000 1.0
C      1  0.4133690000000  0.4953140000000  0.5700830000000 1.0
C      1  0.4547540000000  0.5847500000000  0.4209680000000 1.0
C      1  0.5659580000000  0.4646050000000  0.4883540000000 1.0
C      1  0.4063040000000  0.4997710000000  0.4375700000000 1.0
C      1  0.5008270000000  0.4945380000000  0.5478970000000 1.0
C      1  0.5172660000000  0.5155730000000  0.6065810000000 1.0
C      1  0.3890910000000  0.5277010000000  0.4843960000000 1.0
C      1  0.4848920000000  0.5505950000000  0.5632290000000 1.0
C      1  0.4963610000000  0.4656290000000  0.3781430000000 1.0
C      1  0.5211500000000  0.4552660000000  0.3702800000000 1.0
C      1  0.3983540000000  0.5420130000000  0.4113210000000 1.0
C      1  0.5631590000000  0.4130820000000  0.6130640000000 1.0
C      1  0.4072160000000  0.5319020000000  0.5262070000000 1.0
C      1  0.5118070000000  0.5435500000000  0.5992360000000 1.0
C      1  0.5417810000000  0.4818700000000  0.4471840000000 1.0
C      1  0.4632030000000  0.5727130000000  0.5968610000000 1.0
C      1  0.3851570000000  0.5388680000000  0.5098340000000 1.0
C      1  0.4192710000000  0.5567220000000  0.4027050000000 1.0
C      1  0.5170120000000  0.3848800000000  0.4717440000000 1.0
C      1  0.5568090000000  0.5213170000000  0.5721740000000 1.0
C      1  0.5398350000000  0.5748370000000  0.4413640000000 1.0
C      1  0.4881840000000  0.4899000000000  0.3664610000000 1.0
C      1  0.5381750000000  0.3886450000000  0.4954860000000 1.0
C      1  0.5850380000000  0.5729140000000  0.5124490000000 1.0
C      1  0.4132970000000  0.5238440000000  0.5746470000000 1.0
C      1  0.5004650000000  0.4102080000000  0.4685920000000 1.0
C      1  0.5746690000000  0.5254000000000  0.4519850000000 1.0
C      1  0.3900910000000  0.4985450000000  0.4865530000000 1.0
C      1  0.4759520000000  0.5073520000000  0.5347640000000 1.0
C      1  0.5547620000000  0.5103300000000  0.3893920000000 1.0
C      1  0.5696810000000  0.5117910000000  0.5004000000000 1.0
C      1  0.4221060000000  0.5666560000000  0.4702340000000 1.0
C      1  0.6103340000000  0.4812300000000  0.4936040000000 1.0
C      1  0.5169500000000  0.5371520000000  0.4039930000000 1.0
C      1  0.5272940000000  0.5532030000000  0.4548040000000 1.0
C      1  0.5451490000000  0.5299160000000  0.4073300000000 1.0
C      1  0.5580980000000  0.4516650000000  0.5354240000000 1.0
C      1  0.4321690000000  0.4985460000000  0.4240070000000 1.0
C      1  0.4847240000000  0.5777800000000  0.5558650000000 1.0
C      1  0.4022390000000  0.5373360000000  0.5531210000000 1.0
C      1  0.6170390000000  0.4536490000000  0.4939410000000 1.0
C      1  0.4044810000000  0.5461390000000  0.4687070000000 1.0
C      1  0.4360190000000  0.5097090000000  0.4881300000000 1.0
C      1  0.4819590000000  0.5475080000000  0.5929940000000 1.0
C      1  0.4492750000000  0.4600680000000  0.5721110000000 1.0
C      1  0.4146670000000  0.4597030000000  0.4752780000000 1.0
C      1  0.5686270000000  0.6053950000000  0.4834860000000 1.0
C      1  0.5467650000000  0.4643080000000  0.5802200000000 1.0
C      1  0.4637290000000  0.5538640000000  0.5047010000000 1.0
C      1  0.5242680000000  0.4903750000000  0.4897310000000 1.0
C      1  0.5110020000000  0.4349310000000  0.4785350000000 1.0
END
