TITL C-612606-7351-498 -0.0120723729157826 125000 -232.388199223321 0 0 40 (C1) n - 1
REM
REM in /home/nfs/bkarasulu/CARBON/AIRSS/Generating-Clusters/TERSOFF/Only-C1/FIRE-HFTN
REM
REM
REM
REM
REM
REM ./C.cell (11c1c37f851c82e70ff6c80c92926a4b)
REM AIRSS Version 0.9.1 bugfix July 2018 build 013d7b7c2542+ Fri, 06 Jul 2018 19:26:36 +0100
REM compiler GCC version 9.2.1 20190827 (Red Hat 9.2.1-1)
REM options -cpp -mtune=generic -march=x86-64 -g -O0 -fpre-include=/usr/include/finclude/math-vector-fortran.h
REM seed -1662725624 852090659 -1817639678 -876091713 1146384403 577644389 158439323 1491292435 -1521480167 2092581059 -1199268478 597965626 260606429 1152930109 -31887922 -1802849864 1264112582 1921141009 -1575553590 423609110 380672709 -704696769 -572649889 -835675546 1953101601 1371871446 -1269892241 -1145770140 -317313624 1352629876 -1340417408 930299684 268042724
REM
CELL 1.54180   50.00000   50.00000   50.00000   90.00000   90.00000   90.00000
LATT -1
SFAC C  
C      1  0.4489120000000  0.5194900000000  0.5442760000000 1.0
C      1  0.4657210000000  0.4698320000000  0.5378530000000 1.0
C      1  0.4517100000000  0.5166510000000  0.4745050000000 1.0
C      1  0.4897950000000  0.4651590000000  0.4973290000000 1.0
C      1  0.5191330000000  0.5400780000000  0.4999140000000 1.0
C      1  0.5138330000000  0.5052700000000  0.5545050000000 1.0
C      1  0.4960340000000  0.5021030000000  0.4577530000000 1.0
C      1  0.5404930000000  0.4539150000000  0.4826420000000 1.0
C      1  0.4630080000000  0.4683520000000  0.4609790000000 1.0
C      1  0.5219700000000  0.4312530000000  0.4848680000000 1.0
C      1  0.4872800000000  0.4587000000000  0.4469450000000 1.0
C      1  0.4997010000000  0.4605060000000  0.5474390000000 1.0
C      1  0.4629300000000  0.4618730000000  0.4889980000000 1.0
C      1  0.5099740000000  0.4770770000000  0.4508220000000 1.0
C      1  0.4928670000000  0.5048910000000  0.5339530000000 1.0
C      1  0.5469530000000  0.5732730000000  0.4646800000000 1.0
C      1  0.5396180000000  0.4661200000000  0.5106760000000 1.0
C      1  0.4964690000000  0.5545650000000  0.5162290000000 1.0
C      1  0.5351130000000  0.5219060000000  0.5458290000000 1.0
C      1  0.5340330000000  0.5580730000000  0.4820860000000 1.0
C      1  0.5032960000000  0.4405270000000  0.5044800000000 1.0
C      1  0.5194200000000  0.4725730000000  0.5915530000000 1.0
C      1  0.5001020000000  0.5185220000000  0.4837000000000 1.0
C      1  0.5375460000000  0.5217020000000  0.5170890000000 1.0
C      1  0.4734490000000  0.5340950000000  0.4834810000000 1.0
C      1  0.4690570000000  0.5475740000000  0.5089950000000 1.0
C      1  0.4456980000000  0.5329520000000  0.5194120000000 1.0
C      1  0.4285900000000  0.4880370000000  0.5083340000000 1.0
C      1  0.5327330000000  0.4938690000000  0.5089600000000 1.0
C      1  0.5366890000000  0.4698050000000  0.4587120000000 1.0
C      1  0.5598480000000  0.5883750000000  0.4471240000000 1.0
C      1  0.4481090000000  0.4673630000000  0.5131930000000 1.0
C      1  0.5725300000000  0.6032270000000  0.4298550000000 1.0
C      1  0.5014910000000  0.4947540000000  0.5052120000000 1.0
C      1  0.4652080000000  0.4976710000000  0.4575110000000 1.0
C      1  0.5185030000000  0.4507130000000  0.5272190000000 1.0
C      1  0.5116200000000  0.4790480000000  0.5663250000000 1.0
C      1  0.5582580000000  0.4777910000000  0.4438630000000 1.0
C      1  0.4352350000000  0.5142190000000  0.4985520000000 1.0
C      1  0.4670710000000  0.4980950000000  0.5441490000000 1.0
END
