TITL C-612600-6631-954 0.229901243711504 125000 -1167.71477541604 0 0 192 (C1) n - 1
REM
REM in /home/nfs/bkarasulu/CARBON/AIRSS/Generating-Clusters/TERSOFF/Only-C1/FIRE-HFTN
REM
REM
REM
REM
REM
REM ./C.cell (11c1c37f851c82e70ff6c80c92926a4b)
REM AIRSS Version 0.9.1 bugfix July 2018 build 013d7b7c2542+ Fri, 06 Jul 2018 19:26:36 +0100
REM compiler GCC version 9.2.1 20190827 (Red Hat 9.2.1-1)
REM options -cpp -mtune=generic -march=x86-64 -g -O0 -fpre-include=/usr/include/finclude/math-vector-fortran.h
REM seed -436214152 -742593464 576407867 852068397 -968087177 -368661150 -377499134 -41958535 -2001672689 -1216575741 -414736228 426822345 -1230678898 -1979209844 -51193132 2018395944 -759396546 1515476194 1417043619 1029355849 -2071345955 -692985291 138393220 -1064268379 373323447 2068723459 -1061244944 775102839 -472625054 1934283176 -96301151 821282568 -1850214177
REM
CELL 1.54180   50.00000   50.00000   50.00000   90.00000   90.00000   90.00000
LATT -1
SFAC C  
C      1  0.5601990000000  0.4890180000000  0.4509300000000 1.0
C      1  0.4543060000000  0.5846760000000  0.4232660000000 1.0
C      1  0.5616070000000  0.4417620000000  0.3915630000000 1.0
C      1  0.4728700000000  0.6179790000000  0.4630010000000 1.0
C      1  0.4805600000000  0.5450340000000  0.5143700000000 1.0
C      1  0.5893880000000  0.4933200000000  0.5478070000000 1.0
C      1  0.4428200000000  0.4211350000000  0.4983660000000 1.0
C      1  0.5231740000000  0.4585480000000  0.4469040000000 1.0
C      1  0.4589320000000  0.6495710000000  0.4998160000000 1.0
C      1  0.5274100000000  0.3869940000000  0.4514140000000 1.0
C      1  0.5444490000000  0.5908450000000  0.4917170000000 1.0
C      1  0.4730890000000  0.6015520000000  0.4367680000000 1.0
C      1  0.3949960000000  0.4336950000000  0.4512960000000 1.0
C      1  0.4494870000000  0.4991180000000  0.3908320000000 1.0
C      1  0.5341140000000  0.5353630000000  0.3989220000000 1.0
C      1  0.4303740000000  0.5319130000000  0.4910970000000 1.0
C      1  0.5719390000000  0.5959570000000  0.4932070000000 1.0
C      1  0.4771980000000  0.5092080000000  0.3895300000000 1.0
C      1  0.4556730000000  0.4035350000000  0.4365660000000 1.0
C      1  0.5904540000000  0.4070120000000  0.4833500000000 1.0
C      1  0.4786190000000  0.5182260000000  0.4720480000000 1.0
C      1  0.4802220000000  0.6049630000000  0.5926770000000 1.0
C      1  0.4125310000000  0.4797450000000  0.4814910000000 1.0
C      1  0.4198520000000  0.5904000000000  0.5089400000000 1.0
C      1  0.3798320000000  0.4470740000000  0.4719530000000 1.0
C      1  0.4158010000000  0.5759920000000  0.4839350000000 1.0
C      1  0.5233660000000  0.6101480000000  0.4928920000000 1.0
C      1  0.4458810000000  0.6045710000000  0.5024780000000 1.0
C      1  0.4526450000000  0.4735210000000  0.5089300000000 1.0
C      1  0.4335340000000  0.4470340000000  0.4150790000000 1.0
C      1  0.4569090000000  0.6305890000000  0.5459060000000 1.0
C      1  0.3987820000000  0.5411110000000  0.4563440000000 1.0
C      1  0.6194250000000  0.4752320000000  0.4300410000000 1.0
C      1  0.5066670000000  0.4019700000000  0.4923190000000 1.0
C      1  0.4813010000000  0.3930820000000  0.5017900000000 1.0
C      1  0.4462390000000  0.4874160000000  0.4437410000000 1.0
C      1  0.4332400000000  0.5521510000000  0.6278450000000 1.0
C      1  0.5108740000000  0.5508050000000  0.4052180000000 1.0
C      1  0.4859140000000  0.5346560000000  0.4019800000000 1.0
C      1  0.4817880000000  0.5649170000000  0.6435880000000 1.0
C      1  0.6075680000000  0.4849260000000  0.5671080000000 1.0
C      1  0.4703070000000  0.5593820000000  0.5922530000000 1.0
C      1  0.4149240000000  0.4274070000000  0.5929390000000 1.0
C      1  0.5050990000000  0.5742110000000  0.6336500000000 1.0
C      1  0.4856510000000  0.4428200000000  0.5924980000000 1.0
C      1  0.3771730000000  0.5320050000000  0.5245600000000 1.0
C      1  0.4377800000000  0.5929770000000  0.5735410000000 1.0
C      1  0.5528430000000  0.5432230000000  0.3807880000000 1.0
C      1  0.5238450000000  0.3833630000000  0.4789420000000 1.0
C      1  0.6352580000000  0.4742950000000  0.4531570000000 1.0
C      1  0.4141490000000  0.5251990000000  0.4368020000000 1.0
C      1  0.5825970000000  0.4189960000000  0.4378190000000 1.0
C      1  0.5619570000000  0.5183840000000  0.6001850000000 1.0
C      1  0.4296390000000  0.4889500000000  0.5037980000000 1.0
C      1  0.5807650000000  0.5381820000000  0.5309830000000 1.0
C      1  0.4505420000000  0.5240120000000  0.4730970000000 1.0
C      1  0.3910550000000  0.4407640000000  0.5516470000000 1.0
C      1  0.5209290000000  0.6184690000000  0.5205330000000 1.0
C      1  0.5358740000000  0.5643830000000  0.4983210000000 1.0
C      1  0.4006710000000  0.4981320000000  0.4354150000000 1.0
C      1  0.5110360000000  0.5349340000000  0.5652000000000 1.0
C      1  0.4678560000000  0.5887420000000  0.5118380000000 1.0
C      1  0.4560240000000  0.5573270000000  0.6412860000000 1.0
C      1  0.4179840000000  0.4766570000000  0.4502530000000 1.0
C      1  0.6670910000000  0.5065330000000  0.4721190000000 1.0
C      1  0.6363300000000  0.4691430000000  0.6081530000000 1.0
C      1  0.4304440000000  0.5207210000000  0.3916780000000 1.0
C      1  0.3735910000000  0.5056020000000  0.5196830000000 1.0
C      1  0.5634200000000  0.4812060000000  0.5450470000000 1.0
C      1  0.4627900000000  0.5801740000000  0.5383270000000 1.0
C      1  0.5357490000000  0.4309150000000  0.3911660000000 1.0
C      1  0.5028920000000  0.4770820000000  0.4358130000000 1.0
C      1  0.5110600000000  0.4755420000000  0.5254190000000 1.0
C      1  0.5020560000000  0.4671520000000  0.3743160000000 1.0
C      1  0.4389530000000  0.4272450000000  0.6057010000000 1.0
C      1  0.4537320000000  0.4843590000000  0.5695860000000 1.0
C      1  0.5117160000000  0.4816950000000  0.5564870000000 1.0
C      1  0.4632510000000  0.5688780000000  0.4710990000000 1.0
C      1  0.6028600000000  0.4681720000000  0.4104830000000 1.0
C      1  0.5604640000000  0.4657860000000  0.5216710000000 1.0
C      1  0.5037130000000  0.4312990000000  0.5492220000000 1.0
C      1  0.5452780000000  0.3428830000000  0.4980090000000 1.0
C      1  0.5416430000000  0.4921010000000  0.5630670000000 1.0
C      1  0.4350560000000  0.4178540000000  0.5503420000000 1.0
C      1  0.4692130000000  0.4532610000000  0.4669660000000 1.0
C      1  0.5347760000000  0.5572910000000  0.5259840000000 1.0
C      1  0.5826700000000  0.3942470000000  0.5055940000000 1.0
C      1  0.4942760000000  0.4554450000000  0.5660150000000 1.0
C      1  0.4534840000000  0.4557130000000  0.5301610000000 1.0
C      1  0.5407490000000  0.4095210000000  0.5253740000000 1.0
C      1  0.4566390000000  0.3977010000000  0.4879400000000 1.0
C      1  0.3988400000000  0.4058300000000  0.4532750000000 1.0
C      1  0.5701970000000  0.5911730000000  0.5720460000000 1.0
C      1  0.6465240000000  0.4504960000000  0.4607950000000 1.0
C      1  0.4178680000000  0.5502600000000  0.6057800000000 1.0
C      1  0.4093500000000  0.5486590000000  0.4813930000000 1.0
C      1  0.5728680000000  0.5686180000000  0.5864880000000 1.0
C      1  0.4888570000000  0.4953360000000  0.4861580000000 1.0
C      1  0.4558480000000  0.6255850000000  0.4849250000000 1.0
C      1  0.5353160000000  0.5106740000000  0.4133030000000 1.0
C      1  0.4412340000000  0.4302410000000  0.5253550000000 1.0
C      1  0.4632330000000  0.4246960000000  0.5914290000000 1.0
C      1  0.4073300000000  0.5775990000000  0.5342310000000 1.0
C      1  0.5756700000000  0.4567570000000  0.4998440000000 1.0
C      1  0.5932140000000  0.5620070000000  0.5227100000000 1.0
C      1  0.6810270000000  0.4998040000000  0.4946920000000 1.0
C      1  0.5290660000000  0.4078070000000  0.4064730000000 1.0
C      1  0.5563240000000  0.3888630000000  0.5136350000000 1.0
C      1  0.5793200000000  0.4245460000000  0.4642730000000 1.0
C      1  0.5389450000000  0.5226380000000  0.5571830000000 1.0
C      1  0.4722540000000  0.5401950000000  0.4266240000000 1.0
C      1  0.4439360000000  0.4398720000000  0.4765980000000 1.0
C      1  0.5017980000000  0.5936040000000  0.4385190000000 1.0
C      1  0.6402600000000  0.4977460000000  0.4685090000000 1.0
C      1  0.3775120000000  0.4776180000000  0.5147530000000 1.0
C      1  0.4529450000000  0.6035550000000  0.5521920000000 1.0
C      1  0.5307450000000  0.4168180000000  0.5515880000000 1.0
C      1  0.3872580000000  0.4683770000000  0.4893200000000 1.0
C      1  0.4115270000000  0.4265540000000  0.5646970000000 1.0
C      1  0.4649580000000  0.4633950000000  0.5546510000000 1.0
C      1  0.4977220000000  0.4898650000000  0.3898160000000 1.0
C      1  0.4462090000000  0.3914640000000  0.4610580000000 1.0
C      1  0.5954100000000  0.5139240000000  0.5291870000000 1.0
C      1  0.4727120000000  0.4727370000000  0.4891650000000 1.0
C      1  0.5694790000000  0.5440110000000  0.5967990000000 1.0
C      1  0.4956520000000  0.5077060000000  0.5638000000000 1.0
C      1  0.5065130000000  0.6116140000000  0.4702060000000 1.0
C      1  0.5831730000000  0.4562930000000  0.3971050000000 1.0
C      1  0.4407760000000  0.5151320000000  0.4486850000000 1.0
C      1  0.5177570000000  0.5850040000000  0.6121540000000 1.0
C      1  0.5561940000000  0.5064580000000  0.4312830000000 1.0
C      1  0.5913100000000  0.5836410000000  0.5071180000000 1.0
C      1  0.4606880000000  0.5501930000000  0.5357550000000 1.0
C      1  0.4999690000000  0.5251630000000  0.5172620000000 1.0
C      1  0.5568210000000  0.6082990000000  0.5558450000000 1.0
C      1  0.4383130000000  0.5788490000000  0.4661860000000 1.0
C      1  0.4178540000000  0.3878160000000  0.4598650000000 1.0
C      1  0.5480460000000  0.3170090000000  0.4994210000000 1.0
C      1  0.5155900000000  0.5624610000000  0.5486280000000 1.0
C      1  0.6191580000000  0.5130420000000  0.4798680000000 1.0
C      1  0.6063160000000  0.5316460000000  0.4643620000000 1.0
C      1  0.5131350000000  0.4321930000000  0.4471890000000 1.0
C      1  0.4815810000000  0.3870130000000  0.5298850000000 1.0
C      1  0.5123060000000  0.5490740000000  0.4526680000000 1.0
C      1  0.4887760000000  0.5333490000000  0.4503180000000 1.0
C      1  0.5300530000000  0.6085630000000  0.5460420000000 1.0
C      1  0.4492580000000  0.4231910000000  0.4186980000000 1.0
C      1  0.4415480000000  0.4710300000000  0.3984620000000 1.0
C      1  0.4259560000000  0.5395130000000  0.4130150000000 1.0
C      1  0.4303650000000  0.5161210000000  0.5143790000000 1.0
C      1  0.5657680000000  0.4477540000000  0.4744350000000 1.0
C      1  0.5159750000000  0.4444630000000  0.3765350000000 1.0
C      1  0.4768610000000  0.5670840000000  0.4955760000000 1.0
C      1  0.5469220000000  0.4498420000000  0.6235970000000 1.0
C      1  0.4593190000000  0.6496170000000  0.5269820000000 1.0
C      1  0.6225370000000  0.4769560000000  0.5874580000000 1.0
C      1  0.4487740000000  0.5565090000000  0.4210930000000 1.0
C      1  0.4938370000000  0.5468470000000  0.5876060000000 1.0
C      1  0.4590050000000  0.5856580000000  0.5919370000000 1.0
C      1  0.6925840000000  0.5102820000000  0.4313450000000 1.0
C      1  0.4813620000000  0.3610260000000  0.5384730000000 1.0
C      1  0.4886390000000  0.4319300000000  0.4606500000000 1.0
C      1  0.6791440000000  0.5224610000000  0.4518680000000 1.0
C      1  0.4725860000000  0.4734620000000  0.4433810000000 1.0
C      1  0.4697240000000  0.5053580000000  0.5745540000000 1.0
C      1  0.5092330000000  0.4457590000000  0.5212790000000 1.0
C      1  0.4392240000000  0.5302970000000  0.5379160000000 1.0
C      1  0.4595320000000  0.4123760000000  0.5653540000000 1.0
C      1  0.4148340000000  0.5515240000000  0.5776030000000 1.0
C      1  0.5123720000000  0.5681100000000  0.4303960000000 1.0
C      1  0.5489280000000  0.4644260000000  0.4583660000000 1.0
C      1  0.5145450000000  0.5889710000000  0.5606790000000 1.0
C      1  0.5531740000000  0.5379350000000  0.5373200000000 1.0
C      1  0.3873270000000  0.5568510000000  0.5285540000000 1.0
C      1  0.5052940000000  0.4987750000000  0.5089730000000 1.0
C      1  0.6118550000000  0.5100060000000  0.5068080000000 1.0
C      1  0.5274550000000  0.3835730000000  0.3936920000000 1.0
C      1  0.5277870000000  0.5494930000000  0.4759020000000 1.0
C      1  0.6029600000000  0.4554380000000  0.5037340000000 1.0
C      1  0.4234330000000  0.5301450000000  0.5613240000000 1.0
C      1  0.4161880000000  0.5769750000000  0.5635260000000 1.0
C      1  0.5480590000000  0.4714260000000  0.6090410000000 1.0
C      1  0.5068480000000  0.5956640000000  0.5880150000000 1.0
C      1  0.5505330000000  0.4934100000000  0.5921430000000 1.0
C      1  0.3794660000000  0.4592550000000  0.5361800000000 1.0
C      1  0.5208600000000  0.4225950000000  0.5069130000000 1.0
C      1  0.5238010000000  0.4092930000000  0.4344270000000 1.0
C      1  0.4826470000000  0.4087010000000  0.5487130000000 1.0
C      1  0.4135950000000  0.4504920000000  0.4365800000000 1.0
C      1  0.5131230000000  0.4923170000000  0.4136110000000 1.0
C      1  0.5420370000000  0.3704090000000  0.4966770000000 1.0
C      1  0.6770970000000  0.5497430000000  0.4531670000000 1.0
END
