TITL C-612602-9376-1443 2481.3366433348 125000 -856.472913612647 0 0 143 (C1) n - 1
REM
REM in /home/nfs/bkarasulu/CARBON/AIRSS/Generating-Clusters/TERSOFF/Only-C1/FIRE-HFTN
REM
REM
REM
REM
REM
REM ./C.cell (11c1c37f851c82e70ff6c80c92926a4b)
REM AIRSS Version 0.9.1 bugfix July 2018 build 013d7b7c2542+ Fri, 06 Jul 2018 19:26:36 +0100
REM compiler GCC version 9.2.1 20190827 (Red Hat 9.2.1-1)
REM options -cpp -mtune=generic -march=x86-64 -g -O0 -fpre-include=/usr/include/finclude/math-vector-fortran.h
REM seed -36626133 1155957686 -793064730 -446798852 -380427207 2000551284 -2110360030 393558352 -151591972 -431146128 -1983973651 -956490756 -1074837676 1475761014 -746596188 1218542663 -2141213143 -776895790 1237135307 327632658 -715387039 1536371686 1906015698 486360542 100060955 1189671138 1906743906 -2049531910 287776370 1861992629 -956795162 -859466403 2135177200
REM
CELL 1.54180   50.00000   50.00000   50.00000   90.00000   90.00000   90.00000
LATT -1
SFAC C  
C      1  0.5958470000000  0.4718230000000  0.5296410000000 1.0
C      1  0.4762940000000  0.4494530000000  0.4202170000000 1.0
C      1  0.4279010000000  0.4872310000000  0.5908800000000 1.0
C      1  0.4980090000000  0.4886190000000  0.5006020000000 1.0
C      1  0.4917750000000  0.5185660000000  0.4946390000000 1.0
C      1  0.4808820000000  0.5965550000000  0.5465620000000 1.0
C      1  0.4360740000000  0.5067260000000  0.6107830000000 1.0
C      1  0.5091130000000  0.5336990000000  0.4365130000000 1.0
C      1  0.4582850000000  0.5858000000000  0.5314270000000 1.0
C      1  0.4301110000000  0.5156340000000  0.4881070000000 1.0
C      1  0.5275500000000  0.5099120000000  0.3961550000000 1.0
C      1  0.4443490000000  0.5617460000000  0.5420720000000 1.0
C      1  0.3922680000000  0.4910540000000  0.5063420000000 1.0
C      1  0.4485330000000  0.4727400000000  0.5773050000000 1.0
C      1  0.5382810000000  0.4923350000000  0.5322890000000 1.0
C      1  0.5881680000000  0.4460130000000  0.4572900000000 1.0
C      1  0.4690600000000  0.4045630000000  0.4375500000000 1.0
C      1  0.5920410000000  0.4962540000000  0.5443940000000 1.0
C      1  0.5086430000000  0.4839790000000  0.4368080000000 1.0
C      1  0.5257270000000  0.5828370000000  0.5478050000000 1.0
C      1  0.5074280000000  0.4155170000000  0.4985310000000 1.0
C      1  0.4326660000000  0.5654160000000  0.4342790000000 1.0
C      1  0.5455660000000  0.4447930000000  0.4389420000000 1.0
C      1  0.5737140000000  0.5716180000000  0.4721840000000 1.0
C      1  0.5197720000000  0.6129380000000  0.5110990000000 1.0
C      1  0.5345080000000  0.6042840000000  0.4881840000000 1.0
C      1  0.5250200000000  0.5471540000000  0.5828270000000 1.0
C      1  0.5451270000000  0.5296960000000  0.4057760000000 1.0
C      1  0.5044620000000  0.4746040000000  0.6083920000000 1.0
C      1  0.4197980000000  0.5323080000000  0.5748040000000 1.0
C      1  0.5468310000000  0.3935090000000  0.4986520000000 1.0
C      1  0.3929040000000  0.5093390000000  0.5282890000000 1.0
C      1  0.5282250000000  0.5114610000000  0.5514950000000 1.0
C      1  0.5584950000000  0.5655940000000  0.4466820000000 1.0
C      1  0.4669840000000  0.4498850000000  0.5210430000000 1.0
C      1  0.5268440000000  0.4360500000000  0.5048770000000 1.0
C      1  0.5079390000000  0.6022710000000  0.5346170000000 1.0
C      1  0.4853360000000  0.4860610000000  0.5491880000000 1.0
C      1  0.4740920000000  0.6011370000000  0.4848720000000 1.0
C      1  0.5082060000000  0.3219310000000  0.5136210000000 1.0
C      1  0.4101490000000  0.5039440000000  0.5742380000000 1.0
C      1  0.5191480000000  0.5463400000000  0.4601470000000 1.0
C      1  0.4975850000000  0.6275630000000  0.3527610000000 1.0
C      1  0.5863210000000  0.4961660000000  0.4768580000000 1.0
C      1  0.3599480000000  0.4402810000000  0.4655780000000 1.0
C      1  0.5013990000000  0.5507120000000  0.4153510000000 1.0
C      1  0.5737580000000  0.4424030000000  0.4347060000000 1.0
C      1  0.5273470000000  0.5528630000000  0.5085060000000 1.0
C      1  0.4690560000000  0.5316300000000  0.5128980000000 1.0
C      1  0.4828200000000  0.4750200000000  0.4775530000000 1.0
C      1  0.4864470000000  0.4219890000000  0.4228690000000 1.0
C      1  0.4662180000000  0.5421560000000  0.5408230000000 1.0
C      1  0.5576400000000  0.4905190000000  0.4312980000000 1.0
C      1  0.5683570000000  0.5113690000000  0.4919870000000 1.0
C      1  0.4950360000000  0.5950670000000  0.3945310000000 1.0
C      1  0.5280670000000  0.4920860000000  0.5056670000000 1.0
C      1  0.4429820000000  0.4632580000000  0.5121010000000 1.0
C      1  0.5905540000000  0.5506100000000  0.4835870000000 1.0
C      1  0.5417600000000  0.5328020000000  0.5641290000000 1.0
C      1  0.5199910000000  0.5336790000000  0.4877240000000 1.0
C      1  0.5433790000000  0.4190880000000  0.5577780000000 1.0
C      1  0.5406080000000  0.5113330000000  0.4893990000000 1.0
C      1  0.5171890000000  0.4276570000000  0.5785190000000 1.0
C      1  0.4793500000000  0.5210980000000  0.4659330000000 1.0
C      1  0.4502930000000  0.4516260000000  0.4349660000000 1.0
C      1  0.4899480000000  0.4487040000000  0.4708960000000 1.0
C      1  0.4450150000000  0.5124530000000  0.5120190000000 1.0
C      1  0.5235420000000  0.4700620000000  0.5689260000000 1.0
C      1  0.5070950000000  0.5017140000000  0.5967090000000 1.0
C      1  0.5386550000000  0.4649530000000  0.5444310000000 1.0
C      1  0.5179340000000  0.4523440000000  0.5263730000000 1.0
C      1  0.4966930000000  0.5097270000000  0.4450400000000 1.0
C      1  0.5821860000000  0.5019880000000  0.4315020000000 1.0
C      1  0.5735490000000  0.4539830000000  0.6041030000000 1.0
C      1  0.4900800000000  0.4216540000000  0.4770990000000 1.0
C      1  0.4981070000000  0.6431720000000  0.3318860000000 1.0
C      1  0.4946070000000  0.4726770000000  0.4137640000000 1.0
C      1  0.4951030000000  0.4496180000000  0.5945360000000 1.0
C      1  0.5680280000000  0.5374800000000  0.5543330000000 1.0
C      1  0.6051560000000  0.5358970000000  0.4626890000000 1.0
C      1  0.4569830000000  0.4856480000000  0.5529030000000 1.0
C      1  0.4408970000000  0.4592150000000  0.4616940000000 1.0
C      1  0.5066970000000  0.4887820000000  0.3913410000000 1.0
C      1  0.3989460000000  0.4677700000000  0.4908630000000 1.0
C      1  0.5190810000000  0.5941770000000  0.4660570000000 1.0
C      1  0.4431570000000  0.4884270000000  0.5274960000000 1.0
C      1  0.4670240000000  0.4526470000000  0.5873250000000 1.0
C      1  0.4397910000000  0.5048200000000  0.4654460000000 1.0
C      1  0.4664090000000  0.4255190000000  0.5349600000000 1.0
C      1  0.3785670000000  0.4535970000000  0.4780340000000 1.0
C      1  0.5337000000000  0.4192370000000  0.4468730000000 1.0
C      1  0.4895200000000  0.3706620000000  0.5003820000000 1.0
C      1  0.5376210000000  0.5659970000000  0.5291000000000 1.0
C      1  0.4263520000000  0.4584730000000  0.4882400000000 1.0
C      1  0.4806770000000  0.4028220000000  0.5357910000000 1.0
C      1  0.4626520000000  0.5828020000000  0.5030180000000 1.0
C      1  0.4918070000000  0.5773200000000  0.4155750000000 1.0
C      1  0.5554060000000  0.4394260000000  0.4977620000000 1.0
C      1  0.4196430000000  0.5474640000000  0.5497390000000 1.0
C      1  0.4970850000000  0.3941110000000  0.5146980000000 1.0
C      1  0.4720900000000  0.3754450000000  0.4781440000000 1.0
C      1  0.5718690000000  0.4271670000000  0.5183660000000 1.0
C      1  0.5312600000000  0.5710500000000  0.4550140000000 1.0
C      1  0.4747500000000  0.4005820000000  0.4649890000000 1.0
C      1  0.4967410000000  0.6115220000000  0.3738450000000 1.0
C      1  0.4741400000000  0.5356160000000  0.5664440000000 1.0
C      1  0.5581400000000  0.5479790000000  0.4227760000000 1.0
C      1  0.5617770000000  0.5937690000000  0.4871760000000 1.0
C      1  0.3820970000000  0.5727930000000  0.4928060000000 1.0
C      1  0.4883680000000  0.5851730000000  0.5728760000000 1.0
C      1  0.4907860000000  0.5973240000000  0.4620900000000 1.0
C      1  0.4644420000000  0.5465630000000  0.4667390000000 1.0
C      1  0.4860670000000  0.5418410000000  0.6115660000000 1.0
C      1  0.5828430000000  0.4468700000000  0.5351920000000 1.0
C      1  0.4089020000000  0.5647940000000  0.4236070000000 1.0
C      1  0.3895410000000  0.5558300000000  0.5111340000000 1.0
C      1  0.4006110000000  0.5376820000000  0.5293200000000 1.0
C      1  0.5822620000000  0.5322570000000  0.5066700000000 1.0
C      1  0.5971890000000  0.5056510000000  0.5926030000000 1.0
C      1  0.4576050000000  0.5650250000000  0.4465400000000 1.0
C      1  0.5133100000000  0.4143110000000  0.4274380000000 1.0
C      1  0.5847000000000  0.5238780000000  0.5351170000000 1.0
C      1  0.4534150000000  0.3570630000000  0.4704010000000 1.0
C      1  0.5541600000000  0.4050960000000  0.5271290000000 1.0
C      1  0.5968640000000  0.5097500000000  0.4542410000000 1.0
C      1  0.5740820000000  0.4645100000000  0.5788210000000 1.0
C      1  0.4916760000000  0.4684470000000  0.5246220000000 1.0
C      1  0.4783080000000  0.5837880000000  0.4397860000000 1.0
C      1  0.3922350000000  0.4973460000000  0.5539580000000 1.0
C      1  0.4384980000000  0.5327110000000  0.5978800000000 1.0
C      1  0.5147930000000  0.5725030000000  0.5728980000000 1.0
C      1  0.5737360000000  0.4502030000000  0.4796280000000 1.0
C      1  0.5874750000000  0.4895960000000  0.5725960000000 1.0
C      1  0.5361500000000  0.4728160000000  0.4382660000000 1.0
C      1  0.4623030000000  0.5555260000000  0.4941410000000 1.0
C      1  0.4983480000000  0.4840060000000  0.3655240000000 1.0
C      1  0.5078120000000  0.4954020000000  0.5671190000000 1.0
C      1  0.5612230000000  0.4496790000000  0.5557250000000 1.0
C      1  0.5420180000000  0.4018260000000  0.4709030000000 1.0
C      1  0.4649940000000  0.5405540000000  0.5929700000000 1.0
C      1  0.4574330000000  0.4828420000000  0.4663520000000 1.0
C      1  0.5102210000000  0.5301260000000  0.6021280000000 1.0
C      1  0.4988230000000  0.3453830000000  0.5072150000000 1.0
END
