TITL C-612604-1799-726 2.29561559457294e-05 125000 -196.655764555096 0 0 34 (C1) n - 1
REM
REM in /home/nfs/bkarasulu/CARBON/AIRSS/Generating-Clusters/TERSOFF/Only-C1/FIRE-HFTN
REM
REM
REM
REM
REM
REM ./C.cell (11c1c37f851c82e70ff6c80c92926a4b)
REM AIRSS Version 0.9.1 bugfix July 2018 build 013d7b7c2542+ Fri, 06 Jul 2018 19:26:36 +0100
REM compiler GCC version 9.2.1 20190827 (Red Hat 9.2.1-1)
REM options -cpp -mtune=generic -march=x86-64 -g -O0 -fpre-include=/usr/include/finclude/math-vector-fortran.h
REM seed 332794736 1389198293 -259961494 179744754 -934322735 -288128894 -76540139 76219821 -431327064 1801807334 121986021 -940327514 1319146580 -363248012 355165279 1282285779 -1539503962 270010654 905944418 1110723743 -1976628669 -206900359 -1200635961 -567414258 -512980855 -2018096266 1682470396 -883927965 1037775548 713625111 -107533244 -1559069838 -2000269125
REM
CELL 1.54180   50.00000   50.00000   50.00000   90.00000   90.00000   90.00000
LATT -1
SFAC C  
C      1  0.4816620000000  0.5152310000000  0.4279260000000 1.0
C      1  0.5167060000000  0.5280480000000  0.4529780000000 1.0
C      1  0.4970390000000  0.5206880000000  0.5727860000000 1.0
C      1  0.4845210000000  0.5122780000000  0.5487280000000 1.0
C      1  0.5155870000000  0.4431370000000  0.4661730000000 1.0
C      1  0.4881520000000  0.4673660000000  0.4356140000000 1.0
C      1  0.4886250000000  0.5348100000000  0.4481640000000 1.0
C      1  0.4597940000000  0.4682220000000  0.4998250000000 1.0
C      1  0.4896460000000  0.5268220000000  0.5247310000000 1.0
C      1  0.5375620000000  0.4594440000000  0.4746990000000 1.0
C      1  0.5430820000000  0.5351250000000  0.5526030000000 1.0
C      1  0.5326110000000  0.5276350000000  0.5046750000000 1.0
C      1  0.4392720000000  0.5280460000000  0.5011370000000 1.0
C      1  0.5401680000000  0.4606050000000  0.5034890000000 1.0
C      1  0.5841570000000  0.4452980000000  0.5303710000000 1.0
C      1  0.5025590000000  0.4890350000000  0.4972850000000 1.0
C      1  0.4908830000000  0.4566790000000  0.4615960000000 1.0
C      1  0.4396390000000  0.5070680000000  0.5178750000000 1.0
C      1  0.4548530000000  0.4837150000000  0.5232490000000 1.0
C      1  0.4993100000000  0.4923980000000  0.4291650000000 1.0
C      1  0.5064720000000  0.5166790000000  0.5040110000000 1.0
C      1  0.5473850000000  0.5347550000000  0.5260850000000 1.0
C      1  0.4768800000000  0.4851310000000  0.5425820000000 1.0
C      1  0.5408350000000  0.4826390000000  0.4579870000000 1.0
C      1  0.4697300000000  0.5448670000000  0.4660100000000 1.0
C      1  0.5237070000000  0.5296670000000  0.5703040000000 1.0
C      1  0.5168880000000  0.4713390000000  0.5158980000000 1.0
C      1  0.5628580000000  0.4524640000000  0.5171750000000 1.0
C      1  0.4471060000000  0.5478930000000  0.4826360000000 1.0
C      1  0.4823240000000  0.4731660000000  0.4835220000000 1.0
C      1  0.4322730000000  0.5708760000000  0.4807770000000 1.0
C      1  0.4840660000000  0.5202690000000  0.5967720000000 1.0
C      1  0.4999430000000  0.4677540000000  0.5387300000000 1.0
C      1  0.5237070000000  0.5008510000000  0.4444410000000 1.0
END
