TITL C-612600-6631-160 0.142013610473023 125000 -174.212352172361 0 0 31 (C1) n - 1
REM
REM in /home/nfs/bkarasulu/CARBON/AIRSS/Generating-Clusters/TERSOFF/Only-C1/FIRE-HFTN
REM
REM
REM
REM
REM
REM ./C.cell (11c1c37f851c82e70ff6c80c92926a4b)
REM AIRSS Version 0.9.1 bugfix July 2018 build 013d7b7c2542+ Fri, 06 Jul 2018 19:26:36 +0100
REM compiler GCC version 9.2.1 20190827 (Red Hat 9.2.1-1)
REM options -cpp -mtune=generic -march=x86-64 -g -O0 -fpre-include=/usr/include/finclude/math-vector-fortran.h
REM seed 1872924679 2042282643 -1313502265 605748160 -1128171085 -2045179531 -1522790424 -2135154098 -1210585475 -1869384164 757471755 -2063285889 1419313437 -173655293 599947731 689566673 -1140068258 -902747563 -966657292 -302746896 -1653591334 834281927 656286330 -1021310678 1630597403 1728672021 1265231495 1123226052 551623267 650598608 1226012948 325466797 -430540008
REM
CELL 1.54180   50.00000   50.00000   50.00000   90.00000   90.00000   90.00000
LATT -1
SFAC C  
C      1  0.5441290000000  0.4597150000000  0.4504110000000 1.0
C      1  0.4294960000000  0.4445880000000  0.4580910000000 1.0
C      1  0.5478980000000  0.4872010000000  0.4966840000000 1.0
C      1  0.5759150000000  0.5255230000000  0.5201250000000 1.0
C      1  0.4221970000000  0.4817220000000  0.4878920000000 1.0
C      1  0.4945450000000  0.4409270000000  0.5154000000000 1.0
C      1  0.5230010000000  0.5541380000000  0.4991810000000 1.0
C      1  0.5431510000000  0.5604830000000  0.5194220000000 1.0
C      1  0.5679820000000  0.5068260000000  0.5003570000000 1.0
C      1  0.5047310000000  0.5334760000000  0.5084870000000 1.0
C      1  0.4249940000000  0.4569090000000  0.5031150000000 1.0
C      1  0.5517120000000  0.5025510000000  0.5554740000000 1.0
C      1  0.4266170000000  0.5277710000000  0.5028370000000 1.0
C      1  0.5116680000000  0.4604820000000  0.5172790000000 1.0
C      1  0.5299830000000  0.5497420000000  0.5433390000000 1.0
C      1  0.4743710000000  0.4872840000000  0.4627290000000 1.0
C      1  0.5898410000000  0.5713930000000  0.5092660000000 1.0
C      1  0.4835000000000  0.5221810000000  0.4949350000000 1.0
C      1  0.4285920000000  0.4352750000000  0.4858480000000 1.0
C      1  0.5280440000000  0.5011230000000  0.5394930000000 1.0
C      1  0.5742780000000  0.5150530000000  0.5466330000000 1.0
C      1  0.4378210000000  0.5049140000000  0.4913730000000 1.0
C      1  0.4169350000000  0.4712330000000  0.4609510000000 1.0
C      1  0.5144890000000  0.5259830000000  0.5354810000000 1.0
C      1  0.4652210000000  0.5049480000000  0.4827000000000 1.0
C      1  0.5704890000000  0.5534100000000  0.5159300000000 1.0
C      1  0.4724390000000  0.4650210000000  0.4479210000000 1.0
C      1  0.5288600000000  0.4824100000000  0.5177860000000 1.0
C      1  0.5463490000000  0.4730510000000  0.4726900000000 1.0
C      1  0.4541460000000  0.4454270000000  0.4444700000000 1.0
C      1  0.4166050000000  0.5492400000000  0.5136990000000 1.0
END
