TITL C-612605-9286-113 0.00241157337645702 125000 -545.686995151635 0 0 90 (C1) n - 1
REM
REM in /home/nfs/bkarasulu/CARBON/AIRSS/Generating-Clusters/TERSOFF/Only-C1/FIRE-HFTN
REM
REM
REM
REM
REM
REM ./C.cell (11c1c37f851c82e70ff6c80c92926a4b)
REM AIRSS Version 0.9.1 bugfix July 2018 build 013d7b7c2542+ Fri, 06 Jul 2018 19:26:36 +0100
REM compiler GCC version 9.2.1 20190827 (Red Hat 9.2.1-1)
REM options -cpp -mtune=generic -march=x86-64 -g -O0 -fpre-include=/usr/include/finclude/math-vector-fortran.h
REM seed 1360652526 1118463983 -1073243386 -2094242660 285911439 1618051177 949913907 -985517255 -757806816 1328460225 -1084091045 -1504303611 1248302633 995429506 -1281617022 172886142 357620174 -628920453 1148338435 -594791170 -1199490673 644036472 -816143513 831372006 -225619864 1822151411 -12501074 -45399824 1118478021 102391748 1293897175 1356580198 -340697990
REM
CELL 1.54180   50.00000   50.00000   50.00000   90.00000   90.00000   90.00000
LATT -1
SFAC C  
C      1  0.4190210000000  0.4450660000000  0.5115790000000 1.0
C      1  0.5128640000000  0.4737530000000  0.5810370000000 1.0
C      1  0.6177340000000  0.4708130000000  0.4100320000000 1.0
C      1  0.4818360000000  0.5423710000000  0.4444410000000 1.0
C      1  0.4741580000000  0.4575220000000  0.5582910000000 1.0
C      1  0.4598560000000  0.5511800000000  0.5523540000000 1.0
C      1  0.5355250000000  0.5221830000000  0.4329070000000 1.0
C      1  0.4960980000000  0.4871130000000  0.5991570000000 1.0
C      1  0.4016980000000  0.4996470000000  0.5432930000000 1.0
C      1  0.4261080000000  0.5439580000000  0.4982500000000 1.0
C      1  0.4978930000000  0.5500050000000  0.4662690000000 1.0
C      1  0.5050820000000  0.4673540000000  0.4809860000000 1.0
C      1  0.5264050000000  0.5730890000000  0.5424420000000 1.0
C      1  0.4213350000000  0.5062750000000  0.4181880000000 1.0
C      1  0.5928750000000  0.4781560000000  0.4210380000000 1.0
C      1  0.4720740000000  0.4982170000000  0.5931480000000 1.0
C      1  0.5303490000000  0.5748200000000  0.4918990000000 1.0
C      1  0.4927850000000  0.4175290000000  0.5413010000000 1.0
C      1  0.4722870000000  0.4965280000000  0.4592220000000 1.0
C      1  0.5349500000000  0.5151170000000  0.5339780000000 1.0
C      1  0.3863250000000  0.4731990000000  0.4092050000000 1.0
C      1  0.5114280000000  0.5217040000000  0.5465520000000 1.0
C      1  0.4124890000000  0.5211490000000  0.5021620000000 1.0
C      1  0.5403760000000  0.4651780000000  0.5804470000000 1.0
C      1  0.5073130000000  0.4399860000000  0.4733460000000 1.0
C      1  0.4058290000000  0.4963660000000  0.5151830000000 1.0
C      1  0.5567860000000  0.5406340000000  0.5737660000000 1.0
C      1  0.5003570000000  0.4675610000000  0.5560300000000 1.0
C      1  0.5108630000000  0.5385120000000  0.5703680000000 1.0
C      1  0.5496460000000  0.4912400000000  0.4653380000000 1.0
C      1  0.6310930000000  0.5207320000000  0.4408730000000 1.0
C      1  0.3676380000000  0.4632320000000  0.3940160000000 1.0
C      1  0.5176100000000  0.5363770000000  0.4144370000000 1.0
C      1  0.4633010000000  0.5819050000000  0.5028410000000 1.0
C      1  0.5399860000000  0.4528880000000  0.5351010000000 1.0
C      1  0.4979710000000  0.5817970000000  0.5379850000000 1.0
C      1  0.4647760000000  0.5235940000000  0.5500990000000 1.0
C      1  0.4855970000000  0.4985220000000  0.5122550000000 1.0
C      1  0.4760370000000  0.5727760000000  0.5534210000000 1.0
C      1  0.5626420000000  0.5144200000000  0.5797160000000 1.0
C      1  0.5254130000000  0.5544680000000  0.4726550000000 1.0
C      1  0.4524940000000  0.4866400000000  0.4783450000000 1.0
C      1  0.4064400000000  0.5135150000000  0.5660780000000 1.0
C      1  0.5641710000000  0.4668470000000  0.4628060000000 1.0
C      1  0.4431050000000  0.5647240000000  0.4985350000000 1.0
C      1  0.5157590000000  0.4670180000000  0.5309620000000 1.0
C      1  0.4890770000000  0.5901550000000  0.5114760000000 1.0
C      1  0.5258900000000  0.4280060000000  0.3961160000000 1.0
C      1  0.5754240000000  0.4283710000000  0.4979800000000 1.0
C      1  0.4399520000000  0.5398150000000  0.5978930000000 1.0
C      1  0.5250720000000  0.4965310000000  0.4483200000000 1.0
C      1  0.5892320000000  0.5222710000000  0.4690930000000 1.0
C      1  0.5414530000000  0.5710520000000  0.5179170000000 1.0
C      1  0.5121790000000  0.4335850000000  0.4465120000000 1.0
C      1  0.4128310000000  0.4729280000000  0.4503910000000 1.0
C      1  0.4937370000000  0.5477070000000  0.4194020000000 1.0
C      1  0.4487910000000  0.4740540000000  0.5270150000000 1.0
C      1  0.4681380000000  0.4337550000000  0.5421980000000 1.0
C      1  0.5160350000000  0.4217430000000  0.5598400000000 1.0
C      1  0.5776510000000  0.4620910000000  0.4383500000000 1.0
C      1  0.5001550000000  0.4869740000000  0.4598910000000 1.0
C      1  0.5676220000000  0.4487140000000  0.4836500000000 1.0
C      1  0.6479240000000  0.5047520000000  0.4270590000000 1.0
C      1  0.6032930000000  0.5192320000000  0.4447260000000 1.0
C      1  0.4871530000000  0.5169810000000  0.5334560000000 1.0
C      1  0.5874950000000  0.5062160000000  0.4241860000000 1.0
C      1  0.5615920000000  0.5158880000000  0.4187590000000 1.0
C      1  0.4426010000000  0.5192780000000  0.4275590000000 1.0
C      1  0.4115750000000  0.4713200000000  0.4999420000000 1.0
C      1  0.6419590000000  0.4824100000000  0.4130550000000 1.0
C      1  0.5053810000000  0.4782680000000  0.5074560000000 1.0
C      1  0.4589220000000  0.5019560000000  0.5680560000000 1.0
C      1  0.5438830000000  0.5379280000000  0.4591790000000 1.0
C      1  0.4918710000000  0.5432040000000  0.5909570000000 1.0
C      1  0.4647690000000  0.5198730000000  0.4446000000000 1.0
C      1  0.4062270000000  0.4838070000000  0.4254340000000 1.0
C      1  0.5184870000000  0.4300020000000  0.4210310000000 1.0
C      1  0.5393940000000  0.4410970000000  0.5619150000000 1.0
C      1  0.4257120000000  0.4764280000000  0.4748240000000 1.0
C      1  0.5585730000000  0.4874470000000  0.5819720000000 1.0
C      1  0.4993540000000  0.4083020000000  0.5154480000000 1.0
C      1  0.4448690000000  0.4444270000000  0.5245100000000 1.0
C      1  0.5336610000000  0.5560610000000  0.5653490000000 1.0
C      1  0.4664800000000  0.5452560000000  0.6006080000000 1.0
C      1  0.4599880000000  0.4888620000000  0.5058060000000 1.0
C      1  0.5614600000000  0.5176360000000  0.4718290000000 1.0
C      1  0.4190760000000  0.5283020000000  0.5849220000000 1.0
C      1  0.5097960000000  0.5946670000000  0.4928360000000 1.0
C      1  0.5043210000000  0.4190130000000  0.4915790000000 1.0
C      1  0.4545640000000  0.4779550000000  0.5545720000000 1.0
END
