TITL C-612607-4507-503 0.0363602275048891 125000 -484.181066308413 0 0 81 (C1) n - 1
REM
REM in /home/nfs/bkarasulu/CARBON/AIRSS/Generating-Clusters/TERSOFF/Only-C1/FIRE-HFTN
REM
REM
REM
REM
REM
REM ./C.cell (11c1c37f851c82e70ff6c80c92926a4b)
REM AIRSS Version 0.9.1 bugfix July 2018 build 013d7b7c2542+ Fri, 06 Jul 2018 19:26:36 +0100
REM compiler GCC version 9.2.1 20190827 (Red Hat 9.2.1-1)
REM options -cpp -mtune=generic -march=x86-64 -g -O0 -fpre-include=/usr/include/finclude/math-vector-fortran.h
REM seed 1941226285 2132532707 1058607751 -1488569151 -1819075094 -314963052 505503564 501689187 -452617840 1278328604 718236562 -847179520 -1473059362 -783443887 -1071127922 -261881217 -1205341864 1758182183 -894286606 2123707968 -2094808383 -1676024847 830936545 -1940984205 252467722 -91287332 -1801039073 -509846486 -695360352 431178595 552906948 1342361888 1974854671
REM
CELL 1.54180   50.00000   50.00000   50.00000   90.00000   90.00000   90.00000
LATT -1
SFAC C  
C      1  0.5078670000000  0.6053720000000  0.4574110000000 1.0
C      1  0.4732650000000  0.4281100000000  0.4680380000000 1.0
C      1  0.4991820000000  0.4893860000000  0.6518310000000 1.0
C      1  0.5583640000000  0.3929760000000  0.4710580000000 1.0
C      1  0.5300890000000  0.4379370000000  0.4768100000000 1.0
C      1  0.4880890000000  0.5009530000000  0.4918430000000 1.0
C      1  0.5505580000000  0.5213030000000  0.5221750000000 1.0
C      1  0.5205280000000  0.4545150000000  0.5207660000000 1.0
C      1  0.4792010000000  0.4044480000000  0.4810330000000 1.0
C      1  0.5208250000000  0.5598740000000  0.4840360000000 1.0
C      1  0.4934250000000  0.4732910000000  0.4793990000000 1.0
C      1  0.4925590000000  0.3822590000000  0.4869220000000 1.0
C      1  0.4150110000000  0.5048160000000  0.4115180000000 1.0
C      1  0.4690230000000  0.5261970000000  0.6710630000000 1.0
C      1  0.4627490000000  0.4308210000000  0.4406190000000 1.0
C      1  0.5476640000000  0.4540940000000  0.5300390000000 1.0
C      1  0.5465260000000  0.5479890000000  0.4827790000000 1.0
C      1  0.4602070000000  0.4955360000000  0.3958990000000 1.0
C      1  0.4874450000000  0.5391940000000  0.4433380000000 1.0
C      1  0.5148650000000  0.5833760000000  0.4703940000000 1.0
C      1  0.5037020000000  0.5132890000000  0.4070690000000 1.0
C      1  0.4833770000000  0.5631170000000  0.5143560000000 1.0
C      1  0.4679440000000  0.5308400000000  0.4597740000000 1.0
C      1  0.5472490000000  0.4187210000000  0.4702760000000 1.0
C      1  0.5752640000000  0.4867390000000  0.4677830000000 1.0
C      1  0.4680700000000  0.4555380000000  0.4788800000000 1.0
C      1  0.4037420000000  0.4960130000000  0.4602370000000 1.0
C      1  0.5549400000000  0.4756710000000  0.4513650000000 1.0
C      1  0.4992220000000  0.4497110000000  0.5381960000000 1.0
C      1  0.5050820000000  0.5184400000000  0.5071790000000 1.0
C      1  0.5166000000000  0.4941430000000  0.5774640000000 1.0
C      1  0.4926160000000  0.6484910000000  0.4314830000000 1.0
C      1  0.4467280000000  0.5541070000000  0.5693550000000 1.0
C      1  0.4441510000000  0.5197820000000  0.5016120000000 1.0
C      1  0.5651510000000  0.5670970000000  0.5242020000000 1.0
C      1  0.5156660000000  0.3690180000000  0.4862290000000 1.0
C      1  0.5108800000000  0.5871500000000  0.5716990000000 1.0
C      1  0.5002100000000  0.6271160000000  0.4443320000000 1.0
C      1  0.5545060000000  0.5825380000000  0.5432020000000 1.0
C      1  0.4355090000000  0.5278460000000  0.5254460000000 1.0
C      1  0.4858860000000  0.4911390000000  0.4064880000000 1.0
C      1  0.5098870000000  0.4830850000000  0.6283580000000 1.0
C      1  0.4245760000000  0.5262320000000  0.3944170000000 1.0
C      1  0.5587430000000  0.5447360000000  0.5085580000000 1.0
C      1  0.6095770000000  0.3839290000000  0.4569620000000 1.0
C      1  0.5243890000000  0.5117550000000  0.5270040000000 1.0
C      1  0.4572850000000  0.5476570000000  0.6606370000000 1.0
C      1  0.5046310000000  0.4769040000000  0.4500290000000 1.0
C      1  0.4521980000000  0.5633610000000  0.6398130000000 1.0
C      1  0.5345380000000  0.5887480000000  0.5596710000000 1.0
C      1  0.5100640000000  0.5284670000000  0.4302980000000 1.0
C      1  0.4678490000000  0.5835090000000  0.5192200000000 1.0
C      1  0.5154290000000  0.4561200000000  0.4928290000000 1.0
C      1  0.4622320000000  0.5686840000000  0.5875720000000 1.0
C      1  0.4844350000000  0.5047890000000  0.6676960000000 1.0
C      1  0.5526650000000  0.5303700000000  0.4614330000000 1.0
C      1  0.5173660000000  0.5024890000000  0.5523160000000 1.0
C      1  0.5317120000000  0.5179920000000  0.4457370000000 1.0
C      1  0.5801790000000  0.4742820000000  0.4923400000000 1.0
C      1  0.5413290000000  0.3724140000000  0.4797160000000 1.0
C      1  0.4202920000000  0.4801540000000  0.4741080000000 1.0
C      1  0.5847690000000  0.3881410000000  0.4637490000000 1.0
C      1  0.5153990000000  0.4855500000000  0.6025200000000 1.0
C      1  0.4358910000000  0.4844740000000  0.4077210000000 1.0
C      1  0.5535890000000  0.4434990000000  0.5552210000000 1.0
C      1  0.5587270000000  0.4335770000000  0.5787660000000 1.0
C      1  0.4644040000000  0.5150980000000  0.4828530000000 1.0
C      1  0.4406420000000  0.4618490000000  0.4693140000000 1.0
C      1  0.5024270000000  0.5470090000000  0.5017840000000 1.0
C      1  0.5686270000000  0.4635150000000  0.5138440000000 1.0
C      1  0.4800290000000  0.4440810000000  0.4226850000000 1.0
C      1  0.5765790000000  0.5148790000000  0.4642750000000 1.0
C      1  0.4779380000000  0.4438090000000  0.5520290000000 1.0
C      1  0.4909270000000  0.4700770000000  0.4254460000000 1.0
C      1  0.4502830000000  0.5208640000000  0.3851690000000 1.0
C      1  0.4864860000000  0.5802800000000  0.5796690000000 1.0
C      1  0.4371570000000  0.5396620000000  0.5492150000000 1.0
C      1  0.4005530000000  0.5052150000000  0.4352740000000 1.0
C      1  0.5304020000000  0.4890520000000  0.4478070000000 1.0
C      1  0.4541460000000  0.5704200000000  0.6142990000000 1.0
C      1  0.4377130000000  0.4443230000000  0.4460500000000 1.0
END
