TITL C-612600-6631-1245 2.58171781803861e-05 125000 -628.096460517494 0 0 103 (C1) n - 1
REM
REM in /home/nfs/bkarasulu/CARBON/AIRSS/Generating-Clusters/TERSOFF/Only-C1/FIRE-HFTN
REM
REM
REM
REM
REM
REM ./C.cell (11c1c37f851c82e70ff6c80c92926a4b)
REM AIRSS Version 0.9.1 bugfix July 2018 build 013d7b7c2542+ Fri, 06 Jul 2018 19:26:36 +0100
REM compiler GCC version 9.2.1 20190827 (Red Hat 9.2.1-1)
REM options -cpp -mtune=generic -march=x86-64 -g -O0 -fpre-include=/usr/include/finclude/math-vector-fortran.h
REM seed 1412356365 -299162505 -2121753800 1858851388 38566459 -786051605 -626659089 -57638826 1545358836 1848093720 -527790914 268526956 755383756 -1517324059 -257140950 -1974300765 -1997033646 -1078887069 -1195016901 -117071204 -1786740228 -754243588 1359405535 -907224547 1145431414 115506415 424945837 2065298680 -559538850 -1439843653 863773256 1305544677 1840625906
REM
CELL 1.54180   50.00000   50.00000   50.00000   90.00000   90.00000   90.00000
LATT -1
SFAC C  
C      1  0.4896210000000  0.5144000000000  0.4336860000000 1.0
C      1  0.4982480000000  0.5637640000000  0.4839070000000 1.0
C      1  0.5191490000000  0.6356570000000  0.4590630000000 1.0
C      1  0.5380490000000  0.5979370000000  0.4839370000000 1.0
C      1  0.5204350000000  0.4598190000000  0.5053710000000 1.0
C      1  0.5543100000000  0.5816490000000  0.4657820000000 1.0
C      1  0.6280850000000  0.5055920000000  0.5146770000000 1.0
C      1  0.3988860000000  0.5224850000000  0.5090530000000 1.0
C      1  0.5716170000000  0.4890070000000  0.5540780000000 1.0
C      1  0.5316330000000  0.5357390000000  0.4972550000000 1.0
C      1  0.5201020000000  0.5613130000000  0.5021550000000 1.0
C      1  0.5196030000000  0.5328740000000  0.5729250000000 1.0
C      1  0.4493620000000  0.5168170000000  0.4794220000000 1.0
C      1  0.4726340000000  0.4030760000000  0.5124110000000 1.0
C      1  0.5694290000000  0.5566750000000  0.4642660000000 1.0
C      1  0.5734780000000  0.4632620000000  0.5428530000000 1.0
C      1  0.5369840000000  0.4613930000000  0.4589840000000 1.0
C      1  0.5060400000000  0.5512470000000  0.5567040000000 1.0
C      1  0.4480620000000  0.5101000000000  0.5758770000000 1.0
C      1  0.5330800000000  0.5173300000000  0.5177660000000 1.0
C      1  0.4783320000000  0.4847020000000  0.5000210000000 1.0
C      1  0.4219820000000  0.4667630000000  0.5201320000000 1.0
C      1  0.4375980000000  0.5353250000000  0.5692500000000 1.0
C      1  0.4741610000000  0.5346410000000  0.5143690000000 1.0
C      1  0.4372530000000  0.5711540000000  0.5364160000000 1.0
C      1  0.5432320000000  0.5147800000000  0.4534400000000 1.0
C      1  0.4855190000000  0.4951000000000  0.6130640000000 1.0
C      1  0.5672600000000  0.4243550000000  0.5082300000000 1.0
C      1  0.4637420000000  0.5055880000000  0.5986750000000 1.0
C      1  0.6322960000000  0.5008020000000  0.4438300000000 1.0
C      1  0.5250600000000  0.4359550000000  0.4496350000000 1.0
C      1  0.4424120000000  0.4638010000000  0.4726200000000 1.0
C      1  0.4970770000000  0.4267550000000  0.5599100000000 1.0
C      1  0.4827100000000  0.4496080000000  0.4331870000000 1.0
C      1  0.4462290000000  0.4892270000000  0.5563730000000 1.0
C      1  0.4233540000000  0.4948240000000  0.4146810000000 1.0
C      1  0.5308580000000  0.4885550000000  0.4483040000000 1.0
C      1  0.5963960000000  0.5408360000000  0.5079410000000 1.0
C      1  0.4670990000000  0.5556200000000  0.4217580000000 1.0
C      1  0.4384660000000  0.5607280000000  0.5824200000000 1.0
C      1  0.5212710000000  0.4086310000000  0.4950920000000 1.0
C      1  0.4284730000000  0.4917670000000  0.5334880000000 1.0
C      1  0.6113790000000  0.5112170000000  0.4310550000000 1.0
C      1  0.5001980000000  0.4069160000000  0.5154810000000 1.0
C      1  0.5399860000000  0.4610110000000  0.4870120000000 1.0
C      1  0.5109920000000  0.4957900000000  0.6011600000000 1.0
C      1  0.4308310000000  0.5196010000000  0.4082150000000 1.0
C      1  0.5479080000000  0.4040190000000  0.5059840000000 1.0
C      1  0.5874600000000  0.5228320000000  0.4322470000000 1.0
C      1  0.4808610000000  0.4475310000000  0.5639020000000 1.0
C      1  0.5155990000000  0.4996640000000  0.5277560000000 1.0
C      1  0.4378470000000  0.4003840000000  0.4626120000000 1.0
C      1  0.5160440000000  0.6157870000000  0.4776560000000 1.0
C      1  0.5891620000000  0.5084460000000  0.5438210000000 1.0
C      1  0.5139280000000  0.4151660000000  0.4680250000000 1.0
C      1  0.4376350000000  0.4544010000000  0.4454140000000 1.0
C      1  0.4689860000000  0.6030490000000  0.5047120000000 1.0
C      1  0.5337240000000  0.5848990000000  0.5092820000000 1.0
C      1  0.5024450000000  0.4916300000000  0.4431750000000 1.0
C      1  0.4087170000000  0.4339360000000  0.4864650000000 1.0
C      1  0.5481060000000  0.3857980000000  0.5281260000000 1.0
C      1  0.4605420000000  0.5402720000000  0.4678590000000 1.0
C      1  0.6050980000000  0.5191190000000  0.5234260000000 1.0
C      1  0.4838560000000  0.6049420000000  0.4080880000000 1.0
C      1  0.4193930000000  0.5187220000000  0.5268640000000 1.0
C      1  0.6421380000000  0.4969640000000  0.4937520000000 1.0
C      1  0.5754650000000  0.4438210000000  0.5246980000000 1.0
C      1  0.4457380000000  0.5417190000000  0.4096120000000 1.0
C      1  0.4245710000000  0.4713500000000  0.4273300000000 1.0
C      1  0.5872940000000  0.5529230000000  0.4860720000000 1.0
C      1  0.5260490000000  0.5310950000000  0.4690820000000 1.0
C      1  0.5515210000000  0.4959790000000  0.5725530000000 1.0
C      1  0.4163530000000  0.4105720000000  0.4752800000000 1.0
C      1  0.4308220000000  0.5413210000000  0.5407620000000 1.0
C      1  0.4647960000000  0.5093300000000  0.5031820000000 1.0
C      1  0.4881070000000  0.4047100000000  0.4594930000000 1.0
C      1  0.4802480000000  0.5406860000000  0.4438900000000 1.0
C      1  0.4733370000000  0.5530240000000  0.4914160000000 1.0
C      1  0.4907790000000  0.6125190000000  0.4914480000000 1.0
C      1  0.4583230000000  0.4358310000000  0.4372100000000 1.0
C      1  0.4861290000000  0.5420120000000  0.5387150000000 1.0
C      1  0.4228620000000  0.4581920000000  0.4924880000000 1.0
C      1  0.4490290000000  0.4050860000000  0.5247240000000 1.0
C      1  0.5169850000000  0.5772210000000  0.5544070000000 1.0
C      1  0.4303670000000  0.4196250000000  0.5371130000000 1.0
C      1  0.5304470000000  0.3903120000000  0.5483960000000 1.0
C      1  0.5086800000000  0.4076090000000  0.5432130000000 1.0
C      1  0.5282920000000  0.5080870000000  0.5828460000000 1.0
C      1  0.6438120000000  0.4952840000000  0.4672130000000 1.0
C      1  0.5660630000000  0.5321130000000  0.4477470000000 1.0
C      1  0.4852360000000  0.4713390000000  0.4518700000000 1.0
C      1  0.4699500000000  0.4712350000000  0.4762710000000 1.0
C      1  0.5312650000000  0.5913280000000  0.5363460000000 1.0
C      1  0.4632400000000  0.4670130000000  0.5595540000000 1.0
C      1  0.4502440000000  0.5877330000000  0.5171740000000 1.0
C      1  0.4374890000000  0.5812450000000  0.5640220000000 1.0
C      1  0.5079390000000  0.4387080000000  0.4267770000000 1.0
C      1  0.4194510000000  0.4441510000000  0.5374340000000 1.0
C      1  0.4754270000000  0.5810660000000  0.4142450000000 1.0
C      1  0.4614240000000  0.4107460000000  0.4511330000000 1.0
C      1  0.5023160000000  0.4791200000000  0.5141220000000 1.0
C      1  0.4819920000000  0.4844210000000  0.6379630000000 1.0
C      1  0.5055390000000  0.5497280000000  0.4590960000000 1.0
END
