TITL C-612603-7354-1118 0.00665167185990581 125000 -190.863893347338 0 0 33 (C1) n - 1
REM
REM in /home/nfs/bkarasulu/CARBON/AIRSS/Generating-Clusters/TERSOFF/Only-C1/FIRE-HFTN
REM
REM
REM
REM
REM
REM ./C.cell (11c1c37f851c82e70ff6c80c92926a4b)
REM AIRSS Version 0.9.1 bugfix July 2018 build 013d7b7c2542+ Fri, 06 Jul 2018 19:26:36 +0100
REM compiler GCC version 9.2.1 20190827 (Red Hat 9.2.1-1)
REM options -cpp -mtune=generic -march=x86-64 -g -O0 -fpre-include=/usr/include/finclude/math-vector-fortran.h
REM seed 795836846 1078189484 -140444705 -1800458144 -1631763651 984391407 -1076836981 -1554301819 815354121 1881313825 529365699 938154139 -561871646 -38961145 1413760227 -1232416881 -1049074659 1646208792 459412625 -2013731724 -668047182 -1585064758 1154465902 -529422642 989053518 -667686452 181001910 1585930904 -1887296703 -1372435728 -231006906 1138555564 1319262120
REM
CELL 1.54180   50.00000   50.00000   50.00000   90.00000   90.00000   90.00000
LATT -1
SFAC C  
C      1  0.5410720000000  0.5270940000000  0.5762140000000 1.0
C      1  0.4942940000000  0.4112020000000  0.4605620000000 1.0
C      1  0.4780870000000  0.3926850000000  0.4485410000000 1.0
C      1  0.5167510000000  0.5412930000000  0.5363550000000 1.0
C      1  0.5246950000000  0.4148200000000  0.3877310000000 1.0
C      1  0.4831600000000  0.4719560000000  0.5326440000000 1.0
C      1  0.5316150000000  0.4674480000000  0.4375730000000 1.0
C      1  0.5180570000000  0.5261810000000  0.5604180000000 1.0
C      1  0.4596780000000  0.5869430000000  0.5184050000000 1.0
C      1  0.4853670000000  0.6075740000000  0.5518530000000 1.0
C      1  0.5022640000000  0.5862580000000  0.5512190000000 1.0
C      1  0.4956210000000  0.4375970000000  0.4500810000000 1.0
C      1  0.4927670000000  0.5005750000000  0.4760730000000 1.0
C      1  0.4720950000000  0.5443000000000  0.4971530000000 1.0
C      1  0.4991620000000  0.5633760000000  0.5344890000000 1.0
C      1  0.5208540000000  0.5042730000000  0.4722610000000 1.0
C      1  0.4812150000000  0.5169670000000  0.5903910000000 1.0
C      1  0.4766000000000  0.5641180000000  0.5162110000000 1.0
C      1  0.5209720000000  0.4296420000000  0.4088400000000 1.0
C      1  0.5625680000000  0.5281350000000  0.5909100000000 1.0
C      1  0.4770560000000  0.5228940000000  0.4822360000000 1.0
C      1  0.4892420000000  0.4875210000000  0.5532640000000 1.0
C      1  0.5317580000000  0.5332590000000  0.5141200000000 1.0
C      1  0.4637570000000  0.6078850000000  0.5352910000000 1.0
C      1  0.4827470000000  0.4742420000000  0.4801980000000 1.0
C      1  0.5163560000000  0.4446850000000  0.4318470000000 1.0
C      1  0.4525710000000  0.4592980000000  0.4455040000000 1.0
C      1  0.5335960000000  0.4895060000000  0.4523320000000 1.0
C      1  0.4801500000000  0.4661260000000  0.5068830000000 1.0
C      1  0.5340740000000  0.5202590000000  0.4910150000000 1.0
C      1  0.4959500000000  0.5101090000000  0.5683740000000 1.0
C      1  0.4765910000000  0.4570930000000  0.4584540000000 1.0
C      1  0.5092560000000  0.4046900000000  0.4825590000000 1.0
END
