TITL C-612607-4507-217 0.000971762896198577 125000 -431.491968052422 0 0 72 (C1) n - 1
REM
REM in /home/nfs/bkarasulu/CARBON/AIRSS/Generating-Clusters/TERSOFF/Only-C1/FIRE-HFTN
REM
REM
REM
REM
REM
REM ./C.cell (11c1c37f851c82e70ff6c80c92926a4b)
REM AIRSS Version 0.9.1 bugfix July 2018 build 013d7b7c2542+ Fri, 06 Jul 2018 19:26:36 +0100
REM compiler GCC version 9.2.1 20190827 (Red Hat 9.2.1-1)
REM options -cpp -mtune=generic -march=x86-64 -g -O0 -fpre-include=/usr/include/finclude/math-vector-fortran.h
REM seed 1960537770 62044352 -262671807 1003200366 -1692359183 1876299864 511370380 -759384820 1684052119 138560668 1899197505 -1522205983 254021733 -2099175561 -2071214945 -1914718514 1143201361 -1301714744 445368149 346890105 1703364337 1536131005 -1007348109 1141129197 -1777952716 1121878892 1612564061 1581048799 -702440992 715914076 75938150 -666091454 -893859024
REM
CELL 1.54180   50.00000   50.00000   50.00000   90.00000   90.00000   90.00000
LATT -1
SFAC C  
C      1  0.5219940000000  0.5341020000000  0.4333520000000 1.0
C      1  0.5211060000000  0.4453470000000  0.4391290000000 1.0
C      1  0.5616800000000  0.4443050000000  0.5466210000000 1.0
C      1  0.5404830000000  0.5654740000000  0.4713940000000 1.0
C      1  0.5527860000000  0.4929540000000  0.4473090000000 1.0
C      1  0.4337260000000  0.4819890000000  0.5262270000000 1.0
C      1  0.4371190000000  0.5361360000000  0.4764840000000 1.0
C      1  0.5363260000000  0.4461100000000  0.4149580000000 1.0
C      1  0.5398170000000  0.4949710000000  0.5109570000000 1.0
C      1  0.5230620000000  0.4913270000000  0.4089810000000 1.0
C      1  0.5873630000000  0.5146090000000  0.5516890000000 1.0
C      1  0.4435710000000  0.4381510000000  0.4863780000000 1.0
C      1  0.5788290000000  0.5390500000000  0.5455040000000 1.0
C      1  0.5085450000000  0.4698710000000  0.5592260000000 1.0
C      1  0.4976510000000  0.4826170000000  0.4668350000000 1.0
C      1  0.5215550000000  0.5359260000000  0.5308540000000 1.0
C      1  0.4393010000000  0.5598180000000  0.4918480000000 1.0
C      1  0.4971230000000  0.4823300000000  0.4185290000000 1.0
C      1  0.5362370000000  0.5124120000000  0.4882570000000 1.0
C      1  0.4515830000000  0.5369500000000  0.4520600000000 1.0
C      1  0.4185300000000  0.4258450000000  0.4872490000000 1.0
C      1  0.5130930000000  0.4440270000000  0.5475140000000 1.0
C      1  0.5637800000000  0.5496360000000  0.4696870000000 1.0
C      1  0.4807980000000  0.5810290000000  0.4763820000000 1.0
C      1  0.5472510000000  0.4701510000000  0.4966270000000 1.0
C      1  0.4698930000000  0.4838310000000  0.4124610000000 1.0
C      1  0.5023910000000  0.5113100000000  0.5755770000000 1.0
C      1  0.4748040000000  0.4755490000000  0.4809080000000 1.0
C      1  0.5033460000000  0.4678790000000  0.4430600000000 1.0
C      1  0.4938440000000  0.4214030000000  0.4944640000000 1.0
C      1  0.5775640000000  0.6112150000000  0.5518040000000 1.0
C      1  0.4426170000000  0.4576500000000  0.5376530000000 1.0
C      1  0.5707260000000  0.5869070000000  0.5453610000000 1.0
C      1  0.4459610000000  0.4671340000000  0.4789880000000 1.0
C      1  0.4473320000000  0.4785290000000  0.4261200000000 1.0
C      1  0.4584460000000  0.5788180000000  0.4912340000000 1.0
C      1  0.4272980000000  0.5122800000000  0.4874570000000 1.0
C      1  0.4321160000000  0.4864080000000  0.4980130000000 1.0
C      1  0.4865760000000  0.4323290000000  0.5461330000000 1.0
C      1  0.5343900000000  0.5713120000000  0.4986870000000 1.0
C      1  0.5208030000000  0.4959210000000  0.5586220000000 1.0
C      1  0.4655420000000  0.4513780000000  0.5524110000000 1.0
C      1  0.4926540000000  0.5649160000000  0.4567880000000 1.0
C      1  0.4750990000000  0.5008230000000  0.5731160000000 1.0
C      1  0.5879340000000  0.4881890000000  0.5550260000000 1.0
C      1  0.5560030000000  0.4759210000000  0.4689870000000 1.0
C      1  0.5124310000000  0.5055100000000  0.4745590000000 1.0
C      1  0.4537600000000  0.5192760000000  0.5613780000000 1.0
C      1  0.4140080000000  0.5588080000000  0.6212830000000 1.0
C      1  0.5205360000000  0.5575180000000  0.4527360000000 1.0
C      1  0.3946520000000  0.4155080000000  0.4886740000000 1.0
C      1  0.5200720000000  0.4292920000000  0.4879750000000 1.0
C      1  0.5602580000000  0.5249570000000  0.4797960000000 1.0
C      1  0.4378650000000  0.4716910000000  0.4502760000000 1.0
C      1  0.4793650000000  0.4732980000000  0.5653800000000 1.0
C      1  0.5793890000000  0.4629710000000  0.5537970000000 1.0
C      1  0.5363950000000  0.4450820000000  0.5052920000000 1.0
C      1  0.5631090000000  0.5610850000000  0.5379690000000 1.0
C      1  0.4940380000000  0.5337000000000  0.4236780000000 1.0
C      1  0.5391690000000  0.5570500000000  0.5230040000000 1.0
C      1  0.5382700000000  0.4688710000000  0.3998210000000 1.0
C      1  0.4700670000000  0.5383150000000  0.5444120000000 1.0
C      1  0.4264620000000  0.5462540000000  0.6021280000000 1.0
C      1  0.4391530000000  0.5335020000000  0.5826920000000 1.0
C      1  0.5371430000000  0.4402850000000  0.5334230000000 1.0
C      1  0.4756060000000  0.5466350000000  0.4413970000000 1.0
C      1  0.4351600000000  0.5041020000000  0.5436690000000 1.0
C      1  0.5263770000000  0.4284310000000  0.4606110000000 1.0
C      1  0.5301260000000  0.5079760000000  0.5346840000000 1.0
C      1  0.5362920000000  0.5088130000000  0.4287360000000 1.0
C      1  0.4674150000000  0.4241160000000  0.4918510000000 1.0
C      1  0.4942340000000  0.5421170000000  0.5338560000000 1.0
END
