TITL C-612600-6631-543 0.146541579301872 125000 -269.870339608386 0 0 46 (C1) n - 1
REM
REM in /home/nfs/bkarasulu/CARBON/AIRSS/Generating-Clusters/TERSOFF/Only-C1/FIRE-HFTN
REM
REM
REM
REM
REM
REM ./C.cell (11c1c37f851c82e70ff6c80c92926a4b)
REM AIRSS Version 0.9.1 bugfix July 2018 build 013d7b7c2542+ Fri, 06 Jul 2018 19:26:36 +0100
REM compiler GCC version 9.2.1 20190827 (Red Hat 9.2.1-1)
REM options -cpp -mtune=generic -march=x86-64 -g -O0 -fpre-include=/usr/include/finclude/math-vector-fortran.h
REM seed 1713583006 437749475 -1271679249 -1925524415 -1062513095 238815260 420597728 -557796736 -1753358166 -1895381291 1976360854 913751077 1562528510 -591069880 -1999299703 -11623539 886130656 106986879 -1290876392 1037464306 2091416680 1732204692 -2038863697 -251977420 2038885983 1560847691 1463277416 -599118842 194363555 887539513 1791481453 -2104904743 -1648109636
REM
CELL 1.54180   50.00000   50.00000   50.00000   90.00000   90.00000   90.00000
LATT -1
SFAC C  
C      1  0.5619860000000  0.5069370000000  0.5552770000000 1.0
C      1  0.4305760000000  0.4991130000000  0.4858000000000 1.0
C      1  0.5275480000000  0.4724910000000  0.5515460000000 1.0
C      1  0.5133790000000  0.5328930000000  0.4325580000000 1.0
C      1  0.4461450000000  0.4537850000000  0.4738610000000 1.0
C      1  0.4529780000000  0.4038220000000  0.4926830000000 1.0
C      1  0.4454190000000  0.5021790000000  0.4206480000000 1.0
C      1  0.4178900000000  0.4979200000000  0.4602030000000 1.0
C      1  0.6019330000000  0.5840440000000  0.4713200000000 1.0
C      1  0.4348140000000  0.5250310000000  0.4958630000000 1.0
C      1  0.5146040000000  0.4778990000000  0.6053040000000 1.0
C      1  0.5483010000000  0.5182580000000  0.6020870000000 1.0
C      1  0.4663530000000  0.4815360000000  0.5812080000000 1.0
C      1  0.6212820000000  0.6014560000000  0.4698770000000 1.0
C      1  0.5626100000000  0.5486420000000  0.4742550000000 1.0
C      1  0.5135250000000  0.4794880000000  0.4771700000000 1.0
C      1  0.5183060000000  0.4915980000000  0.4519300000000 1.0
C      1  0.5822600000000  0.5663410000000  0.4727860000000 1.0
C      1  0.5290350000000  0.5194340000000  0.4528490000000 1.0
C      1  0.5012120000000  0.4887630000000  0.4288600000000 1.0
C      1  0.4411350000000  0.4599960000000  0.4464890000000 1.0
C      1  0.4477900000000  0.4766310000000  0.4915500000000 1.0
C      1  0.5325870000000  0.5198700000000  0.5010630000000 1.0
C      1  0.4923370000000  0.5158300000000  0.4218980000000 1.0
C      1  0.4574720000000  0.5465140000000  0.4356090000000 1.0
C      1  0.4774860000000  0.4716790000000  0.5325140000000 1.0
C      1  0.5621070000000  0.5190080000000  0.5791470000000 1.0
C      1  0.4649130000000  0.5226300000000  0.4225440000000 1.0
C      1  0.5368820000000  0.4737370000000  0.4930210000000 1.0
C      1  0.5274650000000  0.4685630000000  0.5794540000000 1.0
C      1  0.4931470000000  0.4933170000000  0.4930300000000 1.0
C      1  0.5443970000000  0.4949470000000  0.5110420000000 1.0
C      1  0.4855830000000  0.4827000000000  0.5997590000000 1.0
C      1  0.4503690000000  0.5559340000000  0.4596450000000 1.0
C      1  0.5288880000000  0.5031600000000  0.6127840000000 1.0
C      1  0.5042950000000  0.4642930000000  0.5379210000000 1.0
C      1  0.5038260000000  0.5181620000000  0.5027980000000 1.0
C      1  0.4617670000000  0.4768310000000  0.5552150000000 1.0
C      1  0.4961080000000  0.4658930000000  0.4151800000000 1.0
C      1  0.4717140000000  0.4803650000000  0.5061460000000 1.0
C      1  0.5179270000000  0.4570350000000  0.6268870000000 1.0
C      1  0.4424150000000  0.5478930000000  0.4839410000000 1.0
C      1  0.4491440000000  0.4277090000000  0.4829980000000 1.0
C      1  0.5464640000000  0.4901950000000  0.5389110000000 1.0
C      1  0.5420860000000  0.5299830000000  0.4758610000000 1.0
C      1  0.4315400000000  0.4854920000000  0.4385100000000 1.0
END
