TITL C-612606-7351-984 0.0255057911881696 125000 -872.594628184274 0 0 143 (C1) n - 1
REM
REM in /home/nfs/bkarasulu/CARBON/AIRSS/Generating-Clusters/TERSOFF/Only-C1/FIRE-HFTN
REM
REM
REM
REM
REM
REM ./C.cell (11c1c37f851c82e70ff6c80c92926a4b)
REM AIRSS Version 0.9.1 bugfix July 2018 build 013d7b7c2542+ Fri, 06 Jul 2018 19:26:36 +0100
REM compiler GCC version 9.2.1 20190827 (Red Hat 9.2.1-1)
REM options -cpp -mtune=generic -march=x86-64 -g -O0 -fpre-include=/usr/include/finclude/math-vector-fortran.h
REM seed 895022963 -225787316 1695208426 1389959421 1302603399 -1533777585 -405777555 -163636592 -1741798668 1522891106 -965672205 1018038518 -972065886 2116330483 -877922776 323274589 -491343430 -390842273 1109952593 513782064 406061447 -1993175890 1844331641 -375930734 -363546739 1226026146 -1539023270 -991946789 -632848202 -176682764 -1508014527 1939363278 519628839
REM
CELL 1.54180   50.00000   50.00000   50.00000   90.00000   90.00000   90.00000
LATT -1
SFAC C  
C      1  0.4555480000000  0.5424450000000  0.3232580000000 1.0
C      1  0.5854960000000  0.5502780000000  0.5597580000000 1.0
C      1  0.3937580000000  0.4868320000000  0.5045120000000 1.0
C      1  0.5430770000000  0.4748710000000  0.5222270000000 1.0
C      1  0.4300310000000  0.4780020000000  0.5741800000000 1.0
C      1  0.4958980000000  0.5060180000000  0.4348850000000 1.0
C      1  0.4465660000000  0.5584970000000  0.5529610000000 1.0
C      1  0.5802770000000  0.5512810000000  0.4657860000000 1.0
C      1  0.4469720000000  0.5451750000000  0.2987900000000 1.0
C      1  0.3921200000000  0.5441750000000  0.5169370000000 1.0
C      1  0.4798370000000  0.3964260000000  0.5085770000000 1.0
C      1  0.5188600000000  0.6042760000000  0.4776790000000 1.0
C      1  0.5545780000000  0.4738860000000  0.4671430000000 1.0
C      1  0.4821220000000  0.4441600000000  0.4095660000000 1.0
C      1  0.5090950000000  0.4697450000000  0.4936300000000 1.0
C      1  0.4052710000000  0.4996930000000  0.5284720000000 1.0
C      1  0.4863940000000  0.5344910000000  0.5098980000000 1.0
C      1  0.5670490000000  0.5666920000000  0.6030570000000 1.0
C      1  0.4300630000000  0.5197890000000  0.4391230000000 1.0
C      1  0.5992270000000  0.5025700000000  0.5635110000000 1.0
C      1  0.5506990000000  0.4319560000000  0.4374680000000 1.0
C      1  0.4953340000000  0.4746430000000  0.5863710000000 1.0
C      1  0.4051560000000  0.4992270000000  0.4778840000000 1.0
C      1  0.4287220000000  0.5743750000000  0.4802910000000 1.0
C      1  0.4665110000000  0.4866130000000  0.5298960000000 1.0
C      1  0.4382840000000  0.5301770000000  0.5061120000000 1.0
C      1  0.5056360000000  0.4413430000000  0.4247020000000 1.0
C      1  0.4764510000000  0.4941930000000  0.5967570000000 1.0
C      1  0.5682640000000  0.5475240000000  0.5829760000000 1.0
C      1  0.4868370000000  0.5191750000000  0.6039890000000 1.0
C      1  0.5562870000000  0.5148190000000  0.4931790000000 1.0
C      1  0.4482780000000  0.4921380000000  0.5912170000000 1.0
C      1  0.5121740000000  0.4500360000000  0.4731850000000 1.0
C      1  0.4972530000000  0.4944140000000  0.4860580000000 1.0
C      1  0.5840380000000  0.5673940000000  0.4887830000000 1.0
C      1  0.4164330000000  0.4397700000000  0.4347390000000 1.0
C      1  0.4293540000000  0.4145400000000  0.4976160000000 1.0
C      1  0.4632790000000  0.5367680000000  0.4935660000000 1.0
C      1  0.5963760000000  0.5556860000000  0.5116360000000 1.0
C      1  0.5051420000000  0.5389580000000  0.5965460000000 1.0
C      1  0.5656850000000  0.6040930000000  0.6345580000000 1.0
C      1  0.4137590000000  0.5261610000000  0.5213430000000 1.0
C      1  0.4512970000000  0.5836860000000  0.4654090000000 1.0
C      1  0.5498960000000  0.5416550000000  0.4288370000000 1.0
C      1  0.4550130000000  0.4513500000000  0.4109730000000 1.0
C      1  0.4434690000000  0.4754490000000  0.4241880000000 1.0
C      1  0.5774370000000  0.4213420000000  0.5152710000000 1.0
C      1  0.4636920000000  0.4430640000000  0.5615540000000 1.0
C      1  0.4094360000000  0.5524440000000  0.4736120000000 1.0
C      1  0.5973440000000  0.5399430000000  0.5352030000000 1.0
C      1  0.4684300000000  0.6058000000000  0.4723270000000 1.0
C      1  0.4953540000000  0.6074360000000  0.4623480000000 1.0
C      1  0.5380110000000  0.4967230000000  0.5999860000000 1.0
C      1  0.4233610000000  0.4662400000000  0.4440060000000 1.0
C      1  0.5651090000000  0.3761270000000  0.5041080000000 1.0
C      1  0.4849290000000  0.5719300000000  0.4301570000000 1.0
C      1  0.5089530000000  0.4595950000000  0.4459030000000 1.0
C      1  0.4485770000000  0.5034080000000  0.4235970000000 1.0
C      1  0.4149240000000  0.4409570000000  0.4996980000000 1.0
C      1  0.5262230000000  0.5490610000000  0.4154670000000 1.0
C      1  0.4516240000000  0.4686340000000  0.5137170000000 1.0
C      1  0.6110840000000  0.4904660000000  0.5190000000000 1.0
C      1  0.5715070000000  0.3529990000000  0.4939470000000 1.0
C      1  0.5530130000000  0.5841850000000  0.6198600000000 1.0
C      1  0.4574120000000  0.5089970000000  0.5447510000000 1.0
C      1  0.4693740000000  0.4390280000000  0.4855600000000 1.0
C      1  0.4740830000000  0.3782230000000  0.4472630000000 1.0
C      1  0.5317250000000  0.4290480000000  0.5655640000000 1.0
C      1  0.4641230000000  0.5361770000000  0.5500770000000 1.0
C      1  0.5158000000000  0.4863160000000  0.4393240000000 1.0
C      1  0.4343490000000  0.4312790000000  0.4154220000000 1.0
C      1  0.5701990000000  0.5598220000000  0.4396830000000 1.0
C      1  0.5539410000000  0.5177140000000  0.4451740000000 1.0
C      1  0.5973750000000  0.4408490000000  0.5085950000000 1.0
C      1  0.5389120000000  0.5854250000000  0.4840620000000 1.0
C      1  0.5922430000000  0.4438380000000  0.4598450000000 1.0
C      1  0.5314180000000  0.5580850000000  0.4850540000000 1.0
C      1  0.5146290000000  0.4700960000000  0.5211690000000 1.0
C      1  0.4891460000000  0.5403690000000  0.5375850000000 1.0
C      1  0.3904640000000  0.4564900000000  0.5056370000000 1.0
C      1  0.5667290000000  0.5905370000000  0.4897070000000 1.0
C      1  0.5750660000000  0.5030870000000  0.5748120000000 1.0
C      1  0.4643730000000  0.4277480000000  0.5380540000000 1.0
C      1  0.4729570000000  0.5369100000000  0.3730010000000 1.0
C      1  0.4980780000000  0.5534400000000  0.4126200000000 1.0
C      1  0.4967770000000  0.5971590000000  0.4357050000000 1.0
C      1  0.4384470000000  0.4510260000000  0.5713060000000 1.0
C      1  0.5079840000000  0.4044710000000  0.5014290000000 1.0
C      1  0.5423150000000  0.4923650000000  0.4473590000000 1.0
C      1  0.5381710000000  0.4566810000000  0.5687160000000 1.0
C      1  0.4859150000000  0.4610680000000  0.5634830000000 1.0
C      1  0.4395030000000  0.5741400000000  0.5301800000000 1.0
C      1  0.4124080000000  0.6092880000000  0.5106130000000 1.0
C      1  0.4739860000000  0.4860520000000  0.4716040000000 1.0
C      1  0.4124230000000  0.4887500000000  0.5540330000000 1.0
C      1  0.4364940000000  0.5648870000000  0.5775970000000 1.0
C      1  0.3872800000000  0.5535840000000  0.4918940000000 1.0
C      1  0.4655620000000  0.5639690000000  0.4505750000000 1.0
C      1  0.5076750000000  0.5627630000000  0.6109090000000 1.0
C      1  0.5490330000000  0.5683420000000  0.5339310000000 1.0
C      1  0.5358110000000  0.5446990000000  0.5296760000000 1.0
C      1  0.5233900000000  0.5331750000000  0.5749280000000 1.0
C      1  0.5546280000000  0.4668880000000  0.5471920000000 1.0
C      1  0.4270280000000  0.5855930000000  0.5073270000000 1.0
C      1  0.6066020000000  0.4406000000000  0.4821770000000 1.0
C      1  0.5154180000000  0.5385260000000  0.5484240000000 1.0
C      1  0.5999550000000  0.4641720000000  0.5250530000000 1.0
C      1  0.5776040000000  0.6227520000000  0.6483050000000 1.0
C      1  0.5687990000000  0.5249470000000  0.4693800000000 1.0
C      1  0.4321240000000  0.4639220000000  0.4931860000000 1.0
C      1  0.6052410000000  0.5119610000000  0.5374570000000 1.0
C      1  0.5574170000000  0.4012770000000  0.5139010000000 1.0
C      1  0.5179960000000  0.3951940000000  0.4256440000000 1.0
C      1  0.4710800000000  0.5408460000000  0.4659190000000 1.0
C      1  0.5298790000000  0.4044160000000  0.5214860000000 1.0
C      1  0.6268660000000  0.4947710000000  0.4970600000000 1.0
C      1  0.4918940000000  0.5253480000000  0.4551670000000 1.0
C      1  0.4751620000000  0.5112740000000  0.4154140000000 1.0
C      1  0.4642670000000  0.5396700000000  0.3481340000000 1.0
C      1  0.5243390000000  0.4744220000000  0.5879390000000 1.0
C      1  0.5652110000000  0.4496260000000  0.4548250000000 1.0
C      1  0.5822930000000  0.4629860000000  0.5470540000000 1.0
C      1  0.5067770000000  0.5184830000000  0.4984470000000 1.0
C      1  0.5126610000000  0.4227610000000  0.4802870000000 1.0
C      1  0.5544120000000  0.4854610000000  0.4958220000000 1.0
C      1  0.4644770000000  0.4423160000000  0.5136650000000 1.0
C      1  0.5252730000000  0.5801840000000  0.6207840000000 1.0
C      1  0.5514160000000  0.5200940000000  0.5839970000000 1.0
C      1  0.4679380000000  0.4596600000000  0.4678540000000 1.0
C      1  0.5266250000000  0.4219100000000  0.4255300000000 1.0
C      1  0.4133610000000  0.5247380000000  0.4627800000000 1.0
C      1  0.4571510000000  0.3845540000000  0.4669730000000 1.0
C      1  0.4754340000000  0.4019620000000  0.5366080000000 1.0
C      1  0.3984120000000  0.6311250000000  0.5131200000000 1.0
C      1  0.4543040000000  0.3972010000000  0.4923350000000 1.0
C      1  0.4224810000000  0.4771420000000  0.4698380000000 1.0
C      1  0.5762810000000  0.6155160000000  0.4952520000000 1.0
C      1  0.5220240000000  0.4082070000000  0.5490520000000 1.0
C      1  0.4815910000000  0.5339030000000  0.3992050000000 1.0
C      1  0.5334410000000  0.5323000000000  0.5019160000000 1.0
C      1  0.4921000000000  0.4744540000000  0.5385780000000 1.0
C      1  0.4966790000000  0.3964570000000  0.5544070000000 1.0
C      1  0.4969220000000  0.3806880000000  0.4336190000000 1.0
END
