TITL C-612600-6631-648 0.0420200571967687 125000 -1148.00630534625 0 0 186 (C1) n - 1
REM
REM in /home/nfs/bkarasulu/CARBON/AIRSS/Generating-Clusters/TERSOFF/Only-C1/FIRE-HFTN
REM
REM
REM
REM
REM
REM ./C.cell (11c1c37f851c82e70ff6c80c92926a4b)
REM AIRSS Version 0.9.1 bugfix July 2018 build 013d7b7c2542+ Fri, 06 Jul 2018 19:26:36 +0100
REM compiler GCC version 9.2.1 20190827 (Red Hat 9.2.1-1)
REM options -cpp -mtune=generic -march=x86-64 -g -O0 -fpre-include=/usr/include/finclude/math-vector-fortran.h
REM seed -1288071107 375591381 115588482 1599467240 -1640985932 -619041576 1760762858 248497851 731574838 -802599942 -1487586518 -1778545253 442542292 -1002619690 93201292 768688551 -1715706696 1548028440 2020816532 -348180604 1804676292 -2136779312 -155466652 883303679 727760602 -1681114731 1601738109 -577467473 1569405269 -1605910449 -383450962 11992417 -1332431059
REM
CELL 1.54180   50.00000   50.00000   50.00000   90.00000   90.00000   90.00000
LATT -1
SFAC C  
C      1  0.4559990000000  0.4571160000000  0.5416860000000 1.0
C      1  0.5604080000000  0.4497780000000  0.5694760000000 1.0
C      1  0.4504270000000  0.5540460000000  0.6578820000000 1.0
C      1  0.4611680000000  0.4360510000000  0.5896780000000 1.0
C      1  0.4734150000000  0.3978340000000  0.5389380000000 1.0
C      1  0.4577870000000  0.4537890000000  0.4721730000000 1.0
C      1  0.5755290000000  0.5256990000000  0.5747740000000 1.0
C      1  0.4160090000000  0.3823170000000  0.5387430000000 1.0
C      1  0.5460670000000  0.4309930000000  0.6130780000000 1.0
C      1  0.6004140000000  0.4874170000000  0.5624700000000 1.0
C      1  0.5726050000000  0.4768950000000  0.5685030000000 1.0
C      1  0.3809480000000  0.5399070000000  0.3963830000000 1.0
C      1  0.5117240000000  0.5814250000000  0.3787690000000 1.0
C      1  0.5326840000000  0.4475330000000  0.5276160000000 1.0
C      1  0.4545180000000  0.5612300000000  0.6331670000000 1.0
C      1  0.4143300000000  0.5133830000000  0.5785970000000 1.0
C      1  0.4516680000000  0.6028130000000  0.4440200000000 1.0
C      1  0.5670810000000  0.4010700000000  0.5202170000000 1.0
C      1  0.5354390000000  0.4485890000000  0.4003020000000 1.0
C      1  0.5726880000000  0.6056200000000  0.5095020000000 1.0
C      1  0.5028210000000  0.4643090000000  0.5739170000000 1.0
C      1  0.4819780000000  0.6307050000000  0.4918290000000 1.0
C      1  0.4458400000000  0.6074660000000  0.5185090000000 1.0
C      1  0.4829620000000  0.5800730000000  0.5990730000000 1.0
C      1  0.4590330000000  0.5667720000000  0.6060710000000 1.0
C      1  0.5312890000000  0.4755440000000  0.3889170000000 1.0
C      1  0.4418400000000  0.6094350000000  0.4701000000000 1.0
C      1  0.4557120000000  0.3985230000000  0.5629690000000 1.0
C      1  0.4362820000000  0.4700260000000  0.4014120000000 1.0
C      1  0.4622030000000  0.4629980000000  0.3916960000000 1.0
C      1  0.3737820000000  0.4044210000000  0.5375770000000 1.0
C      1  0.5298170000000  0.5905710000000  0.5742850000000 1.0
C      1  0.4237440000000  0.5904080000000  0.5099370000000 1.0
C      1  0.6433910000000  0.4993760000000  0.5423350000000 1.0
C      1  0.4111690000000  0.5432760000000  0.4764090000000 1.0
C      1  0.5207080000000  0.5145300000000  0.5997880000000 1.0
C      1  0.4122580000000  0.5663410000000  0.5192790000000 1.0
C      1  0.5959310000000  0.5161420000000  0.5576840000000 1.0
C      1  0.5737070000000  0.6163170000000  0.4821040000000 1.0
C      1  0.4156600000000  0.4683020000000  0.4188620000000 1.0
C      1  0.4854080000000  0.5992880000000  0.5548450000000 1.0
C      1  0.3847730000000  0.5098780000000  0.5396370000000 1.0
C      1  0.5496680000000  0.4419960000000  0.4254000000000 1.0
C      1  0.4648360000000  0.4094490000000  0.5872470000000 1.0
C      1  0.5839110000000  0.5361480000000  0.4134320000000 1.0
C      1  0.4608260000000  0.6063690000000  0.5426960000000 1.0
C      1  0.5958770000000  0.4771740000000  0.5094950000000 1.0
C      1  0.5496790000000  0.5875990000000  0.4117740000000 1.0
C      1  0.4206440000000  0.5931160000000  0.4808740000000 1.0
C      1  0.5003840000000  0.5894750000000  0.4344620000000 1.0
C      1  0.4980000000000  0.4757620000000  0.6196470000000 1.0
C      1  0.4083080000000  0.4220730000000  0.5669790000000 1.0
C      1  0.4557760000000  0.5337520000000  0.5061750000000 1.0
C      1  0.5206280000000  0.4127020000000  0.5572640000000 1.0
C      1  0.5799590000000  0.4448210000000  0.4775590000000 1.0
C      1  0.4186820000000  0.4484350000000  0.5691430000000 1.0
C      1  0.3945200000000  0.4738490000000  0.4651840000000 1.0
C      1  0.5412050000000  0.5334720000000  0.5137600000000 1.0
C      1  0.4228190000000  0.3958440000000  0.4817980000000 1.0
C      1  0.4788510000000  0.6050600000000  0.4371860000000 1.0
C      1  0.5639270000000  0.5345430000000  0.3958360000000 1.0
C      1  0.5978430000000  0.5171760000000  0.4607960000000 1.0
C      1  0.5135800000000  0.5668340000000  0.4398910000000 1.0
C      1  0.4993390000000  0.5931010000000  0.5803600000000 1.0
C      1  0.4818150000000  0.4657350000000  0.4816430000000 1.0
C      1  0.5077890000000  0.4836490000000  0.4284060000000 1.0
C      1  0.4709890000000  0.4373350000000  0.4018240000000 1.0
C      1  0.4395070000000  0.5581360000000  0.5873760000000 1.0
C      1  0.4939920000000  0.4616050000000  0.4330140000000 1.0
C      1  0.4162240000000  0.4765060000000  0.4836460000000 1.0
C      1  0.4479230000000  0.4495720000000  0.5690640000000 1.0
C      1  0.4113860000000  0.4714290000000  0.5527030000000 1.0
C      1  0.5782600000000  0.4467660000000  0.4274500000000 1.0
C      1  0.4239180000000  0.5259370000000  0.4560710000000 1.0
C      1  0.5942260000000  0.5324730000000  0.4376740000000 1.0
C      1  0.5918200000000  0.4494360000000  0.4525120000000 1.0
C      1  0.5322240000000  0.4103690000000  0.4574470000000 1.0
C      1  0.5173370000000  0.5034820000000  0.5497750000000 1.0
C      1  0.3695290000000  0.5531880000000  0.3770860000000 1.0
C      1  0.5650980000000  0.4370760000000  0.5948000000000 1.0
C      1  0.3810390000000  0.4183240000000  0.5597760000000 1.0
C      1  0.6213360000000  0.5421720000000  0.5268090000000 1.0
C      1  0.4933550000000  0.5657430000000  0.3664070000000 1.0
C      1  0.5766430000000  0.4862340000000  0.4006820000000 1.0
C      1  0.5290730000000  0.6261220000000  0.5071460000000 1.0
C      1  0.5490040000000  0.5720870000000  0.5844290000000 1.0
C      1  0.5998710000000  0.5232800000000  0.5304670000000 1.0
C      1  0.3933860000000  0.3905040000000  0.5228180000000 1.0
C      1  0.4299300000000  0.4992880000000  0.5972720000000 1.0
C      1  0.4834190000000  0.4361900000000  0.4272330000000 1.0
C      1  0.5445920000000  0.3949380000000  0.5037610000000 1.0
C      1  0.5051490000000  0.4034900000000  0.4601950000000 1.0
C      1  0.3868570000000  0.5248960000000  0.5176610000000 1.0
C      1  0.4729150000000  0.3783210000000  0.4779400000000 1.0
C      1  0.5093450000000  0.4929100000000  0.3804030000000 1.0
C      1  0.4996950000000  0.3869140000000  0.4836440000000 1.0
C      1  0.5189970000000  0.4303750000000  0.6048160000000 1.0
C      1  0.4825380000000  0.4811060000000  0.3813230000000 1.0
C      1  0.4574050000000  0.4947510000000  0.5969580000000 1.0
C      1  0.5472070000000  0.6107810000000  0.5237240000000 1.0
C      1  0.5506270000000  0.4639010000000  0.5140630000000 1.0
C      1  0.6443830000000  0.5257340000000  0.5336890000000 1.0
C      1  0.4560090000000  0.6202310000000  0.4935410000000 1.0
C      1  0.4944750000000  0.5386210000000  0.3665290000000 1.0
C      1  0.4814710000000  0.5753550000000  0.4847130000000 1.0
C      1  0.5405960000000  0.5003540000000  0.4555220000000 1.0
C      1  0.5364660000000  0.4372730000000  0.4503840000000 1.0
C      1  0.5150760000000  0.5229690000000  0.3793910000000 1.0
C      1  0.5660250000000  0.5510230000000  0.5832070000000 1.0
C      1  0.3955580000000  0.4785010000000  0.4366040000000 1.0
C      1  0.5062430000000  0.4556100000000  0.6009490000000 1.0
C      1  0.4443020000000  0.5042820000000  0.4578560000000 1.0
C      1  0.5539420000000  0.5649930000000  0.4793260000000 1.0
C      1  0.4406180000000  0.3441020000000  0.5191270000000 1.0
C      1  0.6234460000000  0.4787740000000  0.5475820000000 1.0
C      1  0.4948590000000  0.4882570000000  0.5603670000000 1.0
C      1  0.5396020000000  0.4352770000000  0.5520770000000 1.0
C      1  0.5339950000000  0.4940920000000  0.4295890000000 1.0
C      1  0.5750440000000  0.4599510000000  0.5007070000000 1.0
C      1  0.4392970000000  0.4756700000000  0.4659810000000 1.0
C      1  0.5299810000000  0.5072390000000  0.5228470000000 1.0
C      1  0.5372880000000  0.5416750000000  0.3899210000000 1.0
C      1  0.5202370000000  0.5536970000000  0.5097070000000 1.0
C      1  0.4889900000000  0.5284270000000  0.4496300000000 1.0
C      1  0.5141980000000  0.5409390000000  0.4506750000000 1.0
C      1  0.5615590000000  0.5942880000000  0.4372800000000 1.0
C      1  0.4009540000000  0.4973750000000  0.5588510000000 1.0
C      1  0.5680040000000  0.6164010000000  0.4550810000000 1.0
C      1  0.5584870000000  0.5021000000000  0.5755310000000 1.0
C      1  0.5941140000000  0.5884560000000  0.5181100000000 1.0
C      1  0.5155100000000  0.3917340000000  0.5091450000000 1.0
C      1  0.5494880000000  0.4910150000000  0.4058830000000 1.0
C      1  0.4274300000000  0.4864680000000  0.5086590000000 1.0
C      1  0.5322050000000  0.5976530000000  0.5451390000000 1.0
C      1  0.4705010000000  0.4823090000000  0.6186340000000 1.0
C      1  0.5051450000000  0.5895210000000  0.5367690000000 1.0
C      1  0.4261430000000  0.3998560000000  0.5594150000000 1.0
C      1  0.3995520000000  0.3935500000000  0.4953780000000 1.0
C      1  0.6143550000000  0.4944500000000  0.4581270000000 1.0
C      1  0.6141990000000  0.4623230000000  0.5263630000000 1.0
C      1  0.5267680000000  0.4556120000000  0.4703720000000 1.0
C      1  0.5821660000000  0.5201730000000  0.4847830000000 1.0
C      1  0.4810180000000  0.4501560000000  0.5304550000000 1.0
C      1  0.4609190000000  0.4245540000000  0.4694470000000 1.0
C      1  0.5145670000000  0.4987140000000  0.6207930000000 1.0
C      1  0.5593000000000  0.5462170000000  0.5340010000000 1.0
C      1  0.4371850000000  0.3705400000000  0.5242370000000 1.0
C      1  0.5366380000000  0.4818340000000  0.4757670000000 1.0
C      1  0.6126790000000  0.5688270000000  0.5216510000000 1.0
C      1  0.5922610000000  0.5063860000000  0.5083980000000 1.0
C      1  0.5033150000000  0.3996210000000  0.5357650000000 1.0
C      1  0.4290620000000  0.5602040000000  0.4213940000000 1.0
C      1  0.5363050000000  0.5266640000000  0.4630780000000 1.0
C      1  0.5282950000000  0.5730240000000  0.4899630000000 1.0
C      1  0.6080990000000  0.4343570000000  0.5286130000000 1.0
C      1  0.5062170000000  0.5899460000000  0.4846310000000 1.0
C      1  0.5139670000000  0.4104450000000  0.5849220000000 1.0
C      1  0.4370740000000  0.5850110000000  0.4274600000000 1.0
C      1  0.6131250000000  0.4681310000000  0.4532720000000 1.0
C      1  0.5552340000000  0.5350790000000  0.4852980000000 1.0
C      1  0.4033430000000  0.5431290000000  0.5044680000000 1.0
C      1  0.5317570000000  0.5091080000000  0.5743930000000 1.0
C      1  0.5026630000000  0.5629370000000  0.5286950000000 1.0
C      1  0.5376010000000  0.4871610000000  0.5042000000000 1.0
C      1  0.5495720000000  0.3974650000000  0.4756180000000 1.0
C      1  0.4317200000000  0.4703570000000  0.5312740000000 1.0
C      1  0.5045350000000  0.4509500000000  0.4884330000000 1.0
C      1  0.5888900000000  0.4629470000000  0.4067180000000 1.0
C      1  0.4172560000000  0.5358860000000  0.4294620000000 1.0
C      1  0.5336130000000  0.5710750000000  0.3936790000000 1.0
C      1  0.4662550000000  0.5553670000000  0.4942360000000 1.0
C      1  0.4718000000000  0.5107900000000  0.4619420000000 1.0
C      1  0.3831280000000  0.5018350000000  0.4267910000000 1.0
C      1  0.4211930000000  0.5408950000000  0.5776220000000 1.0
C      1  0.4721430000000  0.4999700000000  0.5728790000000 1.0
C      1  0.5647330000000  0.5721900000000  0.4547500000000 1.0
C      1  0.5060410000000  0.4468080000000  0.5166840000000 1.0
C      1  0.5068640000000  0.6176670000000  0.4918790000000 1.0
C      1  0.4555240000000  0.3919510000000  0.5169030000000 1.0
C      1  0.4090330000000  0.5709610000000  0.4680850000000 1.0
C      1  0.5899020000000  0.4142760000000  0.5266260000000 1.0
C      1  0.4823780000000  0.4182410000000  0.4495300000000 1.0
C      1  0.4413320000000  0.5114230000000  0.5097520000000 1.0
C      1  0.3934690000000  0.5261310000000  0.4170950000000 1.0
C      1  0.4838250000000  0.4935180000000  0.4806010000000 1.0
C      1  0.4525900000000  0.3989530000000  0.4869160000000 1.0
END
