TITL C-612604-1799-660 18769.7964643672 125000 -1024.41612092942 0 0 167 (C1) n - 1
REM
REM in /home/nfs/bkarasulu/CARBON/AIRSS/Generating-Clusters/TERSOFF/Only-C1/FIRE-HFTN
REM
REM
REM
REM
REM
REM ./C.cell (11c1c37f851c82e70ff6c80c92926a4b)
REM AIRSS Version 0.9.1 bugfix July 2018 build 013d7b7c2542+ Fri, 06 Jul 2018 19:26:36 +0100
REM compiler GCC version 9.2.1 20190827 (Red Hat 9.2.1-1)
REM options -cpp -mtune=generic -march=x86-64 -g -O0 -fpre-include=/usr/include/finclude/math-vector-fortran.h
REM seed -1198822203 956468290 -52331402 117508917 833084847 -65386418 860042992 1264127344 1219819898 2044526580 -729328975 1144353362 61207715 -648098171 1516238346 1075282815 -1296470738 657324467 967844136 -1161364481 -881127376 772416592 1195294214 -485793368 28765307 513970694 1459121656 1077087029 -1101551355 1288176462 -985174707 -1632775762 -538782740
REM
CELL 1.54180   50.00000   50.00000   50.00000   90.00000   90.00000   90.00000
LATT -1
SFAC C  
C      1  0.5990700000000  0.5172670000000  0.5503950000000 1.0
C      1  0.4470340000000  0.5491120000000  0.5872170000000 1.0
C      1  0.6147480000000  0.5071690000000  0.4207210000000 1.0
C      1  0.4626720000000  0.4777360000000  0.4778720000000 1.0
C      1  0.5084990000000  0.5674200000000  0.5610230000000 1.0
C      1  0.5693000000000  0.5851470000000  0.4684260000000 1.0
C      1  0.5137730000000  0.5807880000000  0.5362630000000 1.0
C      1  0.4383640000000  0.4086730000000  0.4478670000000 1.0
C      1  0.5602330000000  0.4174960000000  0.4648340000000 1.0
C      1  0.4048120000000  0.5331210000000  0.4624830000000 1.0
C      1  0.4343830000000  0.4919660000000  0.4743590000000 1.0
C      1  0.5987430000000  0.5481550000000  0.4803780000000 1.0
C      1  0.6387920000000  0.5160740000000  0.4598920000000 1.0
C      1  0.5998240000000  0.5261300000000  0.4368540000000 1.0
C      1  0.5156930000000  0.5719050000000  0.4684860000000 1.0
C      1  0.4126910000000  0.4165260000000  0.4606390000000 1.0
C      1  0.5628680000000  0.5999550000000  0.4915620000000 1.0
C      1  0.4991240000000  0.4166000000000  0.4585240000000 1.0
C      1  0.5401200000000  0.6184150000000  0.5805530000000 1.0
C      1  0.4156820000000  0.5101600000000  0.4502960000000 1.0
C      1  0.4984220000000  0.4152500000000  0.5779010000000 1.0
C      1  0.4762840000000  0.5760540000000  0.4062970000000 1.0
C      1  0.4456780000000  0.3946860000000  0.5363240000000 1.0
C      1  0.4347820000000  0.4887770000000  0.4070490000000 1.0
C      1  0.4488130000000  0.3958330000000  0.5652380000000 1.0
C      1  0.5465320000000  0.3982890000000  0.5784530000000 1.0
C      1  0.4605030000000  0.5896920000000  0.5534120000000 1.0
C      1  0.5701120000000  0.4626030000000  0.4470480000000 1.0
C      1  0.3593160000000  0.4971090000000  0.4927130000000 1.0
C      1  0.4937430000000  0.4002230000000  0.5314840000000 1.0
C      1  0.3964020000000  0.4714790000000  0.5409370000000 1.0
C      1  0.4893570000000  0.4404010000000  0.6168420000000 1.0
C      1  0.5734630000000  0.5566530000000  0.5546870000000 1.0
C      1  0.4689740000000  0.3926450000000  0.5181020000000 1.0
C      1  0.5201530000000  0.4005560000000  0.5206680000000 1.0
C      1  0.4789730000000  0.4798790000000  0.5753160000000 1.0
C      1  0.3969470000000  0.5556860000000  0.5048550000000 1.0
C      1  0.3918610000000  0.5179810000000  0.5526950000000 1.0
C      1  0.5384900000000  0.6763710000000  0.4855950000000 1.0
C      1  0.5060360000000  0.5705100000000  0.5875760000000 1.0
C      1  0.4789050000000  0.4216770000000  0.5979470000000 1.0
C      1  0.4144810000000  0.5574250000000  0.4496070000000 1.0
C      1  0.5522220000000  0.4866330000000  0.5959830000000 1.0
C      1  0.4162910000000  0.4709670000000  0.5639030000000 1.0
C      1  0.5552080000000  0.5070460000000  0.5737440000000 1.0
C      1  0.4848670000000  0.5537670000000  0.3904240000000 1.0
C      1  0.4473360000000  0.5308520000000  0.5156480000000 1.0
C      1  0.4949880000000  0.4534510000000  0.4047460000000 1.0
C      1  0.4811360000000  0.5262800000000  0.4291270000000 1.0
C      1  0.3930970000000  0.5318680000000  0.4897960000000 1.0
C      1  0.4655530000000  0.5765980000000  0.5282950000000 1.0
C      1  0.4605610000000  0.5381800000000  0.4447210000000 1.0
C      1  0.5383680000000  0.4182240000000  0.5346420000000 1.0
C      1  0.5100140000000  0.5073450000000  0.3958490000000 1.0
C      1  0.4345860000000  0.4772100000000  0.5186800000000 1.0
C      1  0.5497630000000  0.5317260000000  0.4227180000000 1.0
C      1  0.6141900000000  0.5305790000000  0.4633960000000 1.0
C      1  0.5504670000000  0.6000570000000  0.5620290000000 1.0
C      1  0.6101260000000  0.4280900000000  0.4970030000000 1.0
C      1  0.5214000000000  0.4020080000000  0.5868370000000 1.0
C      1  0.4632470000000  0.5261080000000  0.5918400000000 1.0
C      1  0.4195470000000  0.5425440000000  0.5855710000000 1.0
C      1  0.5755990000000  0.4412380000000  0.5311460000000 1.0
C      1  0.5027460000000  0.4939270000000  0.4968660000000 1.0
C      1  0.4796230000000  0.4772050000000  0.4999420000000 1.0
C      1  0.5051440000000  0.5159400000000  0.4416240000000 1.0
C      1  0.5751480000000  0.5416220000000  0.4358640000000 1.0
C      1  0.5676420000000  0.4880720000000  0.4603920000000 1.0
C      1  0.5967110000000  0.4303490000000  0.5200460000000 1.0
C      1  0.5426340000000  0.5445270000000  0.5071250000000 1.0
C      1  0.5678160000000  0.4967620000000  0.5081160000000 1.0
C      1  0.5753950000000  0.5285990000000  0.5639290000000 1.0
C      1  0.5190420000000  0.4535740000000  0.5084840000000 1.0
C      1  0.4925670000000  0.5785330000000  0.5167180000000 1.0
C      1  0.4541600000000  0.4860340000000  0.5360040000000 1.0
C      1  0.5463310000000  0.3998130000000  0.4790980000000 1.0
C      1  0.5084480000000  0.5879040000000  0.4463380000000 1.0
C      1  0.5233640000000  0.6135520000000  0.6011810000000 1.0
C      1  0.5244460000000  0.4749570000000  0.6001920000000 1.0
C      1  0.4905250000000  0.4205960000000  0.5510820000000 1.0
C      1  0.5369080000000  0.5288950000000  0.5275340000000 1.0
C      1  0.5620740000000  0.5070610000000  0.4813920000000 1.0
C      1  0.5181490000000  0.4369220000000  0.4035150000000 1.0
C      1  0.6035590000000  0.4350510000000  0.4718920000000 1.0
C      1  0.5281250000000  0.4679680000000  0.5534510000000 1.0
C      1  0.4893640000000  0.4412020000000  0.4568110000000 1.0
C      1  0.5102290000000  0.4582490000000  0.6189280000000 1.0
C      1  0.5224470000000  0.4737210000000  0.4594300000000 1.0
C      1  0.4501400000000  0.4296010000000  0.4278960000000 1.0
C      1  0.4718410000000  0.3913270000000  0.4886270000000 1.0
C      1  0.4972290000000  0.5681010000000  0.4903670000000 1.0
C      1  0.6103570000000  0.5323710000000  0.5284420000000 1.0
C      1  0.4232750000000  0.4676060000000  0.4470780000000 1.0
C      1  0.6393760000000  0.5031000000000  0.4354110000000 1.0
C      1  0.5781260000000  0.4387230000000  0.4604850000000 1.0
C      1  0.5924680000000  0.4853640000000  0.5179560000000 1.0
C      1  0.4889390000000  0.5277640000000  0.4008570000000 1.0
C      1  0.4379650000000  0.4521630000000  0.5635190000000 1.0
C      1  0.5582060000000  0.6274090000000  0.4895940000000 1.0
C      1  0.4985020000000  0.3971610000000  0.4787460000000 1.0
C      1  0.5396150000000  0.5938610000000  0.5357380000000 1.0
C      1  0.5794700000000  0.5602250000000  0.4604030000000 1.0
C      1  0.3969570000000  0.4587340000000  0.4487130000000 1.0
C      1  0.5495090000000  0.6523560000000  0.4877090000000 1.0
C      1  0.4602950000000  0.6169370000000  0.5554140000000 1.0
C      1  0.4951550000000  0.5890200000000  0.4230060000000 1.0
C      1  0.5448740000000  0.4910770000000  0.5514390000000 1.0
C      1  0.6134520000000  0.4800670000000  0.5011500000000 1.0
C      1  0.5548000000000  0.4063100000000  0.5541980000000 1.0
C      1  0.4103130000000  0.5187430000000  0.5739950000000 1.0
C      1  0.4569360000000  0.4988240000000  0.5848670000000 1.0
C      1  0.5094840000000  0.5907010000000  0.6050820000000 1.0
C      1  0.4181300000000  0.5682790000000  0.5155570000000 1.0
C      1  0.5779960000000  0.5654460000000  0.5259940000000 1.0
C      1  0.4167080000000  0.5057200000000  0.4217180000000 1.0
C      1  0.4495090000000  0.5745250000000  0.4161490000000 1.0
C      1  0.4484550000000  0.4672400000000  0.3976020000000 1.0
C      1  0.5000870000000  0.5209280000000  0.4975760000000 1.0
C      1  0.3750150000000  0.4644000000000  0.4339810000000 1.0
C      1  0.4402060000000  0.5566210000000  0.4360570000000 1.0
C      1  0.4642030000000  0.4637960000000  0.5542070000000 1.0
C      1  0.5084230000000  0.4743570000000  0.5751170000000 1.0
C      1  0.5480000000000  0.5337440000000  0.4818990000000 1.0
C      1  0.5268470000000  0.6995910000000  0.4833760000000 1.0
C      1  0.3984710000000  0.4396940000000  0.4703420000000 1.0
C      1  0.5226990000000  0.3948090000000  0.4932730000000 1.0
C      1  0.3812970000000  0.5090810000000  0.5046440000000 1.0
C      1  0.4861960000000  0.5422280000000  0.4865400000000 1.0
C      1  0.4450280000000  0.5211670000000  0.4887180000000 1.0
C      1  0.4444550000000  0.5590990000000  0.5197760000000 1.0
C      1  0.5222320000000  0.4742080000000  0.4877430000000 1.0
C      1  0.5765540000000  0.4709910000000  0.5917650000000 1.0
C      1  0.4014770000000  0.4542350000000  0.4951130000000 1.0
C      1  0.4810770000000  0.4448880000000  0.5397260000000 1.0
C      1  0.4007530000000  0.4216330000000  0.5298040000000 1.0
C      1  0.5037210000000  0.4811140000000  0.4103250000000 1.0
C      1  0.4455750000000  0.4530450000000  0.4440190000000 1.0
C      1  0.4201190000000  0.4031520000000  0.5278290000000 1.0
C      1  0.5439660000000  0.4423840000000  0.4094680000000 1.0
C      1  0.5274020000000  0.5334050000000  0.4408660000000 1.0
C      1  0.5971880000000  0.5501570000000  0.5098390000000 1.0
C      1  0.5931690000000  0.4728910000000  0.5698240000000 1.0
C      1  0.4198470000000  0.4764730000000  0.4951630000000 1.0
C      1  0.5604500000000  0.5868980000000  0.5167850000000 1.0
C      1  0.5380040000000  0.5178520000000  0.3992750000000 1.0
C      1  0.4660360000000  0.4444830000000  0.4053730000000 1.0
C      1  0.4530410000000  0.3927170000000  0.4670450000000 1.0
C      1  0.3946980000000  0.4481860000000  0.5225580000000 1.0
C      1  0.5481840000000  0.5035140000000  0.5274390000000 1.0
C      1  0.5647470000000  0.4591190000000  0.4188740000000 1.0
C      1  0.3885020000000  0.4990260000000  0.5316360000000 1.0
C      1  0.5824900000000  0.4723350000000  0.4015800000000 1.0
C      1  0.5099570000000  0.4878580000000  0.4383400000000 1.0
C      1  0.4551780000000  0.4079680000000  0.5890210000000 1.0
C      1  0.6023830000000  0.4901520000000  0.4026240000000 1.0
C      1  0.3975760000000  0.5186020000000  0.4064980000000 1.0
C      1  0.5978270000000  0.4888580000000  0.5464720000000 1.0
C      1  0.4552670000000  0.5731490000000  0.5756230000000 1.0
C      1  0.5669050000000  0.5786790000000  0.5713620000000 1.0
C      1  0.5322320000000  0.5484870000000  0.4633630000000 1.0
C      1  0.4582460000000  0.5136520000000  0.5349050000000 1.0
C      1  0.3992920000000  0.5802350000000  0.4493830000000 1.0
C      1  0.4897230000000  0.4539770000000  0.5142670000000 1.0
C      1  0.4629670000000  0.5351800000000  0.4724480000000 1.0
C      1  0.4269450000000  0.4951730000000  0.5774360000000 1.0
C      1  0.5333850000000  0.4468240000000  0.5326960000000 1.0
C      1  0.4680680000000  0.4588370000000  0.4588470000000 1.0
END
