TITL C-612607-4507-1378 -0.133906392746207 125000 -1168.40453661398 0 0 189 (C1) n - 1
REM
REM in /home/nfs/bkarasulu/CARBON/AIRSS/Generating-Clusters/TERSOFF/Only-C1/FIRE-HFTN
REM
REM
REM
REM
REM
REM ./C.cell (11c1c37f851c82e70ff6c80c92926a4b)
REM AIRSS Version 0.9.1 bugfix July 2018 build 013d7b7c2542+ Fri, 06 Jul 2018 19:26:36 +0100
REM compiler GCC version 9.2.1 20190827 (Red Hat 9.2.1-1)
REM options -cpp -mtune=generic -march=x86-64 -g -O0 -fpre-include=/usr/include/finclude/math-vector-fortran.h
REM seed 1495821492 -1490267633 434761720 -324355291 428048142 451691413 -494191769 575786347 -1110515988 -1823476032 -2062671198 -1597389037 459143366 -169404795 -577552640 -40998795 -252400233 -103269105 1566112052 -2016038851 -131201229 -1375902847 -1002375264 -37785373 143404152 -1167371991 1890763944 400908979 776105321 -459595668 -1727887416 -548357936 1365331677
REM
CELL 1.54180   50.00000   50.00000   50.00000   90.00000   90.00000   90.00000
LATT -1
SFAC C  
C      1  0.5575030000000  0.4087770000000  0.5733680000000 1.0
C      1  0.4566890000000  0.4357130000000  0.4361420000000 1.0
C      1  0.5506910000000  0.4636440000000  0.3859820000000 1.0
C      1  0.5714710000000  0.5116600000000  0.5746610000000 1.0
C      1  0.5941260000000  0.4358260000000  0.4871170000000 1.0
C      1  0.5225940000000  0.5675240000000  0.4865450000000 1.0
C      1  0.5335110000000  0.4526410000000  0.5672450000000 1.0
C      1  0.5122380000000  0.5702880000000  0.5465500000000 1.0
C      1  0.4955670000000  0.4154710000000  0.5080260000000 1.0
C      1  0.5580210000000  0.5259900000000  0.5962840000000 1.0
C      1  0.4285530000000  0.4093660000000  0.5116650000000 1.0
C      1  0.5055100000000  0.5809250000000  0.5903700000000 1.0
C      1  0.5066940000000  0.4620180000000  0.5629700000000 1.0
C      1  0.6324570000000  0.4962660000000  0.5145350000000 1.0
C      1  0.5297490000000  0.4950160000000  0.5082740000000 1.0
C      1  0.5603000000000  0.5028510000000  0.6452420000000 1.0
C      1  0.5963860000000  0.5984970000000  0.5196540000000 1.0
C      1  0.5414780000000  0.5907270000000  0.4004660000000 1.0
C      1  0.4463660000000  0.5364910000000  0.4397900000000 1.0
C      1  0.5556580000000  0.4948480000000  0.4577900000000 1.0
C      1  0.4097160000000  0.4528740000000  0.5357510000000 1.0
C      1  0.3928560000000  0.5361180000000  0.5031630000000 1.0
C      1  0.3855250000000  0.4632860000000  0.5225030000000 1.0
C      1  0.4930660000000  0.4619220000000  0.4544310000000 1.0
C      1  0.4186600000000  0.4256250000000  0.5343170000000 1.0
C      1  0.3845530000000  0.5088210000000  0.5054390000000 1.0
C      1  0.4631240000000  0.6177250000000  0.4535640000000 1.0
C      1  0.4605130000000  0.5110140000000  0.3896940000000 1.0
C      1  0.4807650000000  0.4353110000000  0.5262080000000 1.0
C      1  0.4859000000000  0.4963030000000  0.3898250000000 1.0
C      1  0.4288540000000  0.5906370000000  0.5109730000000 1.0
C      1  0.5165380000000  0.5428050000000  0.5439530000000 1.0
C      1  0.4636140000000  0.5396810000000  0.3948660000000 1.0
C      1  0.4043390000000  0.5235010000000  0.4593870000000 1.0
C      1  0.5098060000000  0.5928160000000  0.4489770000000 1.0
C      1  0.6055600000000  0.5009780000000  0.4210760000000 1.0
C      1  0.4587970000000  0.5853220000000  0.5639360000000 1.0
C      1  0.5129040000000  0.4986500000000  0.5299780000000 1.0
C      1  0.4728070000000  0.5215370000000  0.5274930000000 1.0
C      1  0.4757880000000  0.5781980000000  0.5872940000000 1.0
C      1  0.4947570000000  0.4342390000000  0.4610830000000 1.0
C      1  0.5561440000000  0.4008270000000  0.4795190000000 1.0
C      1  0.5332560000000  0.4430830000000  0.3735070000000 1.0
C      1  0.4723490000000  0.4793210000000  0.4946280000000 1.0
C      1  0.6258090000000  0.5198360000000  0.5258260000000 1.0
C      1  0.4227660000000  0.4794550000000  0.5445220000000 1.0
C      1  0.5206210000000  0.4844560000000  0.4222360000000 1.0
C      1  0.4273800000000  0.5895980000000  0.4424530000000 1.0
C      1  0.4981080000000  0.5999550000000  0.4238630000000 1.0
C      1  0.4287020000000  0.5313470000000  0.5352740000000 1.0
C      1  0.4531480000000  0.4352440000000  0.6275510000000 1.0
C      1  0.6093930000000  0.4532350000000  0.5040310000000 1.0
C      1  0.4838110000000  0.4621530000000  0.5185000000000 1.0
C      1  0.4358720000000  0.4894370000000  0.5202440000000 1.0
C      1  0.4968490000000  0.5783930000000  0.5035130000000 1.0
C      1  0.5594460000000  0.4639460000000  0.5252610000000 1.0
C      1  0.5081910000000  0.6147530000000  0.4676590000000 1.0
C      1  0.4697500000000  0.6029010000000  0.4276270000000 1.0
C      1  0.4729280000000  0.5988940000000  0.5414040000000 1.0
C      1  0.5206810000000  0.4054290000000  0.5223260000000 1.0
C      1  0.5749570000000  0.4613120000000  0.4011690000000 1.0
C      1  0.5509510000000  0.4433340000000  0.5055390000000 1.0
C      1  0.4405040000000  0.6030060000000  0.4643030000000 1.0
C      1  0.5549550000000  0.5394790000000  0.5157640000000 1.0
C      1  0.5892560000000  0.5497820000000  0.4827120000000 1.0
C      1  0.5713840000000  0.5765470000000  0.5561950000000 1.0
C      1  0.5969850000000  0.4985790000000  0.4837430000000 1.0
C      1  0.4996890000000  0.5229060000000  0.5341760000000 1.0
C      1  0.4455380000000  0.4733080000000  0.4750280000000 1.0
C      1  0.5508480000000  0.4502840000000  0.4408940000000 1.0
C      1  0.5128890000000  0.3872590000000  0.5685800000000 1.0
C      1  0.5947800000000  0.5177440000000  0.4415530000000 1.0
C      1  0.5180360000000  0.6064360000000  0.4050190000000 1.0
C      1  0.5392800000000  0.4762170000000  0.4431150000000 1.0
C      1  0.5186840000000  0.3647180000000  0.4981610000000 1.0
C      1  0.5662560000000  0.5155030000000  0.4410990000000 1.0
C      1  0.4289290000000  0.4146290000000  0.4821280000000 1.0
C      1  0.5512030000000  0.5283310000000  0.4220300000000 1.0
C      1  0.4894480000000  0.5492650000000  0.3885330000000 1.0
C      1  0.5080820000000  0.4302300000000  0.4851440000000 1.0
C      1  0.5266220000000  0.4503330000000  0.4920440000000 1.0
C      1  0.4034480000000  0.4712050000000  0.4305630000000 1.0
C      1  0.4490120000000  0.4940540000000  0.4545360000000 1.0
C      1  0.6122050000000  0.4428470000000  0.5304780000000 1.0
C      1  0.3704300000000  0.4389930000000  0.4484790000000 1.0
C      1  0.4719190000000  0.4318270000000  0.5535510000000 1.0
C      1  0.4911200000000  0.4262810000000  0.5958430000000 1.0
C      1  0.4643940000000  0.4678670000000  0.5902550000000 1.0
C      1  0.3963430000000  0.4480110000000  0.4476440000000 1.0
C      1  0.5753210000000  0.5794610000000  0.4411490000000 1.0
C      1  0.6006740000000  0.5245000000000  0.4697980000000 1.0
C      1  0.5571880000000  0.4883320000000  0.5091810000000 1.0
C      1  0.4378200000000  0.4280990000000  0.6488050000000 1.0
C      1  0.5491280000000  0.5823130000000  0.4812030000000 1.0
C      1  0.3873660000000  0.5676820000000  0.4633870000000 1.0
C      1  0.4437700000000  0.4942720000000  0.4070490000000 1.0
C      1  0.3676060000000  0.4737220000000  0.5422390000000 1.0
C      1  0.6020120000000  0.4279500000000  0.5504220000000 1.0
C      1  0.5835720000000  0.4157680000000  0.5657000000000 1.0
C      1  0.4283120000000  0.4146590000000  0.5590830000000 1.0
C      1  0.4925450000000  0.5177210000000  0.4583060000000 1.0
C      1  0.4171890000000  0.4348540000000  0.4638000000000 1.0
C      1  0.5120730000000  0.5367760000000  0.4465040000000 1.0
C      1  0.5239990000000  0.5829160000000  0.5685270000000 1.0
C      1  0.5731370000000  0.5712130000000  0.4684260000000 1.0
C      1  0.5442710000000  0.5513280000000  0.5949070000000 1.0
C      1  0.5591990000000  0.5139820000000  0.6217040000000 1.0
C      1  0.5078890000000  0.5643240000000  0.4592240000000 1.0
C      1  0.4652730000000  0.4374370000000  0.4091170000000 1.0
C      1  0.4098670000000  0.5482510000000  0.5228030000000 1.0
C      1  0.4608360000000  0.5015060000000  0.5116570000000 1.0
C      1  0.6076860000000  0.6190540000000  0.5073450000000 1.0
C      1  0.4272080000000  0.5134770000000  0.4447250000000 1.0
C      1  0.3782630000000  0.4895510000000  0.5619180000000 1.0
C      1  0.4006610000000  0.5827020000000  0.4456410000000 1.0
C      1  0.4713970000000  0.5760210000000  0.4894500000000 1.0
C      1  0.6148130000000  0.4812700000000  0.4983040000000 1.0
C      1  0.4314480000000  0.5730620000000  0.5590190000000 1.0
C      1  0.4825980000000  0.6260440000000  0.4735290000000 1.0
C      1  0.5714440000000  0.4827950000000  0.5721570000000 1.0
C      1  0.5588580000000  0.3747620000000  0.5162570000000 1.0
C      1  0.4830220000000  0.4485160000000  0.5767540000000 1.0
C      1  0.4946280000000  0.5261480000000  0.6375310000000 1.0
C      1  0.4182220000000  0.4950440000000  0.4215110000000 1.0
C      1  0.4750080000000  0.6317550000000  0.5006990000000 1.0
C      1  0.5049300000000  0.4517940000000  0.3748730000000 1.0
C      1  0.5346620000000  0.5421000000000  0.4961320000000 1.0
C      1  0.5040030000000  0.3632110000000  0.5221970000000 1.0
C      1  0.4652840000000  0.3862890000000  0.5447910000000 1.0
C      1  0.4945260000000  0.4860430000000  0.4731220000000 1.0
C      1  0.5189410000000  0.4781580000000  0.4885540000000 1.0
C      1  0.5065710000000  0.4812480000000  0.3774460000000 1.0
C      1  0.4560990000000  0.4090410000000  0.5599390000000 1.0
C      1  0.5886300000000  0.4694590000000  0.5892020000000 1.0
C      1  0.4685490000000  0.5353570000000  0.4583590000000 1.0
C      1  0.6183670000000  0.6388810000000  0.4942150000000 1.0
C      1  0.5175140000000  0.5578790000000  0.6063590000000 1.0
C      1  0.4114310000000  0.5240500000000  0.5747000000000 1.0
C      1  0.5247400000000  0.5366960000000  0.4211570000000 1.0
C      1  0.4942930000000  0.5456850000000  0.6186690000000 1.0
C      1  0.5555080000000  0.4664420000000  0.5542480000000 1.0
C      1  0.5366870000000  0.4274330000000  0.5806390000000 1.0
C      1  0.4723900000000  0.4187220000000  0.4533890000000 1.0
C      1  0.5419420000000  0.4198180000000  0.3623300000000 1.0
C      1  0.4598240000000  0.5178420000000  0.5724140000000 1.0
C      1  0.4782040000000  0.5605350000000  0.4671430000000 1.0
C      1  0.4223980000000  0.4798300000000  0.4954220000000 1.0
C      1  0.4528260000000  0.3911740000000  0.5185730000000 1.0
C      1  0.3935770000000  0.5435730000000  0.4758660000000 1.0
C      1  0.4704230000000  0.5580250000000  0.6076640000000 1.0
C      1  0.4688150000000  0.6226890000000  0.5257960000000 1.0
C      1  0.5694400000000  0.4914890000000  0.4835640000000 1.0
C      1  0.4947150000000  0.5837670000000  0.5305500000000 1.0
C      1  0.5001200000000  0.4754950000000  0.5386570000000 1.0
C      1  0.4407420000000  0.4497550000000  0.4563790000000 1.0
C      1  0.4539800000000  0.5282050000000  0.5470740000000 1.0
C      1  0.5505620000000  0.5724140000000  0.5748290000000 1.0
C      1  0.5838690000000  0.5490230000000  0.5142170000000 1.0
C      1  0.6012670000000  0.5317660000000  0.5325490000000 1.0
C      1  0.4913300000000  0.4899550000000  0.4191110000000 1.0
C      1  0.5418020000000  0.3875630000000  0.5607740000000 1.0
C      1  0.5678130000000  0.4253820000000  0.4903200000000 1.0
C      1  0.4641220000000  0.4885020000000  0.4296510000000 1.0
C      1  0.4931340000000  0.3761460000000  0.5473320000000 1.0
C      1  0.5312790000000  0.4834770000000  0.3942700000000 1.0
C      1  0.5349760000000  0.5671620000000  0.3861130000000 1.0
C      1  0.4832240000000  0.4394820000000  0.3888130000000 1.0
C      1  0.4502590000000  0.5534420000000  0.4168170000000 1.0
C      1  0.4650340000000  0.4953260000000  0.5854980000000 1.0
C      1  0.4060930000000  0.4975390000000  0.5627000000000 1.0
C      1  0.3938360000000  0.4819680000000  0.5016340000000 1.0
C      1  0.5950480000000  0.4814720000000  0.4049810000000 1.0
C      1  0.4721850000000  0.3980370000000  0.4978250000000 1.0
C      1  0.4482140000000  0.4576450000000  0.6111620000000 1.0
C      1  0.5630710000000  0.5891360000000  0.4190340000000 1.0
C      1  0.4196690000000  0.5507430000000  0.5749870000000 1.0
C      1  0.4481990000000  0.5820440000000  0.4227120000000 1.0
C      1  0.5452700000000  0.3759930000000  0.4905610000000 1.0
C      1  0.5837010000000  0.5760460000000  0.5302180000000 1.0
C      1  0.5123030000000  0.4113910000000  0.5854790000000 1.0
C      1  0.4574790000000  0.4061560000000  0.4742280000000 1.0
C      1  0.5437270000000  0.5359080000000  0.5411750000000 1.0
C      1  0.5708120000000  0.4441520000000  0.4235890000000 1.0
C      1  0.5895850000000  0.5249070000000  0.5575230000000 1.0
C      1  0.4192350000000  0.5744500000000  0.5317080000000 1.0
C      1  0.5427680000000  0.3903490000000  0.5331490000000 1.0
C      1  0.5161090000000  0.5490300000000  0.3969720000000 1.0
C      1  0.4462020000000  0.5898020000000  0.4890440000000 1.0
C      1  0.4760340000000  0.4211870000000  0.6189630000000 1.0
END
