TITL C-612604-1799-1403 994.536456440743 125000 -842.754136932673 0 0 140 (C1) n - 1
REM
REM in /home/nfs/bkarasulu/CARBON/AIRSS/Generating-Clusters/TERSOFF/Only-C1/FIRE-HFTN
REM
REM
REM
REM
REM
REM ./C.cell (11c1c37f851c82e70ff6c80c92926a4b)
REM AIRSS Version 0.9.1 bugfix July 2018 build 013d7b7c2542+ Fri, 06 Jul 2018 19:26:36 +0100
REM compiler GCC version 9.2.1 20190827 (Red Hat 9.2.1-1)
REM options -cpp -mtune=generic -march=x86-64 -g -O0 -fpre-include=/usr/include/finclude/math-vector-fortran.h
REM seed 1279554548 1080082278 1172306350 274495770 44997115 -811748956 331643461 638529598 -1299853462 1568550174 -1617899731 1277319086 -1740472732 -1095502977 -1286014864 -1458659894 -292530838 -791267629 -522907696 -1345350915 302679500 2009064750 2086155313 -133749899 1386781304 1920154495 -302038284 -1256781594 -2126082236 -1031051656 771543468 887275204 165863241
REM
CELL 1.54180   50.00000   50.00000   50.00000   90.00000   90.00000   90.00000
LATT -1
SFAC C  
C      1  0.5420050000000  0.4497750000000  0.5133250000000 1.0
C      1  0.5196730000000  0.4363210000000  0.5233520000000 1.0
C      1  0.4772760000000  0.4520110000000  0.5826450000000 1.0
C      1  0.4373920000000  0.4146760000000  0.5111880000000 1.0
C      1  0.5293570000000  0.5283520000000  0.4429510000000 1.0
C      1  0.4738190000000  0.5217320000000  0.4631650000000 1.0
C      1  0.4059550000000  0.4892010000000  0.5511110000000 1.0
C      1  0.5020750000000  0.5839880000000  0.6161110000000 1.0
C      1  0.4599020000000  0.5505810000000  0.4971680000000 1.0
C      1  0.4330630000000  0.4802550000000  0.5604810000000 1.0
C      1  0.5792740000000  0.5052000000000  0.5503040000000 1.0
C      1  0.4597500000000  0.4032410000000  0.4705990000000 1.0
C      1  0.5516130000000  0.4312780000000  0.4637590000000 1.0
C      1  0.5949100000000  0.4783260000000  0.5097060000000 1.0
C      1  0.5518610000000  0.5741250000000  0.4556480000000 1.0
C      1  0.5780190000000  0.5268880000000  0.4462640000000 1.0
C      1  0.5915110000000  0.4630190000000  0.4646960000000 1.0
C      1  0.5160600000000  0.5451900000000  0.4266220000000 1.0
C      1  0.4519120000000  0.4884720000000  0.5407130000000 1.0
C      1  0.5024360000000  0.4073210000000  0.5539310000000 1.0
C      1  0.4840260000000  0.5280610000000  0.5832770000000 1.0
C      1  0.4693160000000  0.5490910000000  0.4704270000000 1.0
C      1  0.4898080000000  0.5659650000000  0.4641680000000 1.0
C      1  0.5247700000000  0.5440570000000  0.5642180000000 1.0
C      1  0.5345000000000  0.5078380000000  0.3980430000000 1.0
C      1  0.4426540000000  0.6623510000000  0.5044280000000 1.0
C      1  0.5947610000000  0.4854340000000  0.4813210000000 1.0
C      1  0.4708880000000  0.5396540000000  0.5218620000000 1.0
C      1  0.5742600000000  0.5558080000000  0.4569740000000 1.0
C      1  0.5079390000000  0.4559440000000  0.4644350000000 1.0
C      1  0.4872480000000  0.5016510000000  0.5735370000000 1.0
C      1  0.4487040000000  0.4621990000000  0.5786760000000 1.0
C      1  0.5044840000000  0.5479580000000  0.5828290000000 1.0
C      1  0.5986510000000  0.5328990000000  0.4913930000000 1.0
C      1  0.5047560000000  0.5836200000000  0.4493120000000 1.0
C      1  0.4303580000000  0.5259550000000  0.4282090000000 1.0
C      1  0.4433440000000  0.4217530000000  0.4841530000000 1.0
C      1  0.4732300000000  0.4449330000000  0.5316900000000 1.0
C      1  0.5055800000000  0.4825780000000  0.4252310000000 1.0
C      1  0.5662360000000  0.4364240000000  0.5078790000000 1.0
C      1  0.5058710000000  0.5920190000000  0.6406110000000 1.0
C      1  0.5766600000000  0.4853550000000  0.4132500000000 1.0
C      1  0.6093700000000  0.5242850000000  0.5164810000000 1.0
C      1  0.4997530000000  0.4516110000000  0.5357170000000 1.0
C      1  0.4543430000000  0.4762080000000  0.4679050000000 1.0
C      1  0.4877380000000  0.5922840000000  0.5701090000000 1.0
C      1  0.5918950000000  0.5125320000000  0.4709970000000 1.0
C      1  0.4642470000000  0.4828460000000  0.4938390000000 1.0
C      1  0.5979210000000  0.5002950000000  0.5284840000000 1.0
C      1  0.4208160000000  0.3940990000000  0.5178730000000 1.0
C      1  0.4821260000000  0.5997540000000  0.5429050000000 1.0
C      1  0.5117840000000  0.4676980000000  0.5551170000000 1.0
C      1  0.5415170000000  0.4929470000000  0.5282630000000 1.0
C      1  0.4588700000000  0.5497420000000  0.5466940000000 1.0
C      1  0.5722800000000  0.4600400000000  0.4225690000000 1.0
C      1  0.3837820000000  0.4490650000000  0.5276400000000 1.0
C      1  0.5372510000000  0.4518070000000  0.6050800000000 1.0
C      1  0.4559700000000  0.5120020000000  0.4232490000000 1.0
C      1  0.5121150000000  0.4747400000000  0.4882480000000 1.0
C      1  0.4940750000000  0.4625910000000  0.4398390000000 1.0
C      1  0.5235160000000  0.4318910000000  0.4596590000000 1.0
C      1  0.4967860000000  0.5163420000000  0.4784290000000 1.0
C      1  0.4794900000000  0.4448100000000  0.4231010000000 1.0
C      1  0.5650700000000  0.5106650000000  0.4183400000000 1.0
C      1  0.4518800000000  0.4293380000000  0.5298190000000 1.0
C      1  0.5399850000000  0.4930810000000  0.3745990000000 1.0
C      1  0.5255680000000  0.4775820000000  0.5991420000000 1.0
C      1  0.5131370000000  0.4270930000000  0.3909090000000 1.0
C      1  0.4541260000000  0.4327540000000  0.4303510000000 1.0
C      1  0.4052880000000  0.4823570000000  0.4860570000000 1.0
C      1  0.4914140000000  0.4947350000000  0.4969640000000 1.0
C      1  0.4297900000000  0.4465710000000  0.4266570000000 1.0
C      1  0.4813230000000  0.5196200000000  0.4086200000000 1.0
C      1  0.5571120000000  0.4550370000000  0.5622310000000 1.0
C      1  0.5938650000000  0.5670310000000  0.5597490000000 1.0
C      1  0.4532650000000  0.5966400000000  0.5353160000000 1.0
C      1  0.4924000000000  0.5456600000000  0.4131050000000 1.0
C      1  0.5080390000000  0.3926390000000  0.4810230000000 1.0
C      1  0.5337090000000  0.6012670000000  0.5233100000000 1.0
C      1  0.4927410000000  0.4037760000000  0.4343130000000 1.0
C      1  0.5593550000000  0.5938670000000  0.5163300000000 1.0
C      1  0.4640950000000  0.4076880000000  0.4428790000000 1.0
C      1  0.5706560000000  0.5008820000000  0.5780860000000 1.0
C      1  0.4091230000000  0.5965500000000  0.5100970000000 1.0
C      1  0.4449400000000  0.4880820000000  0.5134720000000 1.0
C      1  0.4121570000000  0.4668990000000  0.4297140000000 1.0
C      1  0.5178620000000  0.4080380000000  0.5276270000000 1.0
C      1  0.5114600000000  0.4064160000000  0.4560020000000 1.0
C      1  0.5388450000000  0.4736370000000  0.5503520000000 1.0
C      1  0.6180370000000  0.5599040000000  0.5506210000000 1.0
C      1  0.5545210000000  0.4421600000000  0.5861410000000 1.0
C      1  0.3973130000000  0.5364060000000  0.5049520000000 1.0
C      1  0.4854420000000  0.5147770000000  0.5246410000000 1.0
C      1  0.5685020000000  0.5597240000000  0.5558430000000 1.0
C      1  0.6248800000000  0.5415870000000  0.5322210000000 1.0
C      1  0.4995370000000  0.4753830000000  0.5817060000000 1.0
C      1  0.5285180000000  0.5553160000000  0.4961310000000 1.0
C      1  0.5264680000000  0.4434910000000  0.3745500000000 1.0
C      1  0.4090740000000  0.5176130000000  0.4471260000000 1.0
C      1  0.5473600000000  0.4967920000000  0.5928730000000 1.0
C      1  0.4023320000000  0.4904270000000  0.4390990000000 1.0
C      1  0.4418650000000  0.5719290000000  0.5452420000000 1.0
C      1  0.5377310000000  0.5055070000000  0.4544910000000 1.0
C      1  0.4885860000000  0.4243370000000  0.5726090000000 1.0
C      1  0.4091420000000  0.5651450000000  0.5124880000000 1.0
C      1  0.5656980000000  0.4555000000000  0.4517340000000 1.0
C      1  0.4142950000000  0.5645570000000  0.5424060000000 1.0
C      1  0.5871310000000  0.5583430000000  0.4843380000000 1.0
C      1  0.5904970000000  0.4499790000000  0.5155310000000 1.0
C      1  0.5567710000000  0.4167530000000  0.4887480000000 1.0
C      1  0.3999620000000  0.5297960000000  0.4733940000000 1.0
C      1  0.6102410000000  0.4359160000000  0.5284520000000 1.0
C      1  0.3875290000000  0.4682520000000  0.5462850000000 1.0
C      1  0.5307440000000  0.5861010000000  0.4406740000000 1.0
C      1  0.4768020000000  0.4998730000000  0.5466040000000 1.0
C      1  0.4378270000000  0.6377100000000  0.5114000000000 1.0
C      1  0.5483820000000  0.4810600000000  0.4569600000000 1.0
C      1  0.5284120000000  0.3983210000000  0.5011610000000 1.0
C      1  0.5354340000000  0.4761920000000  0.5052130000000 1.0
C      1  0.5547560000000  0.5164140000000  0.5375810000000 1.0
C      1  0.4336870000000  0.6111380000000  0.5188560000000 1.0
C      1  0.5480690000000  0.5413690000000  0.5495270000000 1.0
C      1  0.4602170000000  0.5387880000000  0.5726170000000 1.0
C      1  0.4964320000000  0.4231370000000  0.4127180000000 1.0
C      1  0.5111030000000  0.5387310000000  0.4850010000000 1.0
C      1  0.5410250000000  0.5743080000000  0.4822850000000 1.0
C      1  0.4082710000000  0.4546620000000  0.4840430000000 1.0
C      1  0.5066130000000  0.6030000000000  0.5275870000000 1.0
C      1  0.5066170000000  0.5035480000000  0.4072620000000 1.0
C      1  0.4348850000000  0.5615490000000  0.4979460000000 1.0
C      1  0.4980790000000  0.5750140000000  0.5900330000000 1.0
C      1  0.4046480000000  0.5126100000000  0.5231250000000 1.0
C      1  0.4606880000000  0.4995080000000  0.4498130000000 1.0
C      1  0.4195920000000  0.4964580000000  0.5052270000000 1.0
C      1  0.4800250000000  0.3885740000000  0.4850160000000 1.0
C      1  0.5787120000000  0.5790750000000  0.5031230000000 1.0
C      1  0.3960700000000  0.5598040000000  0.5618760000000 1.0
C      1  0.4347670000000  0.4477550000000  0.4753200000000 1.0
C      1  0.3919250000000  0.4412560000000  0.5029950000000 1.0
C      1  0.5360330000000  0.4674560000000  0.3674900000000 1.0
END
