TITL C-612606-7351-269 0.000358691020035812 125000 -499.23783823327 0 0 80 (C1) n - 1
REM
REM in /home/nfs/bkarasulu/CARBON/AIRSS/Generating-Clusters/TERSOFF/Only-C1/FIRE-HFTN
REM
REM
REM
REM
REM
REM ./C.cell (11c1c37f851c82e70ff6c80c92926a4b)
REM AIRSS Version 0.9.1 bugfix July 2018 build 013d7b7c2542+ Fri, 06 Jul 2018 19:26:36 +0100
REM compiler GCC version 9.2.1 20190827 (Red Hat 9.2.1-1)
REM options -cpp -mtune=generic -march=x86-64 -g -O0 -fpre-include=/usr/include/finclude/math-vector-fortran.h
REM seed -1660989929 247373843 509190821 -2125250059 -1318869826 1556117152 -1290824945 -1888918898 -608568269 1492580057 -858690501 -726062052 -643345794 1900468255 -576047457 -2059409592 2068077255 1444511016 970713050 -1057640917 -1320262430 1236190477 1836882912 2142569959 1360091733 -1393463210 -1548333796 47854709 859372784 1766803607 -621673630 -1802692806 -325282096
REM
CELL 1.54180   50.00000   50.00000   50.00000   90.00000   90.00000   90.00000
LATT -1
SFAC C  
C      1  0.3899910000000  0.4837770000000  0.4801950000000 1.0
C      1  0.4435260000000  0.5107260000000  0.4418270000000 1.0
C      1  0.5466520000000  0.4824190000000  0.5640990000000 1.0
C      1  0.4977520000000  0.4699220000000  0.5667710000000 1.0
C      1  0.4845070000000  0.5737410000000  0.4402600000000 1.0
C      1  0.5179270000000  0.5827390000000  0.4963540000000 1.0
C      1  0.5660300000000  0.5221820000000  0.4322000000000 1.0
C      1  0.4493620000000  0.4810170000000  0.5769050000000 1.0
C      1  0.5153340000000  0.5019450000000  0.5043100000000 1.0
C      1  0.4685070000000  0.5237590000000  0.4483790000000 1.0
C      1  0.4947120000000  0.3971340000000  0.5431010000000 1.0
C      1  0.4747950000000  0.4822090000000  0.4729870000000 1.0
C      1  0.4433430000000  0.5200290000000  0.5451290000000 1.0
C      1  0.5436860000000  0.5660920000000  0.5337250000000 1.0
C      1  0.5003920000000  0.4348160000000  0.4523650000000 1.0
C      1  0.5833240000000  0.4806520000000  0.4612210000000 1.0
C      1  0.5565330000000  0.5451430000000  0.5195090000000 1.0
C      1  0.5462880000000  0.4594050000000  0.4287850000000 1.0
C      1  0.5479020000000  0.5099000000000  0.5527420000000 1.0
C      1  0.4730300000000  0.4686610000000  0.5803450000000 1.0
C      1  0.4672000000000  0.4745690000000  0.4993310000000 1.0
C      1  0.4049490000000  0.4629000000000  0.5267540000000 1.0
C      1  0.4469750000000  0.4833590000000  0.4348250000000 1.0
C      1  0.5646620000000  0.4963600000000  0.5137990000000 1.0
C      1  0.5479690000000  0.5461170000000  0.4923550000000 1.0
C      1  0.5723690000000  0.4705510000000  0.5221780000000 1.0
C      1  0.5209840000000  0.4817760000000  0.5799930000000 1.0
C      1  0.5471690000000  0.4490190000000  0.4553440000000 1.0
C      1  0.5053920000000  0.5195330000000  0.4832240000000 1.0
C      1  0.4839450000000  0.5095060000000  0.4679120000000 1.0
C      1  0.4690950000000  0.5622340000000  0.5354420000000 1.0
C      1  0.4597760000000  0.4247320000000  0.4285970000000 1.0
C      1  0.5137750000000  0.5079980000000  0.5922300000000 1.0
C      1  0.4443470000000  0.5164360000000  0.5157440000000 1.0
C      1  0.3916140000000  0.4699100000000  0.5029270000000 1.0
C      1  0.4269190000000  0.5390310000000  0.4766620000000 1.0
C      1  0.4988390000000  0.6199810000000  0.4470790000000 1.0
C      1  0.4959160000000  0.4753600000000  0.5385630000000 1.0
C      1  0.5695880000000  0.4574230000000  0.4720420000000 1.0
C      1  0.3998180000000  0.5015800000000  0.4628850000000 1.0
C      1  0.5374440000000  0.4163070000000  0.5571720000000 1.0
C      1  0.5464720000000  0.4343740000000  0.5111380000000 1.0
C      1  0.5496940000000  0.4800880000000  0.4117730000000 1.0
C      1  0.5222140000000  0.4339030000000  0.4959810000000 1.0
C      1  0.4543780000000  0.5446840000000  0.5532120000000 1.0
C      1  0.5472810000000  0.4361810000000  0.5403380000000 1.0
C      1  0.5576800000000  0.5060580000000  0.4102450000000 1.0
C      1  0.5098040000000  0.5295420000000  0.5730370000000 1.0
C      1  0.4869580000000  0.4117450000000  0.5219170000000 1.0
C      1  0.5469000000000  0.5073130000000  0.4711280000000 1.0
C      1  0.5695680000000  0.5050770000000  0.4552680000000 1.0
C      1  0.4852460000000  0.4602140000000  0.5166070000000 1.0
C      1  0.5018610000000  0.5926480000000  0.4513510000000 1.0
C      1  0.5068310000000  0.5005840000000  0.5306900000000 1.0
C      1  0.4651480000000  0.4677610000000  0.4501240000000 1.0
C      1  0.5424240000000  0.4949200000000  0.4961880000000 1.0
C      1  0.5683120000000  0.4509000000000  0.5002240000000 1.0
C      1  0.4968560000000  0.4351030000000  0.5096710000000 1.0
C      1  0.5178390000000  0.5754420000000  0.5246410000000 1.0
C      1  0.4286090000000  0.4770540000000  0.5325230000000 1.0
C      1  0.3954980000000  0.4433080000000  0.5432210000000 1.0
C      1  0.4211370000000  0.5190290000000  0.4574780000000 1.0
C      1  0.4750730000000  0.5489950000000  0.4388180000000 1.0
C      1  0.4449640000000  0.4879230000000  0.5107160000000 1.0
C      1  0.5232540000000  0.5823340000000  0.4674640000000 1.0
C      1  0.4584560000000  0.5615730000000  0.5091420000000 1.0
C      1  0.5201000000000  0.5172660000000  0.5493260000000 1.0
C      1  0.4962330000000  0.6456480000000  0.4433950000000 1.0
C      1  0.4431870000000  0.5396850000000  0.4994310000000 1.0
C      1  0.5165090000000  0.3996090000000  0.5586600000000 1.0
C      1  0.4362040000000  0.4936960000000  0.5556180000000 1.0
C      1  0.5586960000000  0.4619540000000  0.5474880000000 1.0
C      1  0.5308010000000  0.5313650000000  0.4746620000000 1.0
C      1  0.4959840000000  0.5683830000000  0.5427680000000 1.0
C      1  0.5444400000000  0.5693060000000  0.4516900000000 1.0
C      1  0.5577330000000  0.5496250000000  0.4376710000000 1.0
C      1  0.5636030000000  0.5193530000000  0.5308900000000 1.0
C      1  0.5237550000000  0.4377800000000  0.4675650000000 1.0
C      1  0.5030960000000  0.5565000000000  0.5683590000000 1.0
C      1  0.4748680000000  0.4421260000000  0.4433160000000 1.0
END
