TITL C-612600-6631-1430 200.300137286259 125000 -1072.79580096397 0 0 176 (C1) n - 1
REM
REM in /home/nfs/bkarasulu/CARBON/AIRSS/Generating-Clusters/TERSOFF/Only-C1/FIRE-HFTN
REM
REM
REM
REM
REM
REM ./C.cell (11c1c37f851c82e70ff6c80c92926a4b)
REM AIRSS Version 0.9.1 bugfix July 2018 build 013d7b7c2542+ Fri, 06 Jul 2018 19:26:36 +0100
REM compiler GCC version 9.2.1 20190827 (Red Hat 9.2.1-1)
REM options -cpp -mtune=generic -march=x86-64 -g -O0 -fpre-include=/usr/include/finclude/math-vector-fortran.h
REM seed 452629958 -443065159 38021694 -1228985135 1438230889 1695996818 1346753941 351374370 -1784402887 -2093616070 -183404177 2019641337 780024469 -1599129528 -20881994 1132950469 2013107178 -1191312515 2133456250 -568943675 501901340 1687177997 1836585489 -1135436741 1949269453 1287566331 695163536 -568898539 -1298106535 -208451636 1317674021 385551702 1210300307
REM
CELL 1.54180   50.00000   50.00000   50.00000   90.00000   90.00000   90.00000
LATT -1
SFAC C  
C      1  0.5153040000000  0.4271120000000  0.5327610000000 1.0
C      1  0.4322240000000  0.5359480000000  0.4241090000000 1.0
C      1  0.4024550000000  0.4323240000000  0.5037290000000 1.0
C      1  0.4753930000000  0.5967600000000  0.4238790000000 1.0
C      1  0.5346690000000  0.6013680000000  0.5698670000000 1.0
C      1  0.5564300000000  0.4791050000000  0.5512040000000 1.0
C      1  0.5657110000000  0.4558040000000  0.5101900000000 1.0
C      1  0.4807650000000  0.4661710000000  0.5105300000000 1.0
C      1  0.6012120000000  0.5277210000000  0.4583140000000 1.0
C      1  0.4208580000000  0.5683190000000  0.5481930000000 1.0
C      1  0.5101430000000  0.5292640000000  0.4058510000000 1.0
C      1  0.4459760000000  0.5337070000000  0.3656050000000 1.0
C      1  0.3890790000000  0.4573810000000  0.5094620000000 1.0
C      1  0.4482670000000  0.5070120000000  0.3649790000000 1.0
C      1  0.5682700000000  0.5263080000000  0.5756450000000 1.0
C      1  0.6005870000000  0.4882320000000  0.5150520000000 1.0
C      1  0.5222730000000  0.3716590000000  0.5115480000000 1.0
C      1  0.5220200000000  0.4626530000000  0.4840440000000 1.0
C      1  0.5071990000000  0.6000150000000  0.5607150000000 1.0
C      1  0.4782410000000  0.5662360000000  0.5913270000000 1.0
C      1  0.5938000000000  0.4553470000000  0.5741130000000 1.0
C      1  0.5212240000000  0.4331760000000  0.5832400000000 1.0
C      1  0.4618280000000  0.3840690000000  0.4679310000000 1.0
C      1  0.4785780000000  0.6198620000000  0.4979030000000 1.0
C      1  0.4608050000000  0.5247980000000  0.5023980000000 1.0
C      1  0.4222280000000  0.4820730000000  0.4216870000000 1.0
C      1  0.5345330000000  0.3744350000000  0.4433690000000 1.0
C      1  0.4352380000000  0.4848890000000  0.5169740000000 1.0
C      1  0.4383250000000  0.4233350000000  0.4494170000000 1.0
C      1  0.5636000000000  0.4829410000000  0.5952680000000 1.0
C      1  0.5194620000000  0.5014290000000  0.5762730000000 1.0
C      1  0.5897990000000  0.5694580000000  0.4927560000000 1.0
C      1  0.5365140000000  0.4397580000000  0.4242070000000 1.0
C      1  0.4437420000000  0.3828260000000  0.4220450000000 1.0
C      1  0.5881460000000  0.6176010000000  0.4877930000000 1.0
C      1  0.5587060000000  0.5952790000000  0.5580550000000 1.0
C      1  0.4619770000000  0.4613140000000  0.6074560000000 1.0
C      1  0.4080470000000  0.4635740000000  0.4414700000000 1.0
C      1  0.3473570000000  0.5452000000000  0.4696610000000 1.0
C      1  0.4386990000000  0.5600610000000  0.4089190000000 1.0
C      1  0.5109490000000  0.5949110000000  0.5315020000000 1.0
C      1  0.3941550000000  0.4699660000000  0.5342580000000 1.0
C      1  0.4530300000000  0.5299290000000  0.4422320000000 1.0
C      1  0.4492360000000  0.4642180000000  0.4763510000000 1.0
C      1  0.3903540000000  0.4763810000000  0.4605420000000 1.0
C      1  0.4766960000000  0.4875390000000  0.6140140000000 1.0
C      1  0.3713550000000  0.5461890000000  0.4797730000000 1.0
C      1  0.5211620000000  0.5520220000000  0.3894520000000 1.0
C      1  0.5434410000000  0.4700050000000  0.4999020000000 1.0
C      1  0.4558320000000  0.4395530000000  0.4643220000000 1.0
C      1  0.5353370000000  0.4563880000000  0.4032650000000 1.0
C      1  0.5367050000000  0.4924390000000  0.5148400000000 1.0
C      1  0.5770370000000  0.4025630000000  0.4530410000000 1.0
C      1  0.5713930000000  0.4302500000000  0.4544900000000 1.0
C      1  0.5481020000000  0.5519430000000  0.4031780000000 1.0
C      1  0.5953360000000  0.4606910000000  0.5087060000000 1.0
C      1  0.6174130000000  0.5246640000000  0.5415010000000 1.0
C      1  0.5015390000000  0.3690500000000  0.4946170000000 1.0
C      1  0.5118400000000  0.5429370000000  0.4333210000000 1.0
C      1  0.5086850000000  0.4655760000000  0.6440370000000 1.0
C      1  0.5019390000000  0.4870160000000  0.6283940000000 1.0
C      1  0.5949470000000  0.4788790000000  0.4466890000000 1.0
C      1  0.4945560000000  0.4638420000000  0.5555080000000 1.0
C      1  0.5361270000000  0.5280700000000  0.6168340000000 1.0
C      1  0.4997720000000  0.5172630000000  0.5676030000000 1.0
C      1  0.4754480000000  0.5177830000000  0.5524090000000 1.0
C      1  0.5798630000000  0.5144740000000  0.4165860000000 1.0
C      1  0.4158410000000  0.5117290000000  0.4201150000000 1.0
C      1  0.4682220000000  0.5153120000000  0.6086000000000 1.0
C      1  0.5560130000000  0.5283260000000  0.5484410000000 1.0
C      1  0.4974230000000  0.4751570000000  0.4329270000000 1.0
C      1  0.5385310000000  0.5584440000000  0.4307330000000 1.0
C      1  0.4422360000000  0.5551560000000  0.3813440000000 1.0
C      1  0.5318930000000  0.4814880000000  0.3946670000000 1.0
C      1  0.4944200000000  0.4475520000000  0.4402610000000 1.0
C      1  0.4945200000000  0.5507230000000  0.4549180000000 1.0
C      1  0.5790290000000  0.5929090000000  0.4799540000000 1.0
C      1  0.5600590000000  0.5915750000000  0.4590630000000 1.0
C      1  0.4123520000000  0.4350370000000  0.4504840000000 1.0
C      1  0.4569560000000  0.4982920000000  0.5616030000000 1.0
C      1  0.5079600000000  0.5595500000000  0.4781180000000 1.0
C      1  0.4349030000000  0.5108430000000  0.5055800000000 1.0
C      1  0.5782680000000  0.5049810000000  0.5069120000000 1.0
C      1  0.4716120000000  0.5420230000000  0.6026170000000 1.0
C      1  0.5080480000000  0.3734920000000  0.4480850000000 1.0
C      1  0.5215030000000  0.4894790000000  0.4451300000000 1.0
C      1  0.5810250000000  0.4083410000000  0.5547930000000 1.0
C      1  0.4664520000000  0.5475110000000  0.4596720000000 1.0
C      1  0.4115150000000  0.5480180000000  0.5629030000000 1.0
C      1  0.4477930000000  0.3962590000000  0.4455040000000 1.0
C      1  0.5000470000000  0.5937570000000  0.4096690000000 1.0
C      1  0.5622980000000  0.3949360000000  0.5382070000000 1.0
C      1  0.4583510000000  0.4896400000000  0.4663600000000 1.0
C      1  0.4462620000000  0.4074750000000  0.5132340000000 1.0
C      1  0.5099310000000  0.5863360000000  0.4851740000000 1.0
C      1  0.4950480000000  0.4203890000000  0.5134230000000 1.0
C      1  0.4382770000000  0.6083900000000  0.4665010000000 1.0
C      1  0.4526840000000  0.4660920000000  0.5051720000000 1.0
C      1  0.5130270000000  0.4419040000000  0.5569950000000 1.0
C      1  0.4371560000000  0.4585890000000  0.6196300000000 1.0
C      1  0.5572490000000  0.5239860000000  0.4030180000000 1.0
C      1  0.5598990000000  0.3823460000000  0.4474510000000 1.0
C      1  0.4221870000000  0.4214160000000  0.5223730000000 1.0
C      1  0.5916450000000  0.5684050000000  0.5219840000000 1.0
C      1  0.4127720000000  0.5691670000000  0.4933360000000 1.0
C      1  0.4826480000000  0.4331370000000  0.4619340000000 1.0
C      1  0.4603130000000  0.6567570000000  0.5327330000000 1.0
C      1  0.5055920000000  0.5756520000000  0.3885390000000 1.0
C      1  0.6090260000000  0.5489980000000  0.5335530000000 1.0
C      1  0.4703270000000  0.4373800000000  0.5899280000000 1.0
C      1  0.5043120000000  0.5227530000000  0.5124820000000 1.0
C      1  0.5533310000000  0.5367710000000  0.5978380000000 1.0
C      1  0.3972700000000  0.5458710000000  0.4896670000000 1.0
C      1  0.5936160000000  0.5067910000000  0.4402510000000 1.0
C      1  0.5011830000000  0.6035690000000  0.5057320000000 1.0
C      1  0.5630580000000  0.4532770000000  0.5394220000000 1.0
C      1  0.5118750000000  0.4983220000000  0.5225840000000 1.0
C      1  0.5584370000000  0.5026360000000  0.5311940000000 1.0
C      1  0.5435310000000  0.3810730000000  0.5249720000000 1.0
C      1  0.4654230000000  0.6155700000000  0.4725030000000 1.0
C      1  0.5991100000000  0.5482410000000  0.4758260000000 1.0
C      1  0.6109550000000  0.4967530000000  0.5413550000000 1.0
C      1  0.4962040000000  0.4765040000000  0.4877230000000 1.0
C      1  0.4794470000000  0.4996870000000  0.4820750000000 1.0
C      1  0.6065240000000  0.4413990000000  0.5271680000000 1.0
C      1  0.5834850000000  0.5019990000000  0.5831450000000 1.0
C      1  0.4792690000000  0.6129600000000  0.4477170000000 1.0
C      1  0.4680030000000  0.5753200000000  0.5446250000000 1.0
C      1  0.4692860000000  0.6398140000000  0.5150850000000 1.0
C      1  0.4183910000000  0.4828910000000  0.5397680000000 1.0
C      1  0.4892140000000  0.3741120000000  0.4692510000000 1.0
C      1  0.4484110000000  0.5841320000000  0.4227330000000 1.0
C      1  0.4569040000000  0.4273040000000  0.5587460000000 1.0
C      1  0.4108510000000  0.5222750000000  0.4966310000000 1.0
C      1  0.4427590000000  0.5747790000000  0.5314540000000 1.0
C      1  0.4288710000000  0.4286850000000  0.5506270000000 1.0
C      1  0.4601320000000  0.5029480000000  0.4424070000000 1.0
C      1  0.4397820000000  0.5689130000000  0.5025740000000 1.0
C      1  0.4698260000000  0.4160860000000  0.5276670000000 1.0
C      1  0.5881140000000  0.4531390000000  0.4515850000000 1.0
C      1  0.4489070000000  0.4845140000000  0.3796500000000 1.0
C      1  0.4314470000000  0.5949930000000  0.4435550000000 1.0
C      1  0.4965130000000  0.4269130000000  0.5965250000000 1.0
C      1  0.5606230000000  0.5107290000000  0.4821910000000 1.0
C      1  0.4147290000000  0.5221420000000  0.5688200000000 1.0
C      1  0.5760070000000  0.5849460000000  0.5397410000000 1.0
C      1  0.5192680000000  0.5096540000000  0.6269840000000 1.0
C      1  0.5431350000000  0.4346100000000  0.4512950000000 1.0
C      1  0.4485010000000  0.4777660000000  0.4071870000000 1.0
C      1  0.5190040000000  0.5391190000000  0.4939750000000 1.0
C      1  0.4705290000000  0.4740630000000  0.5668350000000 1.0
C      1  0.6016450000000  0.4846340000000  0.5667480000000 1.0
C      1  0.4958560000000  0.4771630000000  0.5312530000000 1.0
C      1  0.5421520000000  0.4854730000000  0.5756170000000 1.0
C      1  0.5414950000000  0.5853900000000  0.4390430000000 1.0
C      1  0.5711810000000  0.4548130000000  0.5940950000000 1.0
C      1  0.5002560000000  0.4238890000000  0.4832580000000 1.0
C      1  0.5442070000000  0.4974220000000  0.4600120000000 1.0
C      1  0.4787690000000  0.5304930000000  0.5250110000000 1.0
C      1  0.5941250000000  0.3945810000000  0.5746360000000 1.0
C      1  0.4285420000000  0.4992400000000  0.5605310000000 1.0
C      1  0.4865190000000  0.5575470000000  0.5326210000000 1.0
C      1  0.4003430000000  0.4260150000000  0.4756100000000 1.0
C      1  0.4720810000000  0.4862710000000  0.4228150000000 1.0
C      1  0.4489630000000  0.3886490000000  0.4928300000000 1.0
C      1  0.3823860000000  0.4726050000000  0.4861970000000 1.0
C      1  0.5252520000000  0.4362750000000  0.4737970000000 1.0
C      1  0.5480180000000  0.4371210000000  0.5931400000000 1.0
C      1  0.4821890000000  0.5846820000000  0.5690690000000 1.0
C      1  0.5144190000000  0.5653570000000  0.5327920000000 1.0
C      1  0.5368670000000  0.5491580000000  0.5410950000000 1.0
C      1  0.5459570000000  0.5346330000000  0.4885010000000 1.0
C      1  0.5316990000000  0.5087670000000  0.4006250000000 1.0
C      1  0.5234840000000  0.6021780000000  0.4247120000000 1.0
C      1  0.4566450000000  0.5504230000000  0.4869650000000 1.0
C      1  0.5874650000000  0.4371860000000  0.5505250000000 1.0
END
