TITL C-612607-4507-635 -0.00434935500267021 125000 -545.003278579693 0 0 89 (C1) n - 1
REM
REM in /home/nfs/bkarasulu/CARBON/AIRSS/Generating-Clusters/TERSOFF/Only-C1/FIRE-HFTN
REM
REM
REM
REM
REM
REM ./C.cell (11c1c37f851c82e70ff6c80c92926a4b)
REM AIRSS Version 0.9.1 bugfix July 2018 build 013d7b7c2542+ Fri, 06 Jul 2018 19:26:36 +0100
REM compiler GCC version 9.2.1 20190827 (Red Hat 9.2.1-1)
REM options -cpp -mtune=generic -march=x86-64 -g -O0 -fpre-include=/usr/include/finclude/math-vector-fortran.h
REM seed 13160834 -280874293 -232728864 -448938188 -1976247959 -1317370952 -920337041 1645654618 1648547310 -216321330 -1757144853 366212752 1683642659 -758101065 730353202 2124952462 -389669541 1885402733 1699946021 -466077943 -1445249343 -483440067 10442393 -238891079 2126758786 1068119527 1190518394 255609076 -420290737 -417560201 218077559 -1689687456 -1488885086
REM
CELL 1.54180   50.00000   50.00000   50.00000   90.00000   90.00000   90.00000
LATT -1
SFAC C  
C      1  0.4407980000000  0.4737180000000  0.4826420000000 1.0
C      1  0.3990920000000  0.5033380000000  0.4759910000000 1.0
C      1  0.3998500000000  0.5276140000000  0.4292860000000 1.0
C      1  0.5771390000000  0.4944370000000  0.4906160000000 1.0
C      1  0.5087350000000  0.4776370000000  0.5055090000000 1.0
C      1  0.4665840000000  0.6424590000000  0.5289370000000 1.0
C      1  0.4402160000000  0.5564290000000  0.4152520000000 1.0
C      1  0.3930220000000  0.5124740000000  0.4501500000000 1.0
C      1  0.5909650000000  0.4964090000000  0.5157760000000 1.0
C      1  0.5151820000000  0.5155730000000  0.4401290000000 1.0
C      1  0.4760980000000  0.5628880000000  0.5762320000000 1.0
C      1  0.5329760000000  0.5178280000000  0.4846430000000 1.0
C      1  0.5177530000000  0.4598180000000  0.5255950000000 1.0
C      1  0.5895850000000  0.5051920000000  0.5797730000000 1.0
C      1  0.4220280000000  0.5231070000000  0.5143170000000 1.0
C      1  0.5567080000000  0.5335080000000  0.4221850000000 1.0
C      1  0.4386500000000  0.5947640000000  0.5157420000000 1.0
C      1  0.4614220000000  0.4075910000000  0.5310100000000 1.0
C      1  0.5418700000000  0.4346470000000  0.4734730000000 1.0
C      1  0.5006000000000  0.5528010000000  0.4670750000000 1.0
C      1  0.4932240000000  0.3861440000000  0.4997320000000 1.0
C      1  0.5659360000000  0.4741310000000  0.4240830000000 1.0
C      1  0.5897490000000  0.4499390000000  0.5269390000000 1.0
C      1  0.4895030000000  0.5488540000000  0.5588350000000 1.0
C      1  0.3982130000000  0.5698690000000  0.5014070000000 1.0
C      1  0.4258300000000  0.5709760000000  0.5082700000000 1.0
C      1  0.5188000000000  0.5044190000000  0.5056200000000 1.0
C      1  0.4151780000000  0.4805270000000  0.4793870000000 1.0
C      1  0.4688390000000  0.4227400000000  0.4834040000000 1.0
C      1  0.5443400000000  0.5054770000000  0.5451030000000 1.0
C      1  0.5162500000000  0.4374400000000  0.5853920000000 1.0
C      1  0.5963320000000  0.5217640000000  0.5288630000000 1.0
C      1  0.4639810000000  0.5595940000000  0.4271660000000 1.0
C      1  0.5752180000000  0.4702290000000  0.4754040000000 1.0
C      1  0.5168630000000  0.4234210000000  0.4780180000000 1.0
C      1  0.4548400000000  0.6095780000000  0.4975560000000 1.0
C      1  0.5375890000000  0.5128790000000  0.4227260000000 1.0
C      1  0.4874670000000  0.5550660000000  0.4931000000000 1.0
C      1  0.5491060000000  0.3967070000000  0.5327850000000 1.0
C      1  0.4901070000000  0.4665490000000  0.4872820000000 1.0
C      1  0.5913930000000  0.5439110000000  0.5114770000000 1.0
C      1  0.5423170000000  0.4858590000000  0.4145580000000 1.0
C      1  0.5169740000000  0.4381610000000  0.6126630000000 1.0
C      1  0.5046390000000  0.5336010000000  0.5433370000000 1.0
C      1  0.5969440000000  0.5198350000000  0.5577310000000 1.0
C      1  0.4946600000000  0.4252250000000  0.5713670000000 1.0
C      1  0.4048890000000  0.5818100000000  0.5789650000000 1.0
C      1  0.4537540000000  0.4235580000000  0.4596200000000 1.0
C      1  0.4919940000000  0.4982680000000  0.4391900000000 1.0
C      1  0.4349280000000  0.4034790000000  0.5366640000000 1.0
C      1  0.4928550000000  0.4388570000000  0.4815720000000 1.0
C      1  0.4734790000000  0.4547790000000  0.4237830000000 1.0
C      1  0.4674380000000  0.4806770000000  0.4774350000000 1.0
C      1  0.5143470000000  0.3960160000000  0.4856280000000 1.0
C      1  0.4789520000000  0.4160730000000  0.5516450000000 1.0
C      1  0.5708230000000  0.4354710000000  0.5119960000000 1.0
C      1  0.5610400000000  0.4835220000000  0.5494620000000 1.0
C      1  0.5185210000000  0.4710530000000  0.4099800000000 1.0
C      1  0.4582540000000  0.4366780000000  0.4364490000000 1.0
C      1  0.4625970000000  0.5284790000000  0.4653160000000 1.0
C      1  0.5792380000000  0.5555970000000  0.4624660000000 1.0
C      1  0.4389530000000  0.5452810000000  0.5076310000000 1.0
C      1  0.5767310000000  0.5420920000000  0.4869680000000 1.0
C      1  0.5642350000000  0.4458960000000  0.4861500000000 1.0
C      1  0.5566060000000  0.4693680000000  0.5740110000000 1.0
C      1  0.5770740000000  0.4768980000000  0.6185640000000 1.0
C      1  0.4934370000000  0.4745680000000  0.4229090000000 1.0
C      1  0.4201400000000  0.5942440000000  0.5618780000000 1.0
C      1  0.5369620000000  0.4486960000000  0.5694090000000 1.0
C      1  0.4683980000000  0.6323500000000  0.5037170000000 1.0
C      1  0.5189480000000  0.5311500000000  0.4638400000000 1.0
C      1  0.5745140000000  0.4834380000000  0.5921910000000 1.0
C      1  0.5222780000000  0.5156940000000  0.5315740000000 1.0
C      1  0.4708980000000  0.4032590000000  0.5044660000000 1.0
C      1  0.4166460000000  0.5439580000000  0.4165680000000 1.0
C      1  0.5714170000000  0.5501230000000  0.4372860000000 1.0
C      1  0.5785920000000  0.4710260000000  0.4474480000000 1.0
C      1  0.4267870000000  0.5063510000000  0.5352630000000 1.0
C      1  0.3985780000000  0.5218210000000  0.4975580000000 1.0
C      1  0.4620770000000  0.5408270000000  0.4925250000000 1.0
C      1  0.3848610000000  0.5466610000000  0.4965640000000 1.0
C      1  0.4768920000000  0.5493570000000  0.4495170000000 1.0
C      1  0.5336550000000  0.4425180000000  0.5411150000000 1.0
C      1  0.4717540000000  0.5020900000000  0.4593630000000 1.0
C      1  0.4511840000000  0.6295880000000  0.5473130000000 1.0
C      1  0.5614180000000  0.5176590000000  0.4851230000000 1.0
C      1  0.4362460000000  0.6058280000000  0.5423780000000 1.0
C      1  0.5835190000000  0.4762870000000  0.5337850000000 1.0
C      1  0.5505240000000  0.4235250000000  0.5281710000000 1.0
END
