TITL C-612605-9286-1444 17513.5300080748 125000 -1243.84491732784 0 0 200 (C1) n - 1
REM
REM in /home/nfs/bkarasulu/CARBON/AIRSS/Generating-Clusters/TERSOFF/Only-C1/FIRE-HFTN
REM
REM
REM
REM
REM
REM ./C.cell (11c1c37f851c82e70ff6c80c92926a4b)
REM AIRSS Version 0.9.1 bugfix July 2018 build 013d7b7c2542+ Fri, 06 Jul 2018 19:26:36 +0100
REM compiler GCC version 9.2.1 20190827 (Red Hat 9.2.1-1)
REM options -cpp -mtune=generic -march=x86-64 -g -O0 -fpre-include=/usr/include/finclude/math-vector-fortran.h
REM seed -991598661 2085398287 -212200405 678326924 -491565554 1878319997 -567383850 472489070 -786581875 111056931 -1117815891 1711433474 1453670398 658520489 615168970 -58591373 2042018989 -1990456244 1668959771 -137635140 -96991984 -1922701983 2072386007 1990892986 -357167109 -93180129 54476482 -321141679 1028914461 1297237800 464742874 -1072878683 -1448880076
REM
CELL 1.54180   50.00000   50.00000   50.00000   90.00000   90.00000   90.00000
LATT -1
SFAC C  
C      1  0.5422140000000  0.5561750000000  0.4662120000000 1.0
C      1  0.5051390000000  0.4383590000000  0.4428240000000 1.0
C      1  0.4778510000000  0.4758180000000  0.6268030000000 1.0
C      1  0.4550160000000  0.5292160000000  0.5551820000000 1.0
C      1  0.5945970000000  0.5569970000000  0.4656470000000 1.0
C      1  0.4502960000000  0.4846030000000  0.6270380000000 1.0
C      1  0.5008870000000  0.5726340000000  0.4551110000000 1.0
C      1  0.5830930000000  0.5455530000000  0.5708520000000 1.0
C      1  0.4080650000000  0.5211720000000  0.4702780000000 1.0
C      1  0.5333210000000  0.6125880000000  0.5498180000000 1.0
C      1  0.5449690000000  0.6223220000000  0.4640480000000 1.0
C      1  0.6085700000000  0.5449300000000  0.5135650000000 1.0
C      1  0.5022350000000  0.3788560000000  0.4680710000000 1.0
C      1  0.4301220000000  0.5545300000000  0.5850180000000 1.0
C      1  0.4348760000000  0.4260300000000  0.5089420000000 1.0
C      1  0.5504450000000  0.4251800000000  0.4327900000000 1.0
C      1  0.4899600000000  0.4607370000000  0.5572170000000 1.0
C      1  0.3949000000000  0.5408310000000  0.5249650000000 1.0
C      1  0.4379810000000  0.5899500000000  0.5436920000000 1.0
C      1  0.3603770000000  0.5009130000000  0.4767370000000 1.0
C      1  0.5393560000000  0.4779560000000  0.5588290000000 1.0
C      1  0.5995140000000  0.4756750000000  0.5708870000000 1.0
C      1  0.5182750000000  0.6357060000000  0.5520080000000 1.0
C      1  0.4165850000000  0.4292190000000  0.3412520000000 1.0
C      1  0.4693780000000  0.3787490000000  0.4301810000000 1.0
C      1  0.5009040000000  0.6059100000000  0.5054460000000 1.0
C      1  0.4518580000000  0.5377750000000  0.3799300000000 1.0
C      1  0.4475960000000  0.5187160000000  0.4395620000000 1.0
C      1  0.5332980000000  0.4529200000000  0.5089610000000 1.0
C      1  0.4054200000000  0.5690720000000  0.4656630000000 1.0
C      1  0.5422830000000  0.5511650000000  0.3946520000000 1.0
C      1  0.4852060000000  0.5156270000000  0.6059920000000 1.0
C      1  0.5813220000000  0.5446000000000  0.4422850000000 1.0
C      1  0.4275680000000  0.5685740000000  0.4446070000000 1.0
C      1  0.5771950000000  0.4942160000000  0.4195260000000 1.0
C      1  0.5469890000000  0.3614190000000  0.5046080000000 1.0
C      1  0.5061460000000  0.4880210000000  0.3968640000000 1.0
C      1  0.4687700000000  0.4594610000000  0.4964410000000 1.0
C      1  0.5232090000000  0.4528300000000  0.4616910000000 1.0
C      1  0.3830500000000  0.4926800000000  0.5173910000000 1.0
C      1  0.5182550000000  0.3799030000000  0.5393750000000 1.0
C      1  0.5379690000000  0.5303020000000  0.4789010000000 1.0
C      1  0.4945030000000  0.6191690000000  0.4383620000000 1.0
C      1  0.4131480000000  0.5783020000000  0.4941810000000 1.0
C      1  0.4911870000000  0.5208170000000  0.4668310000000 1.0
C      1  0.4812060000000  0.4880340000000  0.4982220000000 1.0
C      1  0.4658190000000  0.5350990000000  0.6125440000000 1.0
C      1  0.4776300000000  0.5683960000000  0.4706430000000 1.0
C      1  0.4133560000000  0.5521980000000  0.5068830000000 1.0
C      1  0.5421990000000  0.4369170000000  0.3709920000000 1.0
C      1  0.3927940000000  0.4766530000000  0.5407900000000 1.0
C      1  0.5078750000000  0.4956950000000  0.4247500000000 1.0
C      1  0.4312440000000  0.4423990000000  0.3583110000000 1.0
C      1  0.4087160000000  0.4284340000000  0.5219570000000 1.0
C      1  0.5568060000000  0.4608310000000  0.6026780000000 1.0
C      1  0.5334590000000  0.5056390000000  0.4316850000000 1.0
C      1  0.5374120000000  0.4141400000000  0.5693060000000 1.0
C      1  0.4351250000000  0.5427810000000  0.4282670000000 1.0
C      1  0.6001740000000  0.5002300000000  0.5817610000000 1.0
C      1  0.5781370000000  0.4656180000000  0.4267550000000 1.0
C      1  0.4710290000000  0.5620400000000  0.4961200000000 1.0
C      1  0.5354410000000  0.5700780000000  0.5174560000000 1.0
C      1  0.5247870000000  0.5643560000000  0.5422830000000 1.0
C      1  0.5505650000000  0.5775290000000  0.5760920000000 1.0
C      1  0.4299260000000  0.4778510000000  0.4617530000000 1.0
C      1  0.4962550000000  0.6233530000000  0.4829840000000 1.0
C      1  0.4306150000000  0.5815000000000  0.5714920000000 1.0
C      1  0.4432730000000  0.4886120000000  0.4379100000000 1.0
C      1  0.4450890000000  0.4857230000000  0.5469100000000 1.0
C      1  0.5440410000000  0.4803570000000  0.6184450000000 1.0
C      1  0.4907740000000  0.4738550000000  0.5815330000000 1.0
C      1  0.4094420000000  0.4533470000000  0.5356130000000 1.0
C      1  0.5212630000000  0.3664840000000  0.5146200000000 1.0
C      1  0.5357200000000  0.5618790000000  0.4197760000000 1.0
C      1  0.4956990000000  0.3968740000000  0.5407330000000 1.0
C      1  0.5236170000000  0.3936790000000  0.4565940000000 1.0
C      1  0.4569700000000  0.3675090000000  0.4771320000000 1.0
C      1  0.5089260000000  0.5704750000000  0.4271970000000 1.0
C      1  0.5732830000000  0.5916460000000  0.5607270000000 1.0
C      1  0.3761970000000  0.5225060000000  0.5140450000000 1.0
C      1  0.5350050000000  0.4722250000000  0.5303440000000 1.0
C      1  0.5894780000000  0.4440480000000  0.4994180000000 1.0
C      1  0.4756190000000  0.3753730000000  0.4564440000000 1.0
C      1  0.4641720000000  0.5264250000000  0.4619930000000 1.0
C      1  0.5047470000000  0.6578640000000  0.5542880000000 1.0
C      1  0.5272220000000  0.5860130000000  0.5608170000000 1.0
C      1  0.5238940000000  0.4941790000000  0.6292550000000 1.0
C      1  0.4655280000000  0.5866190000000  0.5371120000000 1.0
C      1  0.4584660000000  0.4673560000000  0.4222990000000 1.0
C      1  0.5999910000000  0.4621350000000  0.5462250000000 1.0
C      1  0.5095460000000  0.5265260000000  0.4878690000000 1.0
C      1  0.6247270000000  0.5276460000000  0.5310520000000 1.0
C      1  0.4383930000000  0.5337250000000  0.6053030000000 1.0
C      1  0.4324380000000  0.4972920000000  0.6078790000000 1.0
C      1  0.4598940000000  0.3703670000000  0.5276970000000 1.0
C      1  0.3661540000000  0.5287000000000  0.4857200000000 1.0
C      1  0.6162940000000  0.4745300000000  0.5262800000000 1.0
C      1  0.4751170000000  0.6067930000000  0.5193180000000 1.0
C      1  0.5613650000000  0.6109420000000  0.5400220000000 1.0
C      1  0.4696760000000  0.5158800000000  0.3788750000000 1.0
C      1  0.4068990000000  0.4920700000000  0.4719590000000 1.0
C      1  0.4509960000000  0.5257570000000  0.4867180000000 1.0
C      1  0.5330110000000  0.5047030000000  0.5677960000000 1.0
C      1  0.4608260000000  0.4706990000000  0.3939060000000 1.0
C      1  0.4479840000000  0.5524020000000  0.4038470000000 1.0
C      1  0.3899150000000  0.3861170000000  0.5016540000000 1.0
C      1  0.4829490000000  0.4564270000000  0.4354300000000 1.0
C      1  0.5219780000000  0.4157090000000  0.4367660000000 1.0
C      1  0.4892990000000  0.5773170000000  0.4082830000000 1.0
C      1  0.5830930000000  0.4369150000000  0.4697500000000 1.0
C      1  0.4595030000000  0.5029320000000  0.5636950000000 1.0
C      1  0.4276830000000  0.5982990000000  0.5093490000000 1.0
C      1  0.3997350000000  0.4824040000000  0.5694310000000 1.0
C      1  0.4050760000000  0.3709870000000  0.4856840000000 1.0
C      1  0.4045040000000  0.5359640000000  0.5502270000000 1.0
C      1  0.3869310000000  0.5421830000000  0.4681700000000 1.0
C      1  0.5551370000000  0.5486880000000  0.5748900000000 1.0
C      1  0.6164550000000  0.4714120000000  0.4549370000000 1.0
C      1  0.4803910000000  0.4414360000000  0.5398830000000 1.0
C      1  0.5579180000000  0.6407370000000  0.4474500000000 1.0
C      1  0.5398900000000  0.4631120000000  0.4821460000000 1.0
C      1  0.4446740000000  0.4578490000000  0.4758670000000 1.0
C      1  0.5586340000000  0.4469660000000  0.4160540000000 1.0
C      1  0.4559510000000  0.4449180000000  0.5227690000000 1.0
C      1  0.4211960000000  0.4763580000000  0.5891920000000 1.0
C      1  0.4666570000000  0.6199370000000  0.4756530000000 1.0
C      1  0.4998430000000  0.3687480000000  0.4958820000000 1.0
C      1  0.6284130000000  0.4999230000000  0.5267970000000 1.0
C      1  0.4992490000000  0.4227410000000  0.5309270000000 1.0
C      1  0.4691930000000  0.3885300000000  0.5473540000000 1.0
C      1  0.5581810000000  0.5247180000000  0.5011320000000 1.0
C      1  0.5340480000000  0.4805340000000  0.3913930000000 1.0
C      1  0.5734910000000  0.5028650000000  0.4899730000000 1.0
C      1  0.3832530000000  0.4844600000000  0.4876620000000 1.0
C      1  0.4294470000000  0.5382250000000  0.5614680000000 1.0
C      1  0.4570580000000  0.5045730000000  0.5032570000000 1.0
C      1  0.5519790000000  0.5265170000000  0.3897190000000 1.0
C      1  0.5123760000000  0.4203080000000  0.5857690000000 1.0
C      1  0.5328490000000  0.5311620000000  0.5524390000000 1.0
C      1  0.6038070000000  0.5272660000000  0.5750150000000 1.0
C      1  0.5807770000000  0.4421320000000  0.5351250000000 1.0
C      1  0.5543770000000  0.5555510000000  0.4406780000000 1.0
C      1  0.5122540000000  0.4333860000000  0.5082700000000 1.0
C      1  0.4910500000000  0.4397740000000  0.4897720000000 1.0
C      1  0.4368120000000  0.4486610000000  0.5888090000000 1.0
C      1  0.4712880000000  0.3653380000000  0.5022150000000 1.0
C      1  0.5293590000000  0.4975260000000  0.5201430000000 1.0
C      1  0.4659200000000  0.6113700000000  0.4473370000000 1.0
C      1  0.4372920000000  0.4595150000000  0.5412440000000 1.0
C      1  0.5031840000000  0.5080010000000  0.5123790000000 1.0
C      1  0.5570150000000  0.4343730000000  0.5597500000000 1.0
C      1  0.4389160000000  0.4990340000000  0.5229060000000 1.0
C      1  0.4869700000000  0.4582760000000  0.6055350000000 1.0
C      1  0.5658040000000  0.6035230000000  0.5114910000000 1.0
C      1  0.5882460000000  0.5187900000000  0.4309410000000 1.0
C      1  0.5510130000000  0.3943370000000  0.4675210000000 1.0
C      1  0.4714280000000  0.5619260000000  0.5244430000000 1.0
C      1  0.4558800000000  0.4032890000000  0.5679800000000 1.0
C      1  0.4379790000000  0.5448840000000  0.3574030000000 1.0
C      1  0.3902940000000  0.4082440000000  0.5167600000000 1.0
C      1  0.4858650000000  0.4309780000000  0.5961470000000 1.0
C      1  0.5848560000000  0.5852700000000  0.4704030000000 1.0
C      1  0.4253110000000  0.5336170000000  0.4891690000000 1.0
C      1  0.5468100000000  0.5204150000000  0.5265030000000 1.0
C      1  0.5417340000000  0.5067540000000  0.4585030000000 1.0
C      1  0.4343930000000  0.4315380000000  0.4810110000000 1.0
C      1  0.5510650000000  0.5018130000000  0.4060170000000 1.0
C      1  0.5938390000000  0.4556770000000  0.4486780000000 1.0
C      1  0.4800570000000  0.4906170000000  0.3859460000000 1.0
C      1  0.4613070000000  0.5769550000000  0.4109880000000 1.0
C      1  0.5517380000000  0.4585360000000  0.5746870000000 1.0
C      1  0.5643020000000  0.5735130000000  0.5142670000000 1.0
C      1  0.5885840000000  0.5622750000000  0.5253120000000 1.0
C      1  0.6055680000000  0.5376660000000  0.4855910000000 1.0
C      1  0.4986700000000  0.5257920000000  0.5368460000000 1.0
C      1  0.5897570000000  0.5684980000000  0.5532910000000 1.0
C      1  0.6003440000000  0.5087960000000  0.4827530000000 1.0
C      1  0.4904400000000  0.4918160000000  0.4688700000000 1.0
C      1  0.5740630000000  0.4433220000000  0.6148690000000 1.0
C      1  0.6150980000000  0.4843310000000  0.4796320000000 1.0
C      1  0.5382180000000  0.3881910000000  0.5573910000000 1.0
C      1  0.5654250000000  0.6062600000000  0.4816710000000 1.0
C      1  0.5146440000000  0.6229720000000  0.4605030000000 1.0
C      1  0.4964280000000  0.4988480000000  0.6268830000000 1.0
C      1  0.4761420000000  0.5399460000000  0.5404510000000 1.0
C      1  0.4459690000000  0.4559240000000  0.3756910000000 1.0
C      1  0.5447680000000  0.4541270000000  0.3920030000000 1.0
C      1  0.4492650000000  0.5897850000000  0.4353440000000 1.0
C      1  0.6100830000000  0.4651980000000  0.5006020000000 1.0
C      1  0.5550490000000  0.4862600000000  0.4751140000000 1.0
C      1  0.5599010000000  0.3748220000000  0.4852930000000 1.0
C      1  0.5191280000000  0.5842650000000  0.4992600000000 1.0
C      1  0.4292550000000  0.3654010000000  0.4759130000000 1.0
C      1  0.5653250000000  0.4173920000000  0.4577180000000 1.0
C      1  0.4942550000000  0.4812260000000  0.4440830000000 1.0
C      1  0.6263300000000  0.5336280000000  0.5587690000000 1.0
C      1  0.4521480000000  0.6123110000000  0.4999450000000 1.0
C      1  0.4579700000000  0.4260470000000  0.5857430000000 1.0
C      1  0.5228210000000  0.5750830000000  0.4725650000000 1.0
C      1  0.4802570000000  0.4998050000000  0.5821680000000 1.0
END
