TITL C-612605-9286-645 -520.958413089151 125000 -1191.79535750835 0 0 194 (C1) n - 1
REM
REM in /home/nfs/bkarasulu/CARBON/AIRSS/Generating-Clusters/TERSOFF/Only-C1/FIRE-HFTN
REM
REM
REM
REM
REM
REM ./C.cell (11c1c37f851c82e70ff6c80c92926a4b)
REM AIRSS Version 0.9.1 bugfix July 2018 build 013d7b7c2542+ Fri, 06 Jul 2018 19:26:36 +0100
REM compiler GCC version 9.2.1 20190827 (Red Hat 9.2.1-1)
REM options -cpp -mtune=generic -march=x86-64 -g -O0 -fpre-include=/usr/include/finclude/math-vector-fortran.h
REM seed -1811618201 629422057 -1921807003 -152686503 -402298274 -1049724881 -1387721386 1754107081 2010322817 -383680342 319273189 -1149697880 -2098959403 841711968 -265064920 1511156740 -1975092295 -34829678 685566000 -1412967482 -1950830923 -240381135 -922096548 931886535 710977607 -460443071 -1093417384 -285631502 -1396002860 -843104022 -1735813362 -1543151744 -841728597
REM
CELL 1.54180   50.00000   50.00000   50.00000   90.00000   90.00000   90.00000
LATT -1
SFAC C  
C      1  0.5221050000000  0.4595470000000  0.5029690000000 1.0
C      1  0.6611830000000  0.4815730000000  0.4871230000000 1.0
C      1  0.4754820000000  0.4472140000000  0.5129200000000 1.0
C      1  0.4297220000000  0.4844700000000  0.5250430000000 1.0
C      1  0.4254680000000  0.4181900000000  0.4776280000000 1.0
C      1  0.4121070000000  0.4444130000000  0.5454940000000 1.0
C      1  0.4870010000000  0.5645130000000  0.3964160000000 1.0
C      1  0.5301640000000  0.5545810000000  0.4911430000000 1.0
C      1  0.4807630000000  0.4938890000000  0.3760110000000 1.0
C      1  0.4334240000000  0.5434400000000  0.4497990000000 1.0
C      1  0.5286260000000  0.4929370000000  0.5395350000000 1.0
C      1  0.5043890000000  0.6266350000000  0.5658200000000 1.0
C      1  0.4703910000000  0.5034420000000  0.6304940000000 1.0
C      1  0.4443570000000  0.5690780000000  0.5916230000000 1.0
C      1  0.3778200000000  0.4564550000000  0.5147810000000 1.0
C      1  0.5036050000000  0.4722010000000  0.5791670000000 1.0
C      1  0.5143860000000  0.4351380000000  0.4918550000000 1.0
C      1  0.4443090000000  0.5923930000000  0.4510430000000 1.0
C      1  0.4005970000000  0.4365300000000  0.5202340000000 1.0
C      1  0.4148570000000  0.4957410000000  0.5036460000000 1.0
C      1  0.5407900000000  0.4558380000000  0.6425260000000 1.0
C      1  0.4794180000000  0.5339930000000  0.4708450000000 1.0
C      1  0.5818780000000  0.5170960000000  0.4061170000000 1.0
C      1  0.4012030000000  0.5287850000000  0.5487410000000 1.0
C      1  0.4796600000000  0.4184440000000  0.5870310000000 1.0
C      1  0.5023600000000  0.5608380000000  0.5313200000000 1.0
C      1  0.3850160000000  0.4419720000000  0.4521640000000 1.0
C      1  0.5362570000000  0.4647370000000  0.6169990000000 1.0
C      1  0.5047820000000  0.4797070000000  0.3793550000000 1.0
C      1  0.5409900000000  0.4272980000000  0.5506570000000 1.0
C      1  0.4730850000000  0.4088790000000  0.4834450000000 1.0
C      1  0.4950740000000  0.4984310000000  0.5922220000000 1.0
C      1  0.5367490000000  0.3770950000000  0.4679020000000 1.0
C      1  0.4535430000000  0.5053180000000  0.6077090000000 1.0
C      1  0.4703270000000  0.5592850000000  0.5853980000000 1.0
C      1  0.5164810000000  0.5504010000000  0.6103790000000 1.0
C      1  0.5036120000000  0.4266280000000  0.6013170000000 1.0
C      1  0.5350690000000  0.4242430000000  0.4763800000000 1.0
C      1  0.4461140000000  0.5674990000000  0.4329860000000 1.0
C      1  0.4983930000000  0.5901140000000  0.3939530000000 1.0
C      1  0.6395870000000  0.4926100000000  0.4745660000000 1.0
C      1  0.5454630000000  0.4828750000000  0.4030460000000 1.0
C      1  0.3825870000000  0.5226630000000  0.3646260000000 1.0
C      1  0.4764950000000  0.3699610000000  0.5260190000000 1.0
C      1  0.5833660000000  0.4090680000000  0.4494920000000 1.0
C      1  0.5536810000000  0.5619580000000  0.4068120000000 1.0
C      1  0.5705130000000  0.5121550000000  0.4920820000000 1.0
C      1  0.5188300000000  0.5694810000000  0.5102380000000 1.0
C      1  0.4408790000000  0.4043160000000  0.5247770000000 1.0
C      1  0.4208930000000  0.5623540000000  0.5766370000000 1.0
C      1  0.5001140000000  0.6451700000000  0.5464530000000 1.0
C      1  0.6185330000000  0.5048700000000  0.4895050000000 1.0
C      1  0.5713500000000  0.5817870000000  0.4865720000000 1.0
C      1  0.5769690000000  0.5320830000000  0.5410160000000 1.0
C      1  0.5731800000000  0.3976420000000  0.5242920000000 1.0
C      1  0.5394900000000  0.6060950000000  0.5390470000000 1.0
C      1  0.4587120000000  0.4173480000000  0.5442390000000 1.0
C      1  0.3908300000000  0.5252410000000  0.3892220000000 1.0
C      1  0.5413570000000  0.5470270000000  0.5945060000000 1.0
C      1  0.5527810000000  0.4848730000000  0.5273980000000 1.0
C      1  0.5146350000000  0.4532220000000  0.6013790000000 1.0
C      1  0.4881900000000  0.4279970000000  0.4968700000000 1.0
C      1  0.5706270000000  0.5326090000000  0.5119490000000 1.0
C      1  0.5153550000000  0.5791820000000  0.5744820000000 1.0
C      1  0.5110660000000  0.4520070000000  0.3891490000000 1.0
C      1  0.4516040000000  0.4119660000000  0.4654170000000 1.0
C      1  0.5391110000000  0.4549650000000  0.3967660000000 1.0
C      1  0.5206080000000  0.6036740000000  0.5616320000000 1.0
C      1  0.4738830000000  0.5608050000000  0.5258410000000 1.0
C      1  0.5299420000000  0.6116720000000  0.4877250000000 1.0
C      1  0.4111340000000  0.4384260000000  0.4634590000000 1.0
C      1  0.4861220000000  0.4156160000000  0.4242910000000 1.0
C      1  0.6201440000000  0.5336230000000  0.4947130000000 1.0
C      1  0.4976970000000  0.5055110000000  0.6213400000000 1.0
C      1  0.4666470000000  0.5352030000000  0.5687560000000 1.0
C      1  0.3747020000000  0.4821460000000  0.5296780000000 1.0
C      1  0.4567370000000  0.5375340000000  0.5380450000000 1.0
C      1  0.5284310000000  0.6203770000000  0.5152550000000 1.0
C      1  0.6370710000000  0.4922070000000  0.4464480000000 1.0
C      1  0.5870670000000  0.5789370000000  0.5457540000000 1.0
C      1  0.4127460000000  0.5014790000000  0.5871880000000 1.0
C      1  0.6150260000000  0.5478090000000  0.4703470000000 1.0
C      1  0.5974580000000  0.4047290000000  0.4754040000000 1.0
C      1  0.5173640000000  0.5415710000000  0.5468270000000 1.0
C      1  0.5827320000000  0.5269270000000  0.4335570000000 1.0
C      1  0.5143360000000  0.4324150000000  0.5468630000000 1.0
C      1  0.5479580000000  0.4022640000000  0.5375480000000 1.0
C      1  0.5134310000000  0.3773640000000  0.4501490000000 1.0
C      1  0.3745720000000  0.4269280000000  0.4320460000000 1.0
C      1  0.5073780000000  0.6051810000000  0.4705970000000 1.0
C      1  0.5482550000000  0.4664920000000  0.5084060000000 1.0
C      1  0.4094880000000  0.4828110000000  0.4798410000000 1.0
C      1  0.5225820000000  0.4685220000000  0.4556630000000 1.0
C      1  0.5535360000000  0.4494670000000  0.5625440000000 1.0
C      1  0.3854280000000  0.4900780000000  0.4651290000000 1.0
C      1  0.5317960000000  0.5547390000000  0.5679120000000 1.0
C      1  0.4543410000000  0.5330800000000  0.3965490000000 1.0
C      1  0.4999160000000  0.4739330000000  0.4428120000000 1.0
C      1  0.5740530000000  0.4584170000000  0.4545880000000 1.0
C      1  0.4328280000000  0.4878180000000  0.6015890000000 1.0
C      1  0.5816510000000  0.4894830000000  0.6077000000000 1.0
C      1  0.5301360000000  0.3773660000000  0.4974510000000 1.0
C      1  0.5921310000000  0.4706950000000  0.5880540000000 1.0
C      1  0.5491350000000  0.4697000000000  0.4476930000000 1.0
C      1  0.4197260000000  0.4711260000000  0.5484120000000 1.0
C      1  0.5277270000000  0.5259210000000  0.3869100000000 1.0
C      1  0.4769560000000  0.5205600000000  0.3841000000000 1.0
C      1  0.5270270000000  0.4974150000000  0.3864940000000 1.0
C      1  0.5660020000000  0.5957930000000  0.5423570000000 1.0
C      1  0.6238710000000  0.4914870000000  0.4231980000000 1.0
C      1  0.5001170000000  0.5196120000000  0.4856760000000 1.0
C      1  0.4071390000000  0.5293260000000  0.4408710000000 1.0
C      1  0.5472490000000  0.4983410000000  0.5801170000000 1.0
C      1  0.4562190000000  0.5245030000000  0.4568450000000 1.0
C      1  0.4688000000000  0.4716820000000  0.5026480000000 1.0
C      1  0.5994920000000  0.4851850000000  0.4100320000000 1.0
C      1  0.5554460000000  0.6022480000000  0.4799270000000 1.0
C      1  0.5842960000000  0.5181280000000  0.6103870000000 1.0
C      1  0.4783820000000  0.4585640000000  0.5645990000000 1.0
C      1  0.5214420000000  0.5977060000000  0.4058960000000 1.0
C      1  0.4623280000000  0.6142490000000  0.4511630000000 1.0
C      1  0.4606190000000  0.4223380000000  0.4398690000000 1.0
C      1  0.5929550000000  0.4559150000000  0.4134280000000 1.0
C      1  0.4189690000000  0.5914030000000  0.5290900000000 1.0
C      1  0.3865200000000  0.5025740000000  0.5470050000000 1.0
C      1  0.4108940000000  0.5239480000000  0.5047460000000 1.0
C      1  0.4699160000000  0.4437690000000  0.5401210000000 1.0
C      1  0.5850550000000  0.4380210000000  0.4368270000000 1.0
C      1  0.4293400000000  0.5869120000000  0.4763800000000 1.0
C      1  0.4510930000000  0.3779640000000  0.5194960000000 1.0
C      1  0.4970030000000  0.3854720000000  0.5405060000000 1.0
C      1  0.5187210000000  0.5655410000000  0.4411410000000 1.0
C      1  0.5664220000000  0.5381650000000  0.6045830000000 1.0
C      1  0.5352720000000  0.5783170000000  0.4212090000000 1.0
C      1  0.5526350000000  0.4855200000000  0.6058800000000 1.0
C      1  0.4799120000000  0.4029600000000  0.5605180000000 1.0
C      1  0.5290070000000  0.4790290000000  0.5650380000000 1.0
C      1  0.5544160000000  0.5360910000000  0.3947520000000 1.0
C      1  0.5509130000000  0.5164530000000  0.4715560000000 1.0
C      1  0.4819070000000  0.5625740000000  0.4752390000000 1.0
C      1  0.5031120000000  0.5778450000000  0.4619310000000 1.0
C      1  0.4827540000000  0.4606150000000  0.4254740000000 1.0
C      1  0.4968700000000  0.5671450000000  0.5944110000000 1.0
C      1  0.4241690000000  0.5590290000000  0.4739070000000 1.0
C      1  0.5687210000000  0.5109750000000  0.5600140000000 1.0
C      1  0.5269560000000  0.5286200000000  0.4804950000000 1.0
C      1  0.4032340000000  0.4870020000000  0.5652080000000 1.0
C      1  0.5597120000000  0.5141220000000  0.4447240000000 1.0
C      1  0.5607070000000  0.4261530000000  0.4896010000000 1.0
C      1  0.5978460000000  0.5526530000000  0.5414060000000 1.0
C      1  0.4628130000000  0.4440740000000  0.5861420000000 1.0
C      1  0.6180520000000  0.5461740000000  0.5209420000000 1.0
C      1  0.4950940000000  0.5149070000000  0.5136230000000 1.0
C      1  0.4938270000000  0.4400620000000  0.4082950000000 1.0
C      1  0.5134470000000  0.5389510000000  0.4360290000000 1.0
C      1  0.5109800000000  0.5292620000000  0.6278480000000 1.0
C      1  0.4240340000000  0.4635100000000  0.4665120000000 1.0
C      1  0.5005720000000  0.5388630000000  0.3867730000000 1.0
C      1  0.5149360000000  0.5161510000000  0.5341480000000 1.0
C      1  0.5731720000000  0.5588460000000  0.5001590000000 1.0
C      1  0.4702480000000  0.5116190000000  0.5841430000000 1.0
C      1  0.5517230000000  0.4909910000000  0.4294710000000 1.0
C      1  0.4419420000000  0.4601420000000  0.5980820000000 1.0
C      1  0.4861310000000  0.6216760000000  0.4617480000000 1.0
C      1  0.4586450000000  0.4514080000000  0.4366490000000 1.0
C      1  0.3893130000000  0.5187480000000  0.4615710000000 1.0
C      1  0.6009960000000  0.5426990000000  0.4477700000000 1.0
C      1  0.5117210000000  0.6424660000000  0.5220600000000 1.0
C      1  0.5246420000000  0.3868870000000  0.5260600000000 1.0
C      1  0.3710540000000  0.4641820000000  0.4649680000000 1.0
C      1  0.4204170000000  0.4176620000000  0.5069420000000 1.0
C      1  0.5753160000000  0.4858830000000  0.5451540000000 1.0
C      1  0.4687170000000  0.5137660000000  0.5235780000000 1.0
C      1  0.4102630000000  0.5347810000000  0.5755440000000 1.0
C      1  0.4214470000000  0.5348600000000  0.5289110000000 1.0
C      1  0.5274910000000  0.4202390000000  0.4493740000000 1.0
C      1  0.4530120000000  0.4977550000000  0.4495930000000 1.0
C      1  0.3621660000000  0.4561610000000  0.4909110000000 1.0
C      1  0.4562540000000  0.4897800000000  0.5194130000000 1.0
C      1  0.5609150000000  0.3882670000000  0.4528340000000 1.0
C      1  0.4160260000000  0.5799720000000  0.5536920000000 1.0
C      1  0.3899510000000  0.5329430000000  0.4869970000000 1.0
C      1  0.4604930000000  0.5589140000000  0.4089590000000 1.0
C      1  0.5076540000000  0.4026560000000  0.4379680000000 1.0
C      1  0.3709610000000  0.5512830000000  0.4939790000000 1.0
C      1  0.3999940000000  0.5277730000000  0.4139510000000 1.0
C      1  0.5848270000000  0.4670170000000  0.4795870000000 1.0
C      1  0.5780600000000  0.4636470000000  0.5635190000000 1.0
C      1  0.4447300000000  0.4711240000000  0.4501490000000 1.0
C      1  0.5921560000000  0.4935600000000  0.4877360000000 1.0
C      1  0.5686550000000  0.4520980000000  0.4973590000000 1.0
C      1  0.5797370000000  0.4064220000000  0.4981930000000 1.0
C      1  0.4240180000000  0.5966600000000  0.5027540000000 1.0
C      1  0.4693110000000  0.5706840000000  0.4995750000000 1.0
END
