TITL C-612602-9376-250 -0.0267753953479891 125000 -1190.75780287648 0 0 190 (C1) n - 1
REM
REM in /home/nfs/bkarasulu/CARBON/AIRSS/Generating-Clusters/TERSOFF/Only-C1/FIRE-HFTN
REM
REM
REM
REM
REM
REM ./C.cell (11c1c37f851c82e70ff6c80c92926a4b)
REM AIRSS Version 0.9.1 bugfix July 2018 build 013d7b7c2542+ Fri, 06 Jul 2018 19:26:36 +0100
REM compiler GCC version 9.2.1 20190827 (Red Hat 9.2.1-1)
REM options -cpp -mtune=generic -march=x86-64 -g -O0 -fpre-include=/usr/include/finclude/math-vector-fortran.h
REM seed 124107096 -1961260345 1871093703 -1077278622 -1841153454 656731004 -1937150980 947777476 887116131 931077683 1258170415 -238407263 -558939108 1931514349 -1147029653 -1469942274 303663032 180121946 670954965 376471369 2012057107 982243164 1121232241 103282249 -267271330 -245338523 1094816749 879543092 636596608 2128987391 2074742391 1805214594 1936364523
REM
CELL 1.54180   50.00000   50.00000   50.00000   90.00000   90.00000   90.00000
LATT -1
SFAC C  
C      1  0.4984050000000  0.3744710000000  0.4210520000000 1.0
C      1  0.5065070000000  0.3931590000000  0.5852690000000 1.0
C      1  0.5604320000000  0.5204060000000  0.3952180000000 1.0
C      1  0.4156380000000  0.5063960000000  0.4326950000000 1.0
C      1  0.5313860000000  0.5870720000000  0.5529610000000 1.0
C      1  0.4135770000000  0.4824910000000  0.4494650000000 1.0
C      1  0.5331160000000  0.5690490000000  0.5011050000000 1.0
C      1  0.5242840000000  0.5448690000000  0.4603840000000 1.0
C      1  0.4129730000000  0.5704910000000  0.4718200000000 1.0
C      1  0.5587850000000  0.4742460000000  0.3862670000000 1.0
C      1  0.4583270000000  0.5523920000000  0.4164180000000 1.0
C      1  0.3993260000000  0.4933130000000  0.5228170000000 1.0
C      1  0.4680290000000  0.4154310000000  0.6129220000000 1.0
C      1  0.6027560000000  0.4683620000000  0.4586600000000 1.0
C      1  0.4397020000000  0.5266260000000  0.6131170000000 1.0
C      1  0.4598520000000  0.4329660000000  0.4831890000000 1.0
C      1  0.5224200000000  0.6159660000000  0.4813150000000 1.0
C      1  0.4089770000000  0.5526120000000  0.4171270000000 1.0
C      1  0.4053140000000  0.5784580000000  0.5856640000000 1.0
C      1  0.5976420000000  0.4825650000000  0.5715510000000 1.0
C      1  0.4780240000000  0.5890140000000  0.4863130000000 1.0
C      1  0.5026210000000  0.4902780000000  0.4668390000000 1.0
C      1  0.5662570000000  0.5644280000000  0.5795960000000 1.0
C      1  0.4927740000000  0.3808710000000  0.5391480000000 1.0
C      1  0.4335420000000  0.5919690000000  0.4022500000000 1.0
C      1  0.4232080000000  0.5464910000000  0.4619680000000 1.0
C      1  0.4194920000000  0.4512960000000  0.5089390000000 1.0
C      1  0.4956060000000  0.5054620000000  0.5433680000000 1.0
C      1  0.5619060000000  0.4517770000000  0.5350120000000 1.0
C      1  0.4953350000000  0.6092450000000  0.4757450000000 1.0
C      1  0.4046930000000  0.4740220000000  0.5019710000000 1.0
C      1  0.5171260000000  0.5633790000000  0.5617710000000 1.0
C      1  0.3998790000000  0.5673930000000  0.5603340000000 1.0
C      1  0.5025070000000  0.5740890000000  0.4282650000000 1.0
C      1  0.5809330000000  0.5945260000000  0.5448540000000 1.0
C      1  0.4587390000000  0.5241470000000  0.4206700000000 1.0
C      1  0.5588510000000  0.4899030000000  0.5987660000000 1.0
C      1  0.5934750000000  0.5621350000000  0.4564140000000 1.0
C      1  0.5975270000000  0.4998150000000  0.5230880000000 1.0
C      1  0.3993150000000  0.5862350000000  0.5388090000000 1.0
C      1  0.4411010000000  0.3938860000000  0.5425280000000 1.0
C      1  0.4779170000000  0.4855270000000  0.6147240000000 1.0
C      1  0.4842920000000  0.4925030000000  0.5882100000000 1.0
C      1  0.5502800000000  0.5374790000000  0.4156010000000 1.0
C      1  0.4188330000000  0.4360000000000  0.5331600000000 1.0
C      1  0.5021230000000  0.5620300000000  0.4537290000000 1.0
C      1  0.5208590000000  0.5571080000000  0.3808280000000 1.0
C      1  0.5604060000000  0.5090320000000  0.4899040000000 1.0
C      1  0.4194600000000  0.5399760000000  0.5268590000000 1.0
C      1  0.4678700000000  0.5327400000000  0.6172960000000 1.0
C      1  0.4762360000000  0.5322660000000  0.3705070000000 1.0
C      1  0.5098510000000  0.4333950000000  0.5186370000000 1.0
C      1  0.4694390000000  0.5658480000000  0.5637950000000 1.0
C      1  0.5279020000000  0.4603690000000  0.5720240000000 1.0
C      1  0.4104410000000  0.5345090000000  0.4393650000000 1.0
C      1  0.5353860000000  0.4868210000000  0.3737550000000 1.0
C      1  0.4654230000000  0.4495140000000  0.4267090000000 1.0
C      1  0.5559500000000  0.5785400000000  0.4932300000000 1.0
C      1  0.4218650000000  0.5060160000000  0.6090850000000 1.0
C      1  0.4669980000000  0.3864270000000  0.4594500000000 1.0
C      1  0.4877490000000  0.5520870000000  0.6064970000000 1.0
C      1  0.4416720000000  0.6024100000000  0.5184210000000 1.0
C      1  0.5794020000000  0.5902330000000  0.4980030000000 1.0
C      1  0.4814330000000  0.5060970000000  0.4220790000000 1.0
C      1  0.4371400000000  0.4309770000000  0.5796470000000 1.0
C      1  0.6148690000000  0.5166600000000  0.4563270000000 1.0
C      1  0.5027590000000  0.4483570000000  0.5638140000000 1.0
C      1  0.5660900000000  0.4244360000000  0.5406860000000 1.0
C      1  0.4263310000000  0.5216270000000  0.5666960000000 1.0
C      1  0.5212090000000  0.5750680000000  0.6424770000000 1.0
C      1  0.6046470000000  0.4407810000000  0.4638070000000 1.0
C      1  0.5036630000000  0.5057780000000  0.5723180000000 1.0
C      1  0.5195050000000  0.5318240000000  0.4861100000000 1.0
C      1  0.4332520000000  0.4407200000000  0.4864630000000 1.0
C      1  0.4667480000000  0.5508510000000  0.5396060000000 1.0
C      1  0.4067270000000  0.4707000000000  0.5700520000000 1.0
C      1  0.5746620000000  0.4955400000000  0.3979950000000 1.0
C      1  0.4300280000000  0.5878530000000  0.5910000000000 1.0
C      1  0.5533150000000  0.5166290000000  0.5893130000000 1.0
C      1  0.5419120000000  0.3782530000000  0.5359780000000 1.0
C      1  0.4350620000000  0.4658810000000  0.3931050000000 1.0
C      1  0.5403720000000  0.6113770000000  0.4597140000000 1.0
C      1  0.6206350000000  0.4898660000000  0.4670020000000 1.0
C      1  0.5967890000000  0.5023610000000  0.5517150000000 1.0
C      1  0.4880850000000  0.3997770000000  0.6052290000000 1.0
C      1  0.5287990000000  0.4726610000000  0.4463900000000 1.0
C      1  0.4204120000000  0.4464400000000  0.5615180000000 1.0
C      1  0.5096570000000  0.4824950000000  0.3836250000000 1.0
C      1  0.4136800000000  0.5165780000000  0.5135020000000 1.0
C      1  0.5397160000000  0.5235320000000  0.5037560000000 1.0
C      1  0.4037970000000  0.4097060000000  0.4745240000000 1.0
C      1  0.6082410000000  0.5418150000000  0.4705950000000 1.0
C      1  0.5594750000000  0.5853770000000  0.5608880000000 1.0
C      1  0.4379740000000  0.4512070000000  0.4179350000000 1.0
C      1  0.4824490000000  0.4903560000000  0.4450130000000 1.0
C      1  0.4802390000000  0.4645880000000  0.5543540000000 1.0
C      1  0.4418180000000  0.4935200000000  0.3889180000000 1.0
C      1  0.4833510000000  0.5635720000000  0.4087760000000 1.0
C      1  0.5531520000000  0.4511740000000  0.4886920000000 1.0
C      1  0.5179170000000  0.6042060000000  0.5331950000000 1.0
C      1  0.3857540000000  0.5562950000000  0.4023350000000 1.0
C      1  0.4530360000000  0.4375800000000  0.6035280000000 1.0
C      1  0.4711370000000  0.5355150000000  0.4784170000000 1.0
C      1  0.5670710000000  0.4635580000000  0.5093070000000 1.0
C      1  0.5449020000000  0.4684610000000  0.5502560000000 1.0
C      1  0.6443930000000  0.4841780000000  0.4794750000000 1.0
C      1  0.4931250000000  0.5606520000000  0.5786520000000 1.0
C      1  0.6085150000000  0.5609600000000  0.5216840000000 1.0
C      1  0.4652860000000  0.4062160000000  0.4771580000000 1.0
C      1  0.4216050000000  0.4072500000000  0.5258870000000 1.0
C      1  0.5550380000000  0.4833670000000  0.4488780000000 1.0
C      1  0.4785840000000  0.5090130000000  0.6305070000000 1.0
C      1  0.5942350000000  0.5292080000000  0.5617680000000 1.0
C      1  0.5439650000000  0.4952480000000  0.5414380000000 1.0
C      1  0.4835160000000  0.5289960000000  0.5342360000000 1.0
C      1  0.3937800000000  0.4847880000000  0.5488860000000 1.0
C      1  0.5916850000000  0.4932360000000  0.4195530000000 1.0
C      1  0.5024830000000  0.4613190000000  0.5121390000000 1.0
C      1  0.4612060000000  0.4622510000000  0.6158350000000 1.0
C      1  0.4441220000000  0.5526330000000  0.5233660000000 1.0
C      1  0.5493780000000  0.5919810000000  0.4407350000000 1.0
C      1  0.5570990000000  0.4486480000000  0.3969960000000 1.0
C      1  0.4950810000000  0.5170060000000  0.4811210000000 1.0
C      1  0.5562160000000  0.5093940000000  0.4608320000000 1.0
C      1  0.4921310000000  0.4789450000000  0.5319660000000 1.0
C      1  0.4107240000000  0.5418180000000  0.5539560000000 1.0
C      1  0.4805480000000  0.5631450000000  0.4730810000000 1.0
C      1  0.4686450000000  0.5967300000000  0.5125620000000 1.0
C      1  0.4968370000000  0.4677390000000  0.4857150000000 1.0
C      1  0.5383420000000  0.5609000000000  0.4033970000000 1.0
C      1  0.4928890000000  0.5526530000000  0.3834310000000 1.0
C      1  0.5041340000000  0.5643750000000  0.6259500000000 1.0
C      1  0.6085600000000  0.5142220000000  0.4285460000000 1.0
C      1  0.4162060000000  0.4338810000000  0.4635960000000 1.0
C      1  0.5200100000000  0.4509420000000  0.4284920000000 1.0
C      1  0.5746200000000  0.5784580000000  0.4454220000000 1.0
C      1  0.4647120000000  0.3798700000000  0.5346270000000 1.0
C      1  0.4144250000000  0.4874770000000  0.4776360000000 1.0
C      1  0.4755790000000  0.4535770000000  0.4736820000000 1.0
C      1  0.5295070000000  0.3799490000000  0.5919320000000 1.0
C      1  0.6165240000000  0.5160250000000  0.5100760000000 1.0
C      1  0.4893880000000  0.6022570000000  0.5313570000000 1.0
C      1  0.5385990000000  0.5218550000000  0.5320730000000 1.0
C      1  0.5731590000000  0.5365210000000  0.5802030000000 1.0
C      1  0.5903930000000  0.4180390000000  0.4654440000000 1.0
C      1  0.4410800000000  0.4044090000000  0.5691860000000 1.0
C      1  0.5008020000000  0.4005220000000  0.5584160000000 1.0
C      1  0.5432580000000  0.5146030000000  0.3724170000000 1.0
C      1  0.3640480000000  0.5595060000000  0.3882770000000 1.0
C      1  0.4438350000000  0.5010290000000  0.5639190000000 1.0
C      1  0.4883680000000  0.4956660000000  0.3958530000000 1.0
C      1  0.6128790000000  0.5422760000000  0.4995160000000 1.0
C      1  0.4110910000000  0.4850450000000  0.5949610000000 1.0
C      1  0.4274230000000  0.5107240000000  0.4889550000000 1.0
C      1  0.4427720000000  0.5305010000000  0.4760420000000 1.0
C      1  0.4092110000000  0.4001540000000  0.5003240000000 1.0
C      1  0.4520200000000  0.5838040000000  0.5762570000000 1.0
C      1  0.4928380000000  0.4437670000000  0.4202490000000 1.0
C      1  0.5293320000000  0.5386570000000  0.5540500000000 1.0
C      1  0.4684540000000  0.4660410000000  0.4494260000000 1.0
C      1  0.4143660000000  0.5952010000000  0.5165710000000 1.0
C      1  0.5653880000000  0.4097450000000  0.4715150000000 1.0
C      1  0.5939650000000  0.5854180000000  0.5212340000000 1.0
C      1  0.5288940000000  0.6169790000000  0.5095890000000 1.0
C      1  0.5058110000000  0.4258100000000  0.5467890000000 1.0
C      1  0.5592830000000  0.3984020000000  0.5410140000000 1.0
C      1  0.5276770000000  0.5203190000000  0.5771840000000 1.0
C      1  0.5449880000000  0.5315770000000  0.4446860000000 1.0
C      1  0.5301860000000  0.5812250000000  0.4216380000000 1.0
C      1  0.5220100000000  0.4159900000000  0.4983600000000 1.0
C      1  0.5399140000000  0.4352540000000  0.4145840000000 1.0
C      1  0.4357150000000  0.5086440000000  0.4125330000000 1.0
C      1  0.5211790000000  0.3860250000000  0.4135020000000 1.0
C      1  0.5449840000000  0.4248730000000  0.4839230000000 1.0
C      1  0.5856230000000  0.4799920000000  0.5970180000000 1.0
C      1  0.4670490000000  0.5051700000000  0.3776530000000 1.0
C      1  0.4336560000000  0.5662110000000  0.4115250000000 1.0
C      1  0.5179510000000  0.3724960000000  0.4751160000000 1.0
C      1  0.4060820000000  0.5877830000000  0.4908020000000 1.0
C      1  0.4187050000000  0.4540370000000  0.4411150000000 1.0
C      1  0.5164500000000  0.3879100000000  0.4974900000000 1.0
C      1  0.5762690000000  0.4904010000000  0.5061670000000 1.0
C      1  0.4778250000000  0.3750270000000  0.4379660000000 1.0
C      1  0.6090010000000  0.5487460000000  0.5475790000000 1.0
C      1  0.5369420000000  0.4074610000000  0.4135620000000 1.0
C      1  0.5162960000000  0.3758810000000  0.5231970000000 1.0
C      1  0.5378120000000  0.4703580000000  0.5966790000000 1.0
C      1  0.4643220000000  0.4824760000000  0.5696720000000 1.0
C      1  0.5985910000000  0.4690970000000  0.6183740000000 1.0
C      1  0.5818900000000  0.4764790000000  0.4407190000000 1.0
END
