TITL C-612607-4507-1146 2.80325631236916e-05 125000 -678.216877636241 0 0 112 (C1) n - 1
REM
REM in /home/nfs/bkarasulu/CARBON/AIRSS/Generating-Clusters/TERSOFF/Only-C1/FIRE-HFTN
REM
REM
REM
REM
REM
REM ./C.cell (11c1c37f851c82e70ff6c80c92926a4b)
REM AIRSS Version 0.9.1 bugfix July 2018 build 013d7b7c2542+ Fri, 06 Jul 2018 19:26:36 +0100
REM compiler GCC version 9.2.1 20190827 (Red Hat 9.2.1-1)
REM options -cpp -mtune=generic -march=x86-64 -g -O0 -fpre-include=/usr/include/finclude/math-vector-fortran.h
REM seed 1001741130 741084096 1056799017 562287968 -1893561945 1014386719 -1690938833 1245965731 1245254516 436361075 612188153 -117197458 1800466055 -1349752880 514952673 1165086384 918721697 1269323119 -542045581 -908189710 977103188 1013317994 -595292616 748352922 -165045411 1968785090 738332458 -1966686355 -421885660 -700859502 -1178339167 1754276714 1166669501
REM
CELL 1.54180   50.00000   50.00000   50.00000   90.00000   90.00000   90.00000
LATT -1
SFAC C  
C      1  0.3795850000000  0.5148650000000  0.5773680000000 1.0
C      1  0.4173370000000  0.4766090000000  0.4658520000000 1.0
C      1  0.5863770000000  0.5124690000000  0.5076660000000 1.0
C      1  0.4739860000000  0.5456680000000  0.5155950000000 1.0
C      1  0.4279060000000  0.4505450000000  0.4570820000000 1.0
C      1  0.4292640000000  0.5354130000000  0.4703110000000 1.0
C      1  0.4500270000000  0.5614040000000  0.5539700000000 1.0
C      1  0.5357570000000  0.4762950000000  0.5731950000000 1.0
C      1  0.5039180000000  0.4445070000000  0.4105170000000 1.0
C      1  0.4633710000000  0.5020950000000  0.4678930000000 1.0
C      1  0.5241370000000  0.5771630000000  0.5394520000000 1.0
C      1  0.6334660000000  0.4832480000000  0.4439880000000 1.0
C      1  0.4796500000000  0.5260100000000  0.5755440000000 1.0
C      1  0.4296320000000  0.5465850000000  0.4003510000000 1.0
C      1  0.5816110000000  0.5348260000000  0.5249010000000 1.0
C      1  0.5207360000000  0.5846510000000  0.5120900000000 1.0
C      1  0.5951150000000  0.5588980000000  0.5283050000000 1.0
C      1  0.5656660000000  0.4408730000000  0.4577800000000 1.0
C      1  0.5168190000000  0.5394740000000  0.4048740000000 1.0
C      1  0.4258110000000  0.5249440000000  0.4431480000000 1.0
C      1  0.5437120000000  0.5199950000000  0.4426630000000 1.0
C      1  0.5249100000000  0.4758320000000  0.4883140000000 1.0
C      1  0.5571490000000  0.5301510000000  0.4677560000000 1.0
C      1  0.4865040000000  0.4314210000000  0.4749880000000 1.0
C      1  0.4820140000000  0.5152770000000  0.5488520000000 1.0
C      1  0.5489460000000  0.4188320000000  0.4662000000000 1.0
C      1  0.4517450000000  0.4396380000000  0.4434600000000 1.0
C      1  0.4486730000000  0.5457890000000  0.5296790000000 1.0
C      1  0.4878320000000  0.5075920000000  0.4154580000000 1.0
C      1  0.4776300000000  0.4231270000000  0.4483440000000 1.0
C      1  0.5704080000000  0.5946840000000  0.5525200000000 1.0
C      1  0.5772150000000  0.4745490000000  0.5445120000000 1.0
C      1  0.5766740000000  0.5122150000000  0.4801630000000 1.0
C      1  0.5837270000000  0.4888020000000  0.4640620000000 1.0
C      1  0.4532920000000  0.5573420000000  0.6030490000000 1.0
C      1  0.4479660000000  0.4489080000000  0.5105920000000 1.0
C      1  0.3985100000000  0.5018930000000  0.5650130000000 1.0
C      1  0.5484730000000  0.4327890000000  0.5451310000000 1.0
C      1  0.5367290000000  0.4786220000000  0.4631440000000 1.0
C      1  0.4616880000000  0.4692840000000  0.5500070000000 1.0
C      1  0.4666650000000  0.4667940000000  0.4984690000000 1.0
C      1  0.4788540000000  0.5534910000000  0.4893630000000 1.0
C      1  0.4318590000000  0.5835150000000  0.4944740000000 1.0
C      1  0.5036900000000  0.4243930000000  0.4324210000000 1.0
C      1  0.4454570000000  0.5882400000000  0.5436110000000 1.0
C      1  0.5142720000000  0.4353830000000  0.5153200000000 1.0
C      1  0.4498570000000  0.4024960000000  0.5002830000000 1.0
C      1  0.5620650000000  0.4529590000000  0.5049280000000 1.0
C      1  0.5375450000000  0.5723340000000  0.4930650000000 1.0
C      1  0.4849730000000  0.5643490000000  0.4658290000000 1.0
C      1  0.6126000000000  0.4377440000000  0.5012450000000 1.0
C      1  0.5062540000000  0.4930980000000  0.4994590000000 1.0
C      1  0.5593060000000  0.5283430000000  0.5413320000000 1.0
C      1  0.5268260000000  0.4148870000000  0.4476380000000 1.0
C      1  0.5123830000000  0.4907550000000  0.5859640000000 1.0
C      1  0.4712100000000  0.5314590000000  0.4189930000000 1.0
C      1  0.4415170000000  0.5116890000000  0.4829580000000 1.0
C      1  0.4191350000000  0.4884060000000  0.5218330000000 1.0
C      1  0.5438300000000  0.5913680000000  0.5536780000000 1.0
C      1  0.5070450000000  0.5199570000000  0.5852050000000 1.0
C      1  0.4743200000000  0.4059120000000  0.5151030000000 1.0
C      1  0.4600450000000  0.4820240000000  0.5922500000000 1.0
C      1  0.5237770000000  0.4878870000000  0.3905120000000 1.0
C      1  0.5532400000000  0.4089640000000  0.4943760000000 1.0
C      1  0.4610010000000  0.5484060000000  0.5777230000000 1.0
C      1  0.4823340000000  0.4860430000000  0.5118140000000 1.0
C      1  0.5524090000000  0.5350950000000  0.5678140000000 1.0
C      1  0.4946810000000  0.4206160000000  0.5002590000000 1.0
C      1  0.4992450000000  0.6018720000000  0.5061840000000 1.0
C      1  0.5571790000000  0.4135930000000  0.5223640000000 1.0
C      1  0.4774210000000  0.4898400000000  0.5385370000000 1.0
C      1  0.5100610000000  0.5121330000000  0.3968450000000 1.0
C      1  0.5335730000000  0.4539760000000  0.5034550000000 1.0
C      1  0.5440120000000  0.5568090000000  0.4706740000000 1.0
C      1  0.4771130000000  0.4796960000000  0.4528700000000 1.0
C      1  0.4676740000000  0.4185310000000  0.5404710000000 1.0
C      1  0.4886990000000  0.4737980000000  0.5923080000000 1.0
C      1  0.4242770000000  0.5442530000000  0.5159650000000 1.0
C      1  0.4778850000000  0.4562780000000  0.4072880000000 1.0
C      1  0.4634440000000  0.4632400000000  0.4304030000000 1.0
C      1  0.5633360000000  0.4691280000000  0.4591460000000 1.0
C      1  0.4202290000000  0.4899410000000  0.5518220000000 1.0
C      1  0.4460000000000  0.5652420000000  0.6267870000000 1.0
C      1  0.5235870000000  0.4615430000000  0.3984140000000 1.0
C      1  0.5296100000000  0.5627320000000  0.4458730000000 1.0
C      1  0.4478460000000  0.5961030000000  0.5154680000000 1.0
C      1  0.5404040000000  0.5127820000000  0.5285060000000 1.0
C      1  0.5127340000000  0.5528260000000  0.5488250000000 1.0
C      1  0.4233670000000  0.4904660000000  0.4926340000000 1.0
C      1  0.6093020000000  0.4863000000000  0.4532510000000 1.0
C      1  0.4937280000000  0.4462100000000  0.5869770000000 1.0
C      1  0.5885490000000  0.4889510000000  0.5243460000000 1.0
C      1  0.5007820000000  0.5654190000000  0.4428220000000 1.0
C      1  0.4563670000000  0.4446190000000  0.5379280000000 1.0
C      1  0.4922330000000  0.5523350000000  0.4182450000000 1.0
C      1  0.4938270000000  0.5370900000000  0.5336630000000 1.0
C      1  0.5191980000000  0.4306570000000  0.5434420000000 1.0
C      1  0.4729870000000  0.6069320000000  0.5081230000000 1.0
C      1  0.4146930000000  0.4975660000000  0.4446460000000 1.0
C      1  0.5910730000000  0.5822590000000  0.5408000000000 1.0
C      1  0.4425820000000  0.5340740000000  0.4212530000000 1.0
C      1  0.5369970000000  0.5421850000000  0.4254250000000 1.0
C      1  0.4356090000000  0.4259830000000  0.4986060000000 1.0
C      1  0.5046750000000  0.4315580000000  0.5673050000000 1.0
C      1  0.4429290000000  0.4803040000000  0.5683220000000 1.0
C      1  0.5880050000000  0.4463470000000  0.5027860000000 1.0
C      1  0.5552220000000  0.4601950000000  0.5564780000000 1.0
C      1  0.5247170000000  0.5389980000000  0.5721290000000 1.0
C      1  0.5259690000000  0.4977000000000  0.4458930000000 1.0
C      1  0.4793890000000  0.4590780000000  0.4748840000000 1.0
C      1  0.4239280000000  0.5559400000000  0.4895120000000 1.0
C      1  0.4984280000000  0.4946240000000  0.4386150000000 1.0
END
