TITL C-612605-9286-1148 5.76274874311326 125000 -285.584556115121 0 0 49 (C1) n - 1
REM
REM in /home/nfs/bkarasulu/CARBON/AIRSS/Generating-Clusters/TERSOFF/Only-C1/FIRE-HFTN
REM
REM
REM
REM
REM
REM ./C.cell (11c1c37f851c82e70ff6c80c92926a4b)
REM AIRSS Version 0.9.1 bugfix July 2018 build 013d7b7c2542+ Fri, 06 Jul 2018 19:26:36 +0100
REM compiler GCC version 9.2.1 20190827 (Red Hat 9.2.1-1)
REM options -cpp -mtune=generic -march=x86-64 -g -O0 -fpre-include=/usr/include/finclude/math-vector-fortran.h
REM seed 1383741342 877886821 -1790457422 1003095449 -205980609 -701099870 1600502062 -438547990 -514439832 1925116578 -1842188090 -972745497 1689718594 1047816437 -884632045 -2008562950 298331498 -1829451537 -1795919383 -2005402070 880704922 -339465659 -1049784734 503119314 -457619789 1660203439 666283080 1162657457 -1981815149 14895061 368271019 -1075711920 -953801021
REM
CELL 1.54180   50.00000   50.00000   50.00000   90.00000   90.00000   90.00000
LATT -1
SFAC C  
C      1  0.5117690000000  0.4470130000000  0.4628920000000 1.0
C      1  0.5375040000000  0.5124880000000  0.4669540000000 1.0
C      1  0.4776440000000  0.6238050000000  0.5066100000000 1.0
C      1  0.5148680000000  0.4628630000000  0.5398440000000 1.0
C      1  0.4862920000000  0.5591930000000  0.4753050000000 1.0
C      1  0.3930950000000  0.3702540000000  0.6739760000000 1.0
C      1  0.5139960000000  0.4717040000000  0.4534960000000 1.0
C      1  0.4921410000000  0.3864670000000  0.5006980000000 1.0
C      1  0.5322830000000  0.5230790000000  0.4934230000000 1.0
C      1  0.4833750000000  0.5339940000000  0.4635720000000 1.0
C      1  0.4915010000000  0.5380750000000  0.3948630000000 1.0
C      1  0.5096430000000  0.4262890000000  0.4792740000000 1.0
C      1  0.5203560000000  0.5906660000000  0.4388070000000 1.0
C      1  0.4832070000000  0.5290590000000  0.3704630000000 1.0
C      1  0.4910000000000  0.5214200000000  0.4174760000000 1.0
C      1  0.4766050000000  0.5836170000000  0.4619150000000 1.0
C      1  0.5453870000000  0.4053390000000  0.5316790000000 1.0
C      1  0.3768280000000  0.3609140000000  0.6920820000000 1.0
C      1  0.5806530000000  0.5658720000000  0.4787420000000 1.0
C      1  0.5234460000000  0.6280710000000  0.5228440000000 1.0
C      1  0.5008560000000  0.5643390000000  0.3982790000000 1.0
C      1  0.5717370000000  0.5243250000000  0.4323380000000 1.0
C      1  0.5441790000000  0.5786640000000  0.4481820000000 1.0
C      1  0.5051100000000  0.6166810000000  0.5062180000000 1.0
C      1  0.4922680000000  0.4270460000000  0.5634450000000 1.0
C      1  0.5206660000000  0.4871840000000  0.5310500000000 1.0
C      1  0.4757720000000  0.4177230000000  0.5819510000000 1.0
C      1  0.4592380000000  0.4082320000000  0.6003560000000 1.0
C      1  0.5545870000000  0.5580930000000  0.4671910000000 1.0
C      1  0.4626380000000  0.3429780000000  0.5017350000000 1.0
C      1  0.4096340000000  0.3797500000000  0.6555680000000 1.0
C      1  0.5076140000000  0.4096820000000  0.5016460000000 1.0
C      1  0.5103150000000  0.5676660000000  0.4910150000000 1.0
C      1  0.5212190000000  0.4166620000000  0.5256180000000 1.0
C      1  0.5021110000000  0.5988030000000  0.4591190000000 1.0
C      1  0.5337250000000  0.5518070000000  0.4896900000000 1.0
C      1  0.6035450000000  0.5723720000000  0.4893290000000 1.0
C      1  0.4950800000000  0.5165530000000  0.4447240000000 1.0
C      1  0.5558300000000  0.5302710000000  0.4534900000000 1.0
C      1  0.4772820000000  0.3645380000000  0.5011300000000 1.0
C      1  0.4546990000000  0.5983910000000  0.4717300000000 1.0
C      1  0.5093890000000  0.4356670000000  0.5431490000000 1.0
C      1  0.5110720000000  0.5838270000000  0.4133000000000 1.0
C      1  0.5120030000000  0.5968550000000  0.4871860000000 1.0
C      1  0.5161000000000  0.4994390000000  0.4537390000000 1.0
C      1  0.4261690000000  0.3892440000000  0.6371640000000 1.0
C      1  0.4561660000000  0.6162060000000  0.4920910000000 1.0
C      1  0.5266990000000  0.5080810000000  0.5158920000000 1.0
C      1  0.4427040000000  0.3987380000000  0.6187600000000 1.0
END
