TITL C-612605-9286-853 11092.5698481677 125000 -1028.1459547121 0 0 167 (C1) n - 1
REM
REM in /home/nfs/bkarasulu/CARBON/AIRSS/Generating-Clusters/TERSOFF/Only-C1/FIRE-HFTN
REM
REM
REM
REM
REM
REM ./C.cell (11c1c37f851c82e70ff6c80c92926a4b)
REM AIRSS Version 0.9.1 bugfix July 2018 build 013d7b7c2542+ Fri, 06 Jul 2018 19:26:36 +0100
REM compiler GCC version 9.2.1 20190827 (Red Hat 9.2.1-1)
REM options -cpp -mtune=generic -march=x86-64 -g -O0 -fpre-include=/usr/include/finclude/math-vector-fortran.h
REM seed -1787270406 -590156340 1044357250 -968772886 -551179690 545559752 499289212 786235771 4321325 -1596472248 -561186311 1827822346 -844429211 -1158622910 -1967672650 575486204 2020393825 -283749642 401152213 -1605234528 2120162431 -852157224 -1773005825 656915476 1105132850 1462327601 -95660960 -275398855 1711605183 -1988506509 2005217053 -390349756 -425771571
REM
CELL 1.54180   50.00000   50.00000   50.00000   90.00000   90.00000   90.00000
LATT -1
SFAC C  
C      1  0.3724000000000  0.3892560000000  0.5023950000000 1.0
C      1  0.5068580000000  0.5404960000000  0.4867380000000 1.0
C      1  0.5026230000000  0.4906390000000  0.5553550000000 1.0
C      1  0.5506500000000  0.4846230000000  0.5487430000000 1.0
C      1  0.5245260000000  0.4431650000000  0.4062050000000 1.0
C      1  0.5125620000000  0.5437960000000  0.4570540000000 1.0
C      1  0.4362900000000  0.3640630000000  0.4797420000000 1.0
C      1  0.5253510000000  0.5275250000000  0.5381440000000 1.0
C      1  0.4947450000000  0.5648200000000  0.4513240000000 1.0
C      1  0.4415480000000  0.5772210000000  0.5365040000000 1.0
C      1  0.5047130000000  0.5085050000000  0.6030250000000 1.0
C      1  0.4587900000000  0.5491110000000  0.5001600000000 1.0
C      1  0.5277860000000  0.4959540000000  0.3937370000000 1.0
C      1  0.5681510000000  0.4652030000000  0.4435360000000 1.0
C      1  0.5716530000000  0.3867000000000  0.4146620000000 1.0
C      1  0.5281040000000  0.5008090000000  0.5470600000000 1.0
C      1  0.5306750000000  0.4865260000000  0.4559450000000 1.0
C      1  0.4649830000000  0.4410640000000  0.4979200000000 1.0
C      1  0.4317010000000  0.5003960000000  0.5601060000000 1.0
C      1  0.4868420000000  0.4385030000000  0.5870130000000 1.0
C      1  0.5332790000000  0.5636830000000  0.3945650000000 1.0
C      1  0.5034140000000  0.4325590000000  0.4729750000000 1.0
C      1  0.4835100000000  0.4971680000000  0.4570610000000 1.0
C      1  0.5908030000000  0.4594640000000  0.4621310000000 1.0
C      1  0.3992720000000  0.4324580000000  0.5577740000000 1.0
C      1  0.5036660000000  0.4780290000000  0.4545630000000 1.0
C      1  0.5700100000000  0.5128650000000  0.4691510000000 1.0
C      1  0.4835450000000  0.4929590000000  0.4085540000000 1.0
C      1  0.3998950000000  0.5700590000000  0.5128960000000 1.0
C      1  0.4978140000000  0.4462610000000  0.4177800000000 1.0
C      1  0.4545330000000  0.5697350000000  0.4316200000000 1.0
C      1  0.4799300000000  0.4647220000000  0.4032670000000 1.0
C      1  0.5888550000000  0.5418170000000  0.5265380000000 1.0
C      1  0.6007080000000  0.4127800000000  0.5580940000000 1.0
C      1  0.5515080000000  0.5969740000000  0.4249130000000 1.0
C      1  0.5242450000000  0.6086190000000  0.4651720000000 1.0
C      1  0.4887690000000  0.5420820000000  0.4020590000000 1.0
C      1  0.3979890000000  0.5590780000000  0.5397170000000 1.0
C      1  0.5322760000000  0.5498820000000  0.4987900000000 1.0
C      1  0.5258830000000  0.4187610000000  0.5591280000000 1.0
C      1  0.5764140000000  0.6034390000000  0.4377350000000 1.0
C      1  0.4432560000000  0.5004060000000  0.4840620000000 1.0
C      1  0.5570780000000  0.3928430000000  0.4795640000000 1.0
C      1  0.5059450000000  0.5662470000000  0.4017410000000 1.0
C      1  0.4398960000000  0.4789930000000  0.5786750000000 1.0
C      1  0.3713300000000  0.4080630000000  0.5211320000000 1.0
C      1  0.4426500000000  0.4590670000000  0.5293180000000 1.0
C      1  0.5750830000000  0.5954910000000  0.5556070000000 1.0
C      1  0.5814650000000  0.5522920000000  0.5822360000000 1.0
C      1  0.5922020000000  0.4958790000000  0.5283720000000 1.0
C      1  0.5932250000000  0.5035230000000  0.4559800000000 1.0
C      1  0.6021070000000  0.3897560000000  0.5728360000000 1.0
C      1  0.5191340000000  0.4040060000000  0.5115700000000 1.0
C      1  0.5645880000000  0.4208870000000  0.5168270000000 1.0
C      1  0.4006020000000  0.5261560000000  0.4921780000000 1.0
C      1  0.4742700000000  0.3967270000000  0.4965320000000 1.0
C      1  0.4603750000000  0.4797690000000  0.5314590000000 1.0
C      1  0.3949930000000  0.5150320000000  0.5182480000000 1.0
C      1  0.5079460000000  0.4131350000000  0.5378120000000 1.0
C      1  0.4975490000000  0.5290980000000  0.5286780000000 1.0
C      1  0.4396700000000  0.5620440000000  0.4568500000000 1.0
C      1  0.3862220000000  0.3722780000000  0.4873100000000 1.0
C      1  0.5004710000000  0.5911210000000  0.4180640000000 1.0
C      1  0.4967410000000  0.5166090000000  0.5003480000000 1.0
C      1  0.4320800000000  0.5337900000000  0.4525890000000 1.0
C      1  0.4389120000000  0.4441340000000  0.3832720000000 1.0
C      1  0.4287160000000  0.5462020000000  0.5749820000000 1.0
C      1  0.4010700000000  0.4947870000000  0.4199350000000 1.0
C      1  0.4911180000000  0.5074050000000  0.5752790000000 1.0
C      1  0.4403850000000  0.5676050000000  0.4863160000000 1.0
C      1  0.5318810000000  0.4377980000000  0.4671840000000 1.0
C      1  0.5802700000000  0.5785820000000  0.5762630000000 1.0
C      1  0.5292810000000  0.4666970000000  0.3889430000000 1.0
C      1  0.4863050000000  0.5737880000000  0.6008350000000 1.0
C      1  0.4905020000000  0.4481660000000  0.4480480000000 1.0
C      1  0.5515260000000  0.5525920000000  0.4793760000000 1.0
C      1  0.4423080000000  0.4657740000000  0.4285610000000 1.0
C      1  0.4726750000000  0.5497630000000  0.6072690000000 1.0
C      1  0.5610010000000  0.5520710000000  0.4333840000000 1.0
C      1  0.5859740000000  0.5566630000000  0.4500900000000 1.0
C      1  0.5478180000000  0.4450100000000  0.4456230000000 1.0
C      1  0.5168350000000  0.4935240000000  0.4999630000000 1.0
C      1  0.4143880000000  0.5222580000000  0.5648630000000 1.0
C      1  0.4734030000000  0.5290070000000  0.5680390000000 1.0
C      1  0.5347920000000  0.5160610000000  0.6002140000000 1.0
C      1  0.5417730000000  0.4323670000000  0.5759190000000 1.0
C      1  0.4647540000000  0.4176670000000  0.5148060000000 1.0
C      1  0.3964840000000  0.5297450000000  0.5429400000000 1.0
C      1  0.4097430000000  0.3627670000000  0.4793470000000 1.0
C      1  0.5050300000000  0.4794400000000  0.6123680000000 1.0
C      1  0.4474680000000  0.5045880000000  0.5357610000000 1.0
C      1  0.5546280000000  0.4543110000000  0.5847950000000 1.0
C      1  0.5517650000000  0.4878320000000  0.4359510000000 1.0
C      1  0.4938700000000  0.5931020000000  0.5810140000000 1.0
C      1  0.3937180000000  0.5062350000000  0.3961690000000 1.0
C      1  0.4590370000000  0.3758900000000  0.4866570000000 1.0
C      1  0.5698100000000  0.4424030000000  0.4990530000000 1.0
C      1  0.4580260000000  0.4524870000000  0.4507020000000 1.0
C      1  0.5900380000000  0.5198460000000  0.5461770000000 1.0
C      1  0.5022690000000  0.5105290000000  0.3965600000000 1.0
C      1  0.4285910000000  0.4926220000000  0.4264100000000 1.0
C      1  0.5450700000000  0.4286190000000  0.4224220000000 1.0
C      1  0.5787340000000  0.5253140000000  0.5731890000000 1.0
C      1  0.5532560000000  0.5704530000000  0.4130570000000 1.0
C      1  0.5933040000000  0.5843860000000  0.4483700000000 1.0
C      1  0.5787640000000  0.5410830000000  0.4767390000000 1.0
C      1  0.4788320000000  0.4207080000000  0.5406470000000 1.0
C      1  0.5031310000000  0.4706120000000  0.5111340000000 1.0
C      1  0.5682830000000  0.4805290000000  0.5275030000000 1.0
C      1  0.4692630000000  0.5710410000000  0.5434740000000 1.0
C      1  0.4600230000000  0.5045540000000  0.6218680000000 1.0
C      1  0.4870640000000  0.5805360000000  0.4740190000000 1.0
C      1  0.4218000000000  0.5671630000000  0.5559470000000 1.0
C      1  0.4720420000000  0.5921290000000  0.4252400000000 1.0
C      1  0.5007710000000  0.4053570000000  0.4885380000000 1.0
C      1  0.5243560000000  0.6027050000000  0.4354430000000 1.0
C      1  0.3816320000000  0.4235080000000  0.5401080000000 1.0
C      1  0.4273610000000  0.5797650000000  0.5093980000000 1.0
C      1  0.4499740000000  0.5280550000000  0.5187050000000 1.0
C      1  0.4819160000000  0.5237750000000  0.6183260000000 1.0
C      1  0.5472370000000  0.6088840000000  0.4829540000000 1.0
C      1  0.4861230000000  0.5920160000000  0.5531060000000 1.0
C      1  0.4606520000000  0.5447210000000  0.4153050000000 1.0
C      1  0.3908880000000  0.5532230000000  0.4917230000000 1.0
C      1  0.6061250000000  0.5097660000000  0.4329810000000 1.0
C      1  0.6188080000000  0.4329780000000  0.5618630000000 1.0
C      1  0.4799430000000  0.5439230000000  0.5449760000000 1.0
C      1  0.4191830000000  0.4190590000000  0.5993020000000 1.0
C      1  0.4968190000000  0.6148020000000  0.5064570000000 1.0
C      1  0.4547090000000  0.5421010000000  0.5855930000000 1.0
C      1  0.4465420000000  0.4877460000000  0.6052170000000 1.0
C      1  0.4524900000000  0.4569170000000  0.4028820000000 1.0
C      1  0.5469420000000  0.4016700000000  0.5051240000000 1.0
C      1  0.5970940000000  0.5328060000000  0.4998100000000 1.0
C      1  0.4432050000000  0.4502080000000  0.5710630000000 1.0
C      1  0.4203220000000  0.4336350000000  0.5761220000000 1.0
C      1  0.4335580000000  0.4740060000000  0.4849530000000 1.0
C      1  0.6024860000000  0.4837940000000  0.4753520000000 1.0
C      1  0.5830170000000  0.4343130000000  0.4740540000000 1.0
C      1  0.5804930000000  0.4157700000000  0.5389780000000 1.0
C      1  0.4980500000000  0.4546960000000  0.6050730000000 1.0
C      1  0.5716510000000  0.4094390000000  0.4603510000000 1.0
C      1  0.4234860000000  0.5193980000000  0.4757750000000 1.0
C      1  0.5596840000000  0.5074620000000  0.5872930000000 1.0
C      1  0.4480800000000  0.4513600000000  0.4776100000000 1.0
C      1  0.4726100000000  0.5051950000000  0.4823340000000 1.0
C      1  0.5674340000000  0.5873700000000  0.5295170000000 1.0
C      1  0.4946600000000  0.6099140000000  0.5328270000000 1.0
C      1  0.4923070000000  0.4505530000000  0.4950960000000 1.0
C      1  0.4469670000000  0.5188600000000  0.4294660000000 1.0
C      1  0.4999220000000  0.6046360000000  0.4801790000000 1.0
C      1  0.5435400000000  0.4918410000000  0.4828610000000 1.0
C      1  0.4883640000000  0.4770730000000  0.5349290000000 1.0
C      1  0.5594820000000  0.6024260000000  0.5064680000000 1.0
C      1  0.3822440000000  0.4852660000000  0.4373890000000 1.0
C      1  0.4843130000000  0.5596770000000  0.4935260000000 1.0
C      1  0.4726020000000  0.5037550000000  0.4326380000000 1.0
C      1  0.5401540000000  0.5477090000000  0.4527380000000 1.0
C      1  0.4687120000000  0.4357500000000  0.5651320000000 1.0
C      1  0.5631200000000  0.4068520000000  0.4308590000000 1.0
C      1  0.5662370000000  0.5587630000000  0.5285470000000 1.0
C      1  0.5412150000000  0.5463090000000  0.5249510000000 1.0
C      1  0.6033630000000  0.5018730000000  0.5011900000000 1.0
C      1  0.5097690000000  0.6140330000000  0.5891710000000 1.0
C      1  0.5608350000000  0.4694050000000  0.5028110000000 1.0
C      1  0.5481830000000  0.5024410000000  0.4124420000000 1.0
C      1  0.5584950000000  0.4806150000000  0.5759790000000 1.0
END
