TITL C-612605-9286-1393 -349.329553656992 125000 -852.880173687035 0 0 141 (C1) n - 1
REM
REM in /home/nfs/bkarasulu/CARBON/AIRSS/Generating-Clusters/TERSOFF/Only-C1/FIRE-HFTN
REM
REM
REM
REM
REM
REM ./C.cell (11c1c37f851c82e70ff6c80c92926a4b)
REM AIRSS Version 0.9.1 bugfix July 2018 build 013d7b7c2542+ Fri, 06 Jul 2018 19:26:36 +0100
REM compiler GCC version 9.2.1 20190827 (Red Hat 9.2.1-1)
REM options -cpp -mtune=generic -march=x86-64 -g -O0 -fpre-include=/usr/include/finclude/math-vector-fortran.h
REM seed -970389075 1375605542 1518241341 -265193978 1774875528 -1956613969 1716264923 1553390153 670397471 1288345379 -661543163 309097215 -1014597323 1813651647 394933797 1359584055 -569334214 -1920607963 1694313319 -1776519661 -1165266718 -1551289696 707689967 -640837349 -259542738 -1041656013 729150910 -657468489 -1750582218 313477609 893430166 1773713203 -1725376809
REM
CELL 1.54180   50.00000   50.00000   50.00000   90.00000   90.00000   90.00000
LATT -1
SFAC C  
C      1  0.4417280000000  0.5265620000000  0.4446750000000 1.0
C      1  0.4584220000000  0.4965430000000  0.6419890000000 1.0
C      1  0.5139440000000  0.4740740000000  0.6021060000000 1.0
C      1  0.4830220000000  0.5139030000000  0.5767610000000 1.0
C      1  0.4381460000000  0.6716000000000  0.5393020000000 1.0
C      1  0.5044180000000  0.4087940000000  0.5785890000000 1.0
C      1  0.4755670000000  0.4480630000000  0.4788270000000 1.0
C      1  0.5309440000000  0.3962590000000  0.5378670000000 1.0
C      1  0.5916550000000  0.4554120000000  0.4595400000000 1.0
C      1  0.4272330000000  0.4388750000000  0.5056670000000 1.0
C      1  0.4965030000000  0.5171250000000  0.4349620000000 1.0
C      1  0.3966560000000  0.4696140000000  0.5818310000000 1.0
C      1  0.5355260000000  0.5094750000000  0.5008310000000 1.0
C      1  0.5646730000000  0.4618020000000  0.5178790000000 1.0
C      1  0.4343660000000  0.6228170000000  0.5200650000000 1.0
C      1  0.5091320000000  0.6209720000000  0.4878940000000 1.0
C      1  0.5709330000000  0.5787100000000  0.4669740000000 1.0
C      1  0.5638790000000  0.4867880000000  0.5314890000000 1.0
C      1  0.4857410000000  0.4707550000000  0.6037310000000 1.0
C      1  0.4512840000000  0.5491930000000  0.4591380000000 1.0
C      1  0.4737340000000  0.4845020000000  0.3871070000000 1.0
C      1  0.4779660000000  0.5122250000000  0.3779700000000 1.0
C      1  0.4676170000000  0.4073440000000  0.4498350000000 1.0
C      1  0.4745380000000  0.4711620000000  0.5548510000000 1.0
C      1  0.5659560000000  0.5686130000000  0.5227110000000 1.0
C      1  0.5386750000000  0.5002410000000  0.5277060000000 1.0
C      1  0.5071390000000  0.5233770000000  0.5893610000000 1.0
C      1  0.5841030000000  0.5220980000000  0.4923310000000 1.0
C      1  0.4821730000000  0.4014210000000  0.5368070000000 1.0
C      1  0.5590580000000  0.5150010000000  0.4843240000000 1.0
C      1  0.4800430000000  0.4028850000000  0.5915930000000 1.0
C      1  0.4258700000000  0.4855490000000  0.4875320000000 1.0
C      1  0.4542000000000  0.4088280000000  0.5950530000000 1.0
C      1  0.6144810000000  0.5009670000000  0.4448280000000 1.0
C      1  0.4203530000000  0.5127170000000  0.6189430000000 1.0
C      1  0.5588260000000  0.4573230000000  0.6037280000000 1.0
C      1  0.4634440000000  0.4601020000000  0.5307840000000 1.0
C      1  0.5244010000000  0.5014290000000  0.5989780000000 1.0
C      1  0.5560680000000  0.6174420000000  0.5112550000000 1.0
C      1  0.5458480000000  0.5238690000000  0.4385870000000 1.0
C      1  0.4717110000000  0.4917990000000  0.6175400000000 1.0
C      1  0.5723880000000  0.5659340000000  0.4412550000000 1.0
C      1  0.4821800000000  0.5912610000000  0.4539180000000 1.0
C      1  0.5065280000000  0.4015210000000  0.5509740000000 1.0
C      1  0.4788010000000  0.3867270000000  0.4375500000000 1.0
C      1  0.5960530000000  0.5283480000000  0.5384540000000 1.0
C      1  0.5484930000000  0.4795880000000  0.4548320000000 1.0
C      1  0.5281050000000  0.4341510000000  0.4280700000000 1.0
C      1  0.4540540000000  0.4314660000000  0.4624450000000 1.0
C      1  0.5529730000000  0.5686070000000  0.4203940000000 1.0
C      1  0.5037910000000  0.4430060000000  0.4698150000000 1.0
C      1  0.5297310000000  0.6246200000000  0.5043810000000 1.0
C      1  0.4541540000000  0.5004280000000  0.4478920000000 1.0
C      1  0.5966350000000  0.4317900000000  0.4746650000000 1.0
C      1  0.5130270000000  0.4974750000000  0.4873580000000 1.0
C      1  0.5390660000000  0.6112110000000  0.3646580000000 1.0
C      1  0.5201070000000  0.5289300000000  0.4340340000000 1.0
C      1  0.4673690000000  0.5696800000000  0.4490120000000 1.0
C      1  0.3881080000000  0.5334800000000  0.4726420000000 1.0
C      1  0.5525900000000  0.4320600000000  0.4417110000000 1.0
C      1  0.5461440000000  0.5529160000000  0.5398620000000 1.0
C      1  0.4392820000000  0.4597660000000  0.4148280000000 1.0
C      1  0.4926080000000  0.4679460000000  0.3992610000000 1.0
C      1  0.5916490000000  0.5543190000000  0.5313830000000 1.0
C      1  0.5495280000000  0.4474690000000  0.5004770000000 1.0
C      1  0.5433600000000  0.5437210000000  0.5663000000000 1.0
C      1  0.5610470000000  0.5266990000000  0.5802800000000 1.0
C      1  0.4876560000000  0.5384590000000  0.5199740000000 1.0
C      1  0.5633320000000  0.5671940000000  0.4922100000000 1.0
C      1  0.5298330000000  0.5944600000000  0.5752570000000 1.0
C      1  0.4797760000000  0.4648450000000  0.5058340000000 1.0
C      1  0.5572830000000  0.5065650000000  0.4571040000000 1.0
C      1  0.5858830000000  0.5031950000000  0.5389090000000 1.0
C      1  0.5599910000000  0.5975820000000  0.5316220000000 1.0
C      1  0.5944000000000  0.5486610000000  0.4368520000000 1.0
C      1  0.4923800000000  0.4693060000000  0.4282040000000 1.0
C      1  0.5530580000000  0.5048730000000  0.5961480000000 1.0
C      1  0.4356930000000  0.4208890000000  0.4844210000000 1.0
C      1  0.5570650000000  0.3831780000000  0.4414350000000 1.0
C      1  0.5126380000000  0.5749970000000  0.5865370000000 1.0
C      1  0.5688450000000  0.3987190000000  0.5006920000000 1.0
C      1  0.4460870000000  0.5259430000000  0.5013720000000 1.0
C      1  0.4156600000000  0.5278700000000  0.4325600000000 1.0
C      1  0.5688080000000  0.4824360000000  0.6025030000000 1.0
C      1  0.4910900000000  0.5819530000000  0.6017540000000 1.0
C      1  0.5069410000000  0.4477630000000  0.4419360000000 1.0
C      1  0.4583660000000  0.4103120000000  0.5254710000000 1.0
C      1  0.5055590000000  0.4508300000000  0.5147080000000 1.0
C      1  0.4335180000000  0.5078190000000  0.6424670000000 1.0
C      1  0.4062380000000  0.4237200000000  0.5894170000000 1.0
C      1  0.4398630000000  0.4832070000000  0.4648070000000 1.0
C      1  0.5191030000000  0.5479150000000  0.5809520000000 1.0
C      1  0.4338930000000  0.5983340000000  0.5099430000000 1.0
C      1  0.4725730000000  0.5177620000000  0.5081060000000 1.0
C      1  0.4804720000000  0.4942890000000  0.4383560000000 1.0
C      1  0.5380520000000  0.5901650000000  0.3799950000000 1.0
C      1  0.4236400000000  0.4774580000000  0.5856100000000 1.0
C      1  0.5252580000000  0.4322190000000  0.4001710000000 1.0
C      1  0.4361760000000  0.6474040000000  0.5298000000000 1.0
C      1  0.5197380000000  0.5463350000000  0.3880960000000 1.0
C      1  0.4905820000000  0.3672970000000  0.4247760000000 1.0
C      1  0.3932580000000  0.5397300000000  0.4456810000000 1.0
C      1  0.4943710000000  0.5629280000000  0.5260070000000 1.0
C      1  0.4612500000000  0.5080230000000  0.5945880000000 1.0
C      1  0.5223670000000  0.4266200000000  0.5906460000000 1.0
C      1  0.4947350000000  0.6094220000000  0.4687480000000 1.0
C      1  0.3979490000000  0.5231900000000  0.4953810000000 1.0
C      1  0.4341590000000  0.4280120000000  0.5912990000000 1.0
C      1  0.5226110000000  0.4427920000000  0.4930650000000 1.0
C      1  0.3772090000000  0.5574170000000  0.4323200000000 1.0
C      1  0.4479980000000  0.3995400000000  0.5005090000000 1.0
C      1  0.4324440000000  0.5033760000000  0.5946000000000 1.0
C      1  0.5221750000000  0.4812470000000  0.4660820000000 1.0
C      1  0.5645690000000  0.4569370000000  0.4499320000000 1.0
C      1  0.5090630000000  0.4490590000000  0.3866600000000 1.0
C      1  0.6093110000000  0.4762040000000  0.4534100000000 1.0
C      1  0.5007460000000  0.5288130000000  0.3800770000000 1.0
C      1  0.4416940000000  0.4456820000000  0.4379320000000 1.0
C      1  0.4132880000000  0.5159450000000  0.4072290000000 1.0
C      1  0.5755810000000  0.6213090000000  0.4912030000000 1.0
C      1  0.4445230000000  0.5505770000000  0.4868560000000 1.0
C      1  0.5369050000000  0.5676030000000  0.3967120000000 1.0
C      1  0.4507100000000  0.5219400000000  0.3758560000000 1.0
C      1  0.4424490000000  0.4551230000000  0.5867210000000 1.0
C      1  0.6088920000000  0.5262960000000  0.4384580000000 1.0
C      1  0.4866530000000  0.4941680000000  0.4992870000000 1.0
C      1  0.5156300000000  0.4972230000000  0.5437020000000 1.0
C      1  0.4318610000000  0.5048720000000  0.3896670000000 1.0
C      1  0.3885710000000  0.4437600000000  0.5843180000000 1.0
C      1  0.5621180000000  0.4074720000000  0.4527920000000 1.0
C      1  0.4456810000000  0.4798390000000  0.3956220000000 1.0
C      1  0.4367370000000  0.5743540000000  0.4990670000000 1.0
C      1  0.5780100000000  0.4102060000000  0.4766090000000 1.0
C      1  0.4697060000000  0.4608590000000  0.5812760000000 1.0
C      1  0.5314620000000  0.4513930000000  0.5998490000000 1.0
C      1  0.5483170000000  0.6014210000000  0.5571700000000 1.0
C      1  0.4896270000000  0.4955160000000  0.5551650000000 1.0
C      1  0.4463030000000  0.4375980000000  0.5278720000000 1.0
C      1  0.5799040000000  0.6054640000000  0.4697650000000 1.0
C      1  0.4223970000000  0.5101210000000  0.5006430000000 1.0
C      1  0.5515750000000  0.3946470000000  0.5208300000000 1.0
END
