TITL C-612607-4507-1307 0.0128074991473197 125000 -216.779683213464 0 0 37 (C1) n - 1
REM
REM in /home/nfs/bkarasulu/CARBON/AIRSS/Generating-Clusters/TERSOFF/Only-C1/FIRE-HFTN
REM
REM
REM
REM
REM
REM ./C.cell (11c1c37f851c82e70ff6c80c92926a4b)
REM AIRSS Version 0.9.1 bugfix July 2018 build 013d7b7c2542+ Fri, 06 Jul 2018 19:26:36 +0100
REM compiler GCC version 9.2.1 20190827 (Red Hat 9.2.1-1)
REM options -cpp -mtune=generic -march=x86-64 -g -O0 -fpre-include=/usr/include/finclude/math-vector-fortran.h
REM seed -391399775 -379901495 958973262 -1109691973 -1022761598 -1911797493 -80763932 1561741431 -407975343 -267393425 1585957172 744464544 -2127928572 1274236479 9808093 1404950699 1848498500 1346101651 -1362518679 -1814517471 1593278621 -182237903 -1037324552 7941050 648050467 28854474 -1644828463 1698051907 -804083551 -1902434005 1558883250 -297344322 1356265242
REM
CELL 1.54180   50.00000   50.00000   50.00000   90.00000   90.00000   90.00000
LATT -1
SFAC C  
C      1  0.5294510000000  0.4622730000000  0.4972750000000 1.0
C      1  0.5016310000000  0.4900460000000  0.4501850000000 1.0
C      1  0.5257910000000  0.5158540000000  0.5559290000000 1.0
C      1  0.5106380000000  0.4315460000000  0.4685150000000 1.0
C      1  0.4996280000000  0.5063900000000  0.5539800000000 1.0
C      1  0.4669140000000  0.4532190000000  0.5171000000000 1.0
C      1  0.6207380000000  0.5409880000000  0.5622200000000 1.0
C      1  0.4744080000000  0.4874580000000  0.4435720000000 1.0
C      1  0.4964990000000  0.5765640000000  0.4230000000000 1.0
C      1  0.4421300000000  0.4609610000000  0.4720510000000 1.0
C      1  0.4903810000000  0.4130510000000  0.5312460000000 1.0
C      1  0.5481480000000  0.4557080000000  0.4753970000000 1.0
C      1  0.4891530000000  0.5612060000000  0.4427310000000 1.0
C      1  0.5076600000000  0.5422580000000  0.5054390000000 1.0
C      1  0.4598860000000  0.5023430000000  0.5279530000000 1.0
C      1  0.4817940000000  0.5443730000000  0.4636210000000 1.0
C      1  0.5192070000000  0.4701270000000  0.4396970000000 1.0
C      1  0.4394360000000  0.5259700000000  0.4872680000000 1.0
C      1  0.4863550000000  0.5449340000000  0.5244710000000 1.0
C      1  0.5335420000000  0.5418510000000  0.5166070000000 1.0
C      1  0.5089490000000  0.4407160000000  0.4962050000000 1.0
C      1  0.4410390000000  0.5109290000000  0.5093210000000 1.0
C      1  0.4889630000000  0.4351130000000  0.5151740000000 1.0
C      1  0.5705710000000  0.5343660000000  0.5479910000000 1.0
C      1  0.4522310000000  0.4749570000000  0.4516780000000 1.0
C      1  0.5299710000000  0.4478090000000  0.4534820000000 1.0
C      1  0.5086860000000  0.5042510000000  0.4744220000000 1.0
C      1  0.5958570000000  0.5377040000000  0.5551640000000 1.0
C      1  0.4797600000000  0.5210310000000  0.5380940000000 1.0
C      1  0.5013150000000  0.5312820000000  0.4798220000000 1.0
C      1  0.4740510000000  0.5687570000000  0.5294090000000 1.0
C      1  0.4901570000000  0.4791680000000  0.5536730000000 1.0
C      1  0.4548610000000  0.5392760000000  0.4699580000000 1.0
C      1  0.5200390000000  0.4888290000000  0.4955060000000 1.0
C      1  0.4474780000000  0.4526230000000  0.4968420000000 1.0
C      1  0.4686070000000  0.4752620000000  0.5345760000000 1.0
C      1  0.5440760000000  0.5308070000000  0.5404240000000 1.0
END
