TITL C-612605-9286-5 -0.0309393399979134 125000 -439.836305737677 0 0 73 (C1) n - 1
REM
REM in /home/nfs/bkarasulu/CARBON/AIRSS/Generating-Clusters/TERSOFF/Only-C1/FIRE-HFTN
REM
REM
REM
REM
REM
REM ./C.cell (11c1c37f851c82e70ff6c80c92926a4b)
REM AIRSS Version 0.9.1 bugfix July 2018 build 013d7b7c2542+ Fri, 06 Jul 2018 19:26:36 +0100
REM compiler GCC version 9.2.1 20190827 (Red Hat 9.2.1-1)
REM options -cpp -mtune=generic -march=x86-64 -g -O0 -fpre-include=/usr/include/finclude/math-vector-fortran.h
REM seed 1196216318 -686250118 -121765679 -145596285 -220213186 -682202775 1155187844 -1842511469 -130965614 -1535699078 976468365 914769191 -193906445 -1622017164 1316830186 -701843871 1543087920 731995762 -1285920942 301283573 2136863341 633202017 -63766494 -144578786 -168151564 -525670548 243438686 -391734366 1156334774 1626484652 -454847455 -1917212209 -470684544
REM
CELL 1.54180   50.00000   50.00000   50.00000   90.00000   90.00000   90.00000
LATT -1
SFAC C  
C      1  0.5361950000000  0.5685380000000  0.4652730000000 1.0
C      1  0.4411490000000  0.5128100000000  0.5634370000000 1.0
C      1  0.5721090000000  0.5464210000000  0.5388720000000 1.0
C      1  0.4335500000000  0.4655120000000  0.4247460000000 1.0
C      1  0.5204760000000  0.3949280000000  0.5195180000000 1.0
C      1  0.5373350000000  0.4387130000000  0.5067630000000 1.0
C      1  0.4898220000000  0.5305900000000  0.5086380000000 1.0
C      1  0.5605420000000  0.5350250000000  0.5604270000000 1.0
C      1  0.5446220000000  0.5022260000000  0.4409120000000 1.0
C      1  0.5193330000000  0.4411350000000  0.4854500000000 1.0
C      1  0.4722380000000  0.5683970000000  0.4521110000000 1.0
C      1  0.5531480000000  0.4859220000000  0.5194560000000 1.0
C      1  0.5565520000000  0.4589290000000  0.5086060000000 1.0
C      1  0.4945750000000  0.5653800000000  0.5392650000000 1.0
C      1  0.5844810000000  0.5400620000000  0.4881090000000 1.0
C      1  0.5158260000000  0.5459340000000  0.5422250000000 1.0
C      1  0.4283600000000  0.4671500000000  0.5589280000000 1.0
C      1  0.4239390000000  0.5182630000000  0.4677200000000 1.0
C      1  0.4440340000000  0.4791900000000  0.4467530000000 1.0
C      1  0.4134400000000  0.4738380000000  0.4856730000000 1.0
C      1  0.5391670000000  0.5199250000000  0.4197740000000 1.0
C      1  0.4973970000000  0.4582100000000  0.4824390000000 1.0
C      1  0.4150470000000  0.4606290000000  0.5364300000000 1.0
C      1  0.5017680000000  0.5539620000000  0.4111540000000 1.0
C      1  0.5387260000000  0.5208550000000  0.4870160000000 1.0
C      1  0.4974150000000  0.4762710000000  0.4602060000000 1.0
C      1  0.5310770000000  0.4202020000000  0.5272900000000 1.0
C      1  0.5798750000000  0.5491890000000  0.5131930000000 1.0
C      1  0.5221580000000  0.4869260000000  0.4504930000000 1.0
C      1  0.4625850000000  0.4807300000000  0.5083540000000 1.0
C      1  0.4640550000000  0.5456400000000  0.4670230000000 1.0
C      1  0.4940930000000  0.3913120000000  0.5139900000000 1.0
C      1  0.5183940000000  0.4318910000000  0.5498020000000 1.0
C      1  0.4096850000000  0.4636060000000  0.5102440000000 1.0
C      1  0.4720400000000  0.4819340000000  0.4492660000000 1.0
C      1  0.4749800000000  0.4105180000000  0.5156190000000 1.0
C      1  0.5839120000000  0.4748450000000  0.4520340000000 1.0
C      1  0.4468940000000  0.5460350000000  0.5252850000000 1.0
C      1  0.4735830000000  0.4328780000000  0.5934880000000 1.0
C      1  0.4130340000000  0.4395240000000  0.3839230000000 1.0
C      1  0.5810670000000  0.4529590000000  0.4952680000000 1.0
C      1  0.4412250000000  0.5206610000000  0.5364700000000 1.0
C      1  0.4471740000000  0.4995510000000  0.5187260000000 1.0
C      1  0.4956860000000  0.4956680000000  0.5801530000000 1.0
C      1  0.4783040000000  0.4375670000000  0.5238380000000 1.0
C      1  0.5779550000000  0.4946670000000  0.5309730000000 1.0
C      1  0.4907990000000  0.6078070000000  0.5124880000000 1.0
C      1  0.5868840000000  0.5157920000000  0.4735460000000 1.0
C      1  0.4829640000000  0.5648380000000  0.4265320000000 1.0
C      1  0.4822850000000  0.6069230000000  0.4871740000000 1.0
C      1  0.5137260000000  0.5229620000000  0.5240610000000 1.0
C      1  0.5956930000000  0.4691030000000  0.4775880000000 1.0
C      1  0.4915320000000  0.4410940000000  0.5493600000000 1.0
C      1  0.4963020000000  0.5927110000000  0.5339710000000 1.0
C      1  0.4468160000000  0.4858120000000  0.5701720000000 1.0
C      1  0.5428150000000  0.5202440000000  0.5744220000000 1.0
C      1  0.6011750000000  0.4975600000000  0.5170650000000 1.0
C      1  0.6019830000000  0.4953160000000  0.4887870000000 1.0
C      1  0.4372010000000  0.5415700000000  0.4761860000000 1.0
C      1  0.4795380000000  0.4502570000000  0.5732060000000 1.0
C      1  0.4738480000000  0.4780670000000  0.5758850000000 1.0
C      1  0.5711370000000  0.5011230000000  0.4520610000000 1.0
C      1  0.4747300000000  0.5506070000000  0.5243250000000 1.0
C      1  0.4232340000000  0.4524120000000  0.4041590000000 1.0
C      1  0.5343540000000  0.5070980000000  0.5116340000000 1.0
C      1  0.5228670000000  0.5379010000000  0.4088340000000 1.0
C      1  0.5200310000000  0.5071100000000  0.5803100000000 1.0
C      1  0.4320110000000  0.5526760000000  0.5019260000000 1.0
C      1  0.4786770000000  0.4585030000000  0.5042160000000 1.0
C      1  0.4259560000000  0.4901330000000  0.4661550000000 1.0
C      1  0.5360400000000  0.5438010000000  0.4735550000000 1.0
C      1  0.4834730000000  0.5306310000000  0.4812940000000 1.0
C      1  0.4749070000000  0.5928320000000  0.4657560000000 1.0
END
