TITL C-612601-4209-423 -0.328935485007133 125000 -793.120897349926 0 0 128 (C1) n - 1
REM
REM in /home/nfs/bkarasulu/CARBON/AIRSS/Generating-Clusters/TERSOFF/Only-C1/FIRE-HFTN
REM
REM
REM
REM
REM
REM ./C.cell (11c1c37f851c82e70ff6c80c92926a4b)
REM AIRSS Version 0.9.1 bugfix July 2018 build 013d7b7c2542+ Fri, 06 Jul 2018 19:26:36 +0100
REM compiler GCC version 9.2.1 20190827 (Red Hat 9.2.1-1)
REM options -cpp -mtune=generic -march=x86-64 -g -O0 -fpre-include=/usr/include/finclude/math-vector-fortran.h
REM seed 1380965031 182792652 1528701516 153698189 1875512687 -1572885965 -1440006056 -1467049514 980907749 2021222666 -1150073731 215251140 1017892949 843101106 1874059034 671223865 2040463145 -321796095 -399915870 -1689506297 2025707845 -1221088359 -2003765823 1953740017 -1587547433 101305596 -94403776 50539955 -1486997631 -177519044 464576863 -2019162495 -1704149370
REM
CELL 1.54180   50.00000   50.00000   50.00000   90.00000   90.00000   90.00000
LATT -1
SFAC C  
C      1  0.5137180000000  0.4255870000000  0.5005580000000 1.0
C      1  0.5834290000000  0.4328140000000  0.4636150000000 1.0
C      1  0.4863710000000  0.5362560000000  0.4394290000000 1.0
C      1  0.5981630000000  0.4913820000000  0.5045390000000 1.0
C      1  0.5268540000000  0.5882600000000  0.4370160000000 1.0
C      1  0.5070240000000  0.5363260000000  0.4198060000000 1.0
C      1  0.5371270000000  0.3856330000000  0.5384570000000 1.0
C      1  0.5446490000000  0.5728900000000  0.4211380000000 1.0
C      1  0.4210070000000  0.5096810000000  0.4310340000000 1.0
C      1  0.4986470000000  0.5464160000000  0.5830320000000 1.0
C      1  0.4824010000000  0.5914660000000  0.5348640000000 1.0
C      1  0.5714450000000  0.5855950000000  0.5365270000000 1.0
C      1  0.4027440000000  0.5435270000000  0.5165160000000 1.0
C      1  0.5510140000000  0.6446900000000  0.4781300000000 1.0
C      1  0.4905580000000  0.5449910000000  0.5101270000000 1.0
C      1  0.4335730000000  0.5694750000000  0.4681820000000 1.0
C      1  0.4079530000000  0.4581510000000  0.4187940000000 1.0
C      1  0.5679460000000  0.5661240000000  0.5562450000000 1.0
C      1  0.5696620000000  0.4105500000000  0.4572110000000 1.0
C      1  0.5581120000000  0.4533780000000  0.5758560000000 1.0
C      1  0.5157130000000  0.5598500000000  0.5140360000000 1.0
C      1  0.5516000000000  0.4643790000000  0.4771340000000 1.0
C      1  0.4090030000000  0.4424740000000  0.4642770000000 1.0
C      1  0.4800360000000  0.4621320000000  0.5251970000000 1.0
C      1  0.5388880000000  0.5199860000000  0.5860260000000 1.0
C      1  0.5960400000000  0.4812150000000  0.4779190000000 1.0
C      1  0.4730540000000  0.5063230000000  0.5949220000000 1.0
C      1  0.4515560000000  0.5691630000000  0.4899050000000 1.0
C      1  0.3871590000000  0.4846160000000  0.4536010000000 1.0
C      1  0.4356380000000  0.5322990000000  0.5544260000000 1.0
C      1  0.5693210000000  0.5598910000000  0.4170200000000 1.0
C      1  0.6041810000000  0.4963230000000  0.4553310000000 1.0
C      1  0.5528530000000  0.4020660000000  0.5215880000000 1.0
C      1  0.5503830000000  0.5254130000000  0.4680990000000 1.0
C      1  0.4888500000000  0.5557300000000  0.4603510000000 1.0
C      1  0.4211770000000  0.4285890000000  0.5122510000000 1.0
C      1  0.5368340000000  0.5411060000000  0.5106460000000 1.0
C      1  0.5092610000000  0.4821520000000  0.5741990000000 1.0
C      1  0.5157200000000  0.4614500000000  0.5555730000000 1.0
C      1  0.4356130000000  0.4518050000000  0.4140230000000 1.0
C      1  0.5071660000000  0.4688020000000  0.5297670000000 1.0
C      1  0.5273050000000  0.5451270000000  0.5818410000000 1.0
C      1  0.4422730000000  0.4414500000000  0.5535760000000 1.0
C      1  0.5066140000000  0.5768880000000  0.4532580000000 1.0
C      1  0.4400400000000  0.4058110000000  0.4554480000000 1.0
C      1  0.4128890000000  0.5222430000000  0.5005490000000 1.0
C      1  0.5413630000000  0.4202300000000  0.5051100000000 1.0
C      1  0.4044000000000  0.4680520000000  0.5443060000000 1.0
C      1  0.4028460000000  0.5077190000000  0.4524860000000 1.0
C      1  0.4456230000000  0.4840070000000  0.4980880000000 1.0
C      1  0.4473810000000  0.5104210000000  0.4281150000000 1.0
C      1  0.4329810000000  0.4788610000000  0.6184410000000 1.0
C      1  0.4762360000000  0.5545040000000  0.4867550000000 1.0
C      1  0.5152600000000  0.4883160000000  0.4561650000000 1.0
C      1  0.5238980000000  0.3838300000000  0.4602850000000 1.0
C      1  0.4345050000000  0.5060990000000  0.5113010000000 1.0
C      1  0.5545340000000  0.6268490000000  0.4556410000000 1.0
C      1  0.4874230000000  0.5318150000000  0.5360020000000 1.0
C      1  0.5734850000000  0.5360740000000  0.4021900000000 1.0
C      1  0.4497080000000  0.3958830000000  0.4799440000000 1.0
C      1  0.5902450000000  0.5909280000000  0.4480270000000 1.0
C      1  0.4073720000000  0.5265000000000  0.4727160000000 1.0
C      1  0.4737350000000  0.3806820000000  0.4773980000000 1.0
C      1  0.5292810000000  0.5217810000000  0.4247960000000 1.0
C      1  0.5340670000000  0.6153130000000  0.4405630000000 1.0
C      1  0.6193070000000  0.5475780000000  0.4699300000000 1.0
C      1  0.4033360000000  0.4924540000000  0.5567510000000 1.0
C      1  0.4503990000000  0.4515920000000  0.4392040000000 1.0
C      1  0.4727080000000  0.5116060000000  0.4395800000000 1.0
C      1  0.5754540000000  0.5855000000000  0.5088140000000 1.0
C      1  0.4792520000000  0.4539620000000  0.4780200000000 1.0
C      1  0.4722800000000  0.4640390000000  0.4521200000000 1.0
C      1  0.4683340000000  0.4114820000000  0.5197430000000 1.0
C      1  0.4747570000000  0.5071300000000  0.5443620000000 1.0
C      1  0.4851440000000  0.5308230000000  0.6027580000000 1.0
C      1  0.5063190000000  0.4459890000000  0.4817230000000 1.0
C      1  0.5471180000000  0.3668360000000  0.5553210000000 1.0
C      1  0.4531130000000  0.4933660000000  0.6091750000000 1.0
C      1  0.4037340000000  0.4362390000000  0.4910640000000 1.0
C      1  0.5852230000000  0.5151990000000  0.5526620000000 1.0
C      1  0.5320320000000  0.4932260000000  0.5870870000000 1.0
C      1  0.4563700000000  0.5791290000000  0.5380700000000 1.0
C      1  0.4840570000000  0.4959120000000  0.5703600000000 1.0
C      1  0.4872020000000  0.4880770000000  0.4468190000000 1.0
C      1  0.5095850000000  0.3914790000000  0.5354290000000 1.0
C      1  0.4989550000000  0.3782940000000  0.4684440000000 1.0
C      1  0.4119780000000  0.4638000000000  0.6243220000000 1.0
C      1  0.4662700000000  0.4511620000000  0.5471670000000 1.0
C      1  0.4668530000000  0.4658520000000  0.5004160000000 1.0
C      1  0.4132680000000  0.5526480000000  0.4632850000000 1.0
C      1  0.5583140000000  0.4804900000000  0.5828490000000 1.0
C      1  0.5338000000000  0.5101300000000  0.4502890000000 1.0
C      1  0.4414930000000  0.4298400000000  0.3970550000000 1.0
C      1  0.5213360000000  0.4902940000000  0.5185460000000 1.0
C      1  0.4399370000000  0.5764200000000  0.5152260000000 1.0
C      1  0.5731670000000  0.5019850000000  0.5740410000000 1.0
C      1  0.4474970000000  0.5122300000000  0.5362800000000 1.0
C      1  0.5886550000000  0.5155120000000  0.4115600000000 1.0
C      1  0.5325690000000  0.5144850000000  0.5194600000000 1.0
C      1  0.5447330000000  0.5648750000000  0.5721340000000 1.0
C      1  0.5785330000000  0.5598670000000  0.4962840000000 1.0
C      1  0.4124310000000  0.5175730000000  0.5638980000000 1.0
C      1  0.6024800000000  0.5170900000000  0.4362610000000 1.0
C      1  0.4131420000000  0.5682720000000  0.5196440000000 1.0
C      1  0.5909440000000  0.5659890000000  0.4350830000000 1.0
C      1  0.5843670000000  0.5432590000000  0.5543750000000 1.0
C      1  0.4543020000000  0.5563790000000  0.5567810000000 1.0
C      1  0.6074990000000  0.5442260000000  0.4446780000000 1.0
C      1  0.4194820000000  0.4444020000000  0.5371380000000 1.0
C      1  0.5480930000000  0.3946080000000  0.4560270000000 1.0
C      1  0.5561140000000  0.5431620000000  0.4899370000000 1.0
C      1  0.4344560000000  0.4333930000000  0.4553730000000 1.0
C      1  0.5074730000000  0.5847370000000  0.5257240000000 1.0
C      1  0.5246510000000  0.4654200000000  0.4709410000000 1.0
C      1  0.5761800000000  0.6085780000000  0.4643390000000 1.0
C      1  0.3962280000000  0.4594040000000  0.4451880000000 1.0
C      1  0.5763150000000  0.6090520000000  0.4937540000000 1.0
C      1  0.5366460000000  0.4439030000000  0.5622800000000 1.0
C      1  0.4828990000000  0.5489320000000  0.5596490000000 1.0
C      1  0.4963150000000  0.4101450000000  0.5184240000000 1.0
C      1  0.3910580000000  0.4489090000000  0.6288130000000 1.0
C      1  0.4415550000000  0.3934920000000  0.4300590000000 1.0
C      1  0.5635740000000  0.6342060000000  0.5004690000000 1.0
C      1  0.5937930000000  0.5019340000000  0.5289680000000 1.0
C      1  0.4431120000000  0.4040030000000  0.4051720000000 1.0
C      1  0.4441800000000  0.4106040000000  0.5048480000000 1.0
C      1  0.6050300000000  0.5515710000000  0.4922210000000 1.0
C      1  0.5786940000000  0.4589160000000  0.4732410000000 1.0
END
