TITL C-612607-4507-675 105372.063585808 125000 -795.162524024393 0 0 136 (C1) n - 1
REM
REM in /home/nfs/bkarasulu/CARBON/AIRSS/Generating-Clusters/TERSOFF/Only-C1/FIRE-HFTN
REM
REM
REM
REM
REM
REM ./C.cell (11c1c37f851c82e70ff6c80c92926a4b)
REM AIRSS Version 0.9.1 bugfix July 2018 build 013d7b7c2542+ Fri, 06 Jul 2018 19:26:36 +0100
REM compiler GCC version 9.2.1 20190827 (Red Hat 9.2.1-1)
REM options -cpp -mtune=generic -march=x86-64 -g -O0 -fpre-include=/usr/include/finclude/math-vector-fortran.h
REM seed 170646167 780072628 -924317764 926454647 1005730712 -572121041 1527094153 -1825374960 -1154457446 -1750964757 -637248207 1001389352 2117117373 1681682235 2137776168 150253190 2079481318 1062476468 2125541843 2130763750 -882259583 -1232573967 1191938424 179892619 -1363526093 -609392500 -1793454018 -1818436895 -1300088342 -95904742 -1536629328 -613765815 852641911
REM
CELL 1.54180   50.00000   50.00000   50.00000   90.00000   90.00000   90.00000
LATT -1
SFAC C  
C      1  0.5612280000000  0.4753540000000  0.5636040000000 1.0
C      1  0.4723080000000  0.4624450000000  0.5364010000000 1.0
C      1  0.5389800000000  0.5550030000000  0.3974390000000 1.0
C      1  0.5029030000000  0.5179480000000  0.3880600000000 1.0
C      1  0.4842820000000  0.4467800000000  0.4185350000000 1.0
C      1  0.4117100000000  0.5299590000000  0.5121730000000 1.0
C      1  0.4793710000000  0.4450000000000  0.5167150000000 1.0
C      1  0.4688690000000  0.4558230000000  0.4717860000000 1.0
C      1  0.4934740000000  0.5856270000000  0.5029110000000 1.0
C      1  0.5090450000000  0.4274660000000  0.6080000000000 1.0
C      1  0.5588070000000  0.5618630000000  0.4142510000000 1.0
C      1  0.5297200000000  0.5312390000000  0.4714640000000 1.0
C      1  0.4537310000000  0.5168610000000  0.4393950000000 1.0
C      1  0.4599700000000  0.4800100000000  0.4854350000000 1.0
C      1  0.4006540000000  0.5139290000000  0.4906670000000 1.0
C      1  0.4756930000000  0.4888880000000  0.5462170000000 1.0
C      1  0.4294360000000  0.5016500000000  0.4440430000000 1.0
C      1  0.4683910000000  0.5248370000000  0.5134760000000 1.0
C      1  0.4840350000000  0.4162250000000  0.5610180000000 1.0
C      1  0.5809180000000  0.4975300000000  0.5704900000000 1.0
C      1  0.6350880000000  0.4797200000000  0.5376060000000 1.0
C      1  0.4123850000000  0.5314500000000  0.5609550000000 1.0
C      1  0.6524970000000  0.4990750000000  0.5390700000000 1.0
C      1  0.5910620000000  0.4524830000000  0.5232790000000 1.0
C      1  0.4258090000000  0.4835780000000  0.4211520000000 1.0
C      1  0.4289500000000  0.5026210000000  0.3971180000000 1.0
C      1  0.4848480000000  0.5803460000000  0.4465440000000 1.0
C      1  0.4291260000000  0.4900780000000  0.5367360000000 1.0
C      1  0.4751190000000  0.6024220000000  0.5449830000000 1.0
C      1  0.5157580000000  0.4505510000000  0.5462780000000 1.0
C      1  0.4852740000000  0.4673070000000  0.5957420000000 1.0
C      1  0.4385680000000  0.4556260000000  0.4204170000000 1.0
C      1  0.4705060000000  0.3921920000000  0.5051940000000 1.0
C      1  0.5357970000000  0.5152390000000  0.5746950000000 1.0
C      1  0.5618000000000  0.4940580000000  0.4957300000000 1.0
C      1  0.5670930000000  0.4121600000000  0.4700340000000 1.0
C      1  0.5406020000000  0.4775180000000  0.4869750000000 1.0
C      1  0.4274520000000  0.5526380000000  0.5691480000000 1.0
C      1  0.5269170000000  0.5230830000000  0.4436170000000 1.0
C      1  0.3762360000000  0.4654270000000  0.5414000000000 1.0
C      1  0.5681270000000  0.6131510000000  0.4746720000000 1.0
C      1  0.5361830000000  0.4554470000000  0.5044650000000 1.0
C      1  0.4909400000000  0.4954280000000  0.4003870000000 1.0
C      1  0.3995240000000  0.5839640000000  0.4660560000000 1.0
C      1  0.5467210000000  0.5994720000000  0.4843240000000 1.0
C      1  0.4830360000000  0.5249740000000  0.4889560000000 1.0
C      1  0.5704690000000  0.5847580000000  0.5243500000000 1.0
C      1  0.5402600000000  0.4587380000000  0.4399310000000 1.0
C      1  0.4731140000000  0.5822760000000  0.5665540000000 1.0
C      1  0.5008940000000  0.5721640000000  0.5737300000000 1.0
C      1  0.4416190000000  0.4823330000000  0.5093470000000 1.0
C      1  0.4129630000000  0.5149310000000  0.5374970000000 1.0
C      1  0.5910780000000  0.6017810000000  0.5138380000000 1.0
C      1  0.5142020000000  0.4949040000000  0.5163710000000 1.0
C      1  0.4832680000000  0.4394530000000  0.6022260000000 1.0
C      1  0.5096350000000  0.5508240000000  0.5952870000000 1.0
C      1  0.4864110000000  0.5320090000000  0.5957930000000 1.0
C      1  0.4477510000000  0.5612960000000  0.4623590000000 1.0
C      1  0.5495080000000  0.3966460000000  0.4835230000000 1.0
C      1  0.4366660000000  0.4787740000000  0.5705850000000 1.0
C      1  0.4495810000000  0.3994990000000  0.4877990000000 1.0
C      1  0.4625930000000  0.4852800000000  0.5937530000000 1.0
C      1  0.5643980000000  0.5368040000000  0.6002810000000 1.0
C      1  0.5906060000000  0.6146810000000  0.4899130000000 1.0
C      1  0.4676740000000  0.5466510000000  0.4759300000000 1.0
C      1  0.5404360000000  0.4875360000000  0.4060130000000 1.0
C      1  0.5742830000000  0.5338400000000  0.4540050000000 1.0
C      1  0.5508630000000  0.5286890000000  0.5278180000000 1.0
C      1  0.3905910000000  0.4599000000000  0.5633670000000 1.0
C      1  0.5817250000000  0.5261250000000  0.5787210000000 1.0
C      1  0.5128160000000  0.5234070000000  0.4933710000000 1.0
C      1  0.4254000000000  0.5557330000000  0.5135420000000 1.0
C      1  0.4695690000000  0.4794750000000  0.3883500000000 1.0
C      1  0.3805240000000  0.4956760000000  0.4992980000000 1.0
C      1  0.4690550000000  0.4235030000000  0.5829470000000 1.0
C      1  0.5714080000000  0.5081840000000  0.4401590000000 1.0
C      1  0.4334730000000  0.5313490000000  0.4020030000000 1.0
C      1  0.5815380000000  0.4825510000000  0.4464540000000 1.0
C      1  0.4885500000000  0.3982580000000  0.4632020000000 1.0
C      1  0.5763540000000  0.4390150000000  0.4706720000000 1.0
C      1  0.4691530000000  0.5895060000000  0.5190330000000 1.0
C      1  0.4975560000000  0.5031530000000  0.5354150000000 1.0
C      1  0.4829830000000  0.5286590000000  0.5678240000000 1.0
C      1  0.5452090000000  0.4325840000000  0.5169090000000 1.0
C      1  0.5322520000000  0.5274720000000  0.5491640000000 1.0
C      1  0.4611950000000  0.5650590000000  0.4365440000000 1.0
C      1  0.5738180000000  0.5558620000000  0.4359130000000 1.0
C      1  0.4776840000000  0.5042170000000  0.4460650000000 1.0
C      1  0.4540480000000  0.5267580000000  0.5351340000000 1.0
C      1  0.4872060000000  0.4419280000000  0.4896770000000 1.0
C      1  0.5892040000000  0.4468710000000  0.4951390000000 1.0
C      1  0.5092380000000  0.4148150000000  0.4528470000000 1.0
C      1  0.5878840000000  0.5461920000000  0.5593600000000 1.0
C      1  0.5453570000000  0.5076370000000  0.4266550000000 1.0
C      1  0.4468840000000  0.4922110000000  0.3775080000000 1.0
C      1  0.4689810000000  0.5112260000000  0.6064670000000 1.0
C      1  0.5242100000000  0.4218100000000  0.5856110000000 1.0
C      1  0.4807280000000  0.4995650000000  0.4746240000000 1.0
C      1  0.4456750000000  0.5718840000000  0.5268660000000 1.0
C      1  0.5359170000000  0.5358770000000  0.5953280000000 1.0
C      1  0.5164320000000  0.5770990000000  0.5490230000000 1.0
C      1  0.4125940000000  0.5089340000000  0.4654340000000 1.0
C      1  0.5787000000000  0.5663520000000  0.5440890000000 1.0
C      1  0.5095100000000  0.4361060000000  0.4718910000000 1.0
C      1  0.5139790000000  0.4675580000000  0.4514520000000 1.0
C      1  0.5626080000000  0.5215440000000  0.5028080000000 1.0
C      1  0.4627700000000  0.4559230000000  0.4033150000000 1.0
C      1  0.5294650000000  0.4039160000000  0.5020520000000 1.0
C      1  0.4479730000000  0.5685390000000  0.5574600000000 1.0
C      1  0.5676790000000  0.4499870000000  0.5399270000000 1.0
C      1  0.3727540000000  0.4782490000000  0.5181400000000 1.0
C      1  0.4586880000000  0.4070580000000  0.4605340000000 1.0
C      1  0.5446190000000  0.5872440000000  0.5101670000000 1.0
C      1  0.5116260000000  0.4397620000000  0.4103760000000 1.0
C      1  0.5038350000000  0.5275940000000  0.5479230000000 1.0
C      1  0.4805960000000  0.4546790000000  0.4455220000000 1.0
C      1  0.5206820000000  0.4680580000000  0.5244020000000 1.0
C      1  0.5358860000000  0.4863120000000  0.5762520000000 1.0
C      1  0.5111140000000  0.4263140000000  0.5602920000000 1.0
C      1  0.5122250000000  0.4758530000000  0.5886060000000 1.0
C      1  0.4137180000000  0.4641910000000  0.5764780000000 1.0
C      1  0.4430900000000  0.4275710000000  0.4415870000000 1.0
C      1  0.4971680000000  0.3938520000000  0.4929640000000 1.0
C      1  0.4615330000000  0.5122410000000  0.5579090000000 1.0
C      1  0.4929460000000  0.5861530000000  0.4730880000000 1.0
C      1  0.4519010000000  0.5407670000000  0.4223670000000 1.0
C      1  0.5182030000000  0.5823550000000  0.5203760000000 1.0
C      1  0.5335640000000  0.4598720000000  0.4113370000000 1.0
C      1  0.5192940000000  0.5392360000000  0.3881980000000 1.0
C      1  0.6148100000000  0.4632020000000  0.5332650000000 1.0
C      1  0.5578250000000  0.5356100000000  0.4780820000000 1.0
C      1  0.4228240000000  0.5722850000000  0.4667740000000 1.0
C      1  0.5163090000000  0.4844470000000  0.4734360000000 1.0
C      1  0.5669230000000  0.4583500000000  0.4512050000000 1.0
C      1  0.4952100000000  0.4919680000000  0.4286490000000 1.0
C      1  0.5175560000000  0.4160390000000  0.4259320000000 1.0
END
