TITL C-612603-7354-274 -0.00246543191368535 125000 -419.31054873924 0 0 69 (C1) n - 1
REM
REM in /home/nfs/bkarasulu/CARBON/AIRSS/Generating-Clusters/TERSOFF/Only-C1/FIRE-HFTN
REM
REM
REM
REM
REM
REM ./C.cell (11c1c37f851c82e70ff6c80c92926a4b)
REM AIRSS Version 0.9.1 bugfix July 2018 build 013d7b7c2542+ Fri, 06 Jul 2018 19:26:36 +0100
REM compiler GCC version 9.2.1 20190827 (Red Hat 9.2.1-1)
REM options -cpp -mtune=generic -march=x86-64 -g -O0 -fpre-include=/usr/include/finclude/math-vector-fortran.h
REM seed -969425139 1706937449 1388539760 423345175 -1213420286 13450337 -33368319 674562978 278885507 2096038241 -1830433103 -636724550 -1045032211 205400970 -1279000710 2047634629 -293092141 -2006415699 -579630196 -636732630 -704909563 -920136665 -2142651972 -386099526 -1270399443 481274063 1588685609 -1426391399 560769291 814542267 1875112367 484069690 -1277716509
REM
CELL 1.54180   50.00000   50.00000   50.00000   90.00000   90.00000   90.00000
LATT -1
SFAC C  
C      1  0.4411270000000  0.5435020000000  0.4430910000000 1.0
C      1  0.5220180000000  0.5233160000000  0.5079170000000 1.0
C      1  0.5679450000000  0.5442050000000  0.5587910000000 1.0
C      1  0.5111250000000  0.5076080000000  0.5876320000000 1.0
C      1  0.5543200000000  0.4376370000000  0.4350700000000 1.0
C      1  0.5360690000000  0.5745560000000  0.5342010000000 1.0
C      1  0.5326040000000  0.4656260000000  0.5747280000000 1.0
C      1  0.4832540000000  0.5428810000000  0.4150650000000 1.0
C      1  0.4367360000000  0.5335440000000  0.4672940000000 1.0
C      1  0.4352220000000  0.4506910000000  0.5135730000000 1.0
C      1  0.5507310000000  0.5005450000000  0.5463610000000 1.0
C      1  0.4395480000000  0.4918340000000  0.4909590000000 1.0
C      1  0.4437240000000  0.5199870000000  0.4909100000000 1.0
C      1  0.4445620000000  0.5626260000000  0.5175100000000 1.0
C      1  0.5104120000000  0.5058830000000  0.4887860000000 1.0
C      1  0.5253350000000  0.5502940000000  0.5950460000000 1.0
C      1  0.5722200000000  0.5049850000000  0.4155810000000 1.0
C      1  0.4625200000000  0.5803020000000  0.5305730000000 1.0
C      1  0.3690270000000  0.5812450000000  0.4975140000000 1.0
C      1  0.5405500000000  0.4535710000000  0.5284460000000 1.0
C      1  0.5447090000000  0.4723350000000  0.5499950000000 1.0
C      1  0.4416420000000  0.4420770000000  0.5397010000000 1.0
C      1  0.5038170000000  0.4520810000000  0.4173890000000 1.0
C      1  0.4897670000000  0.5256210000000  0.5794990000000 1.0
C      1  0.6094200000000  0.4483310000000  0.3827350000000 1.0
C      1  0.4548560000000  0.4602930000000  0.5572940000000 1.0
C      1  0.4793370000000  0.4697140000000  0.5471310000000 1.0
C      1  0.4170830000000  0.4908800000000  0.5594220000000 1.0
C      1  0.4545350000000  0.5359550000000  0.5124140000000 1.0
C      1  0.5007980000000  0.4278190000000  0.5054640000000 1.0
C      1  0.4762750000000  0.4290950000000  0.4937380000000 1.0
C      1  0.4947750000000  0.4865320000000  0.5016610000000 1.0
C      1  0.5163900000000  0.5085000000000  0.4617830000000 1.0
C      1  0.5902180000000  0.4580710000000  0.4003690000000 1.0
C      1  0.5093280000000  0.5670010000000  0.5300870000000 1.0
C      1  0.4872700000000  0.5791210000000  0.5441620000000 1.0
C      1  0.5607280000000  0.4440660000000  0.5116930000000 1.0
C      1  0.5549940000000  0.5203260000000  0.5673060000000 1.0
C      1  0.5440700000000  0.5126370000000  0.5216420000000 1.0
C      1  0.5069810000000  0.5324730000000  0.4208490000000 1.0
C      1  0.5588110000000  0.5657280000000  0.5453970000000 1.0
C      1  0.5356770000000  0.5240410000000  0.5880140000000 1.0
C      1  0.5148920000000  0.4800140000000  0.5890510000000 1.0
C      1  0.6274040000000  0.4391850000000  0.3662380000000 1.0
C      1  0.4957350000000  0.4700930000000  0.5244370000000 1.0
C      1  0.4111480000000  0.4902580000000  0.5330420000000 1.0
C      1  0.4538720000000  0.4462320000000  0.4916500000000 1.0
C      1  0.4374020000000  0.4775320000000  0.5714660000000 1.0
C      1  0.4757490000000  0.5219650000000  0.5553300000000 1.0
C      1  0.5671440000000  0.4360380000000  0.4871690000000 1.0
C      1  0.5735870000000  0.4409590000000  0.4150280000000 1.0
C      1  0.5001210000000  0.4491660000000  0.3904200000000 1.0
C      1  0.3935740000000  0.5760260000000  0.5045680000000 1.0
C      1  0.5250610000000  0.5186990000000  0.4371420000000 1.0
C      1  0.4841200000000  0.4646160000000  0.4328760000000 1.0
C      1  0.5134580000000  0.4479420000000  0.5209570000000 1.0
C      1  0.5034500000000  0.5408130000000  0.5202730000000 1.0
C      1  0.4776550000000  0.5298020000000  0.5281720000000 1.0
C      1  0.4185410000000  0.5702560000000  0.5112950000000 1.0
C      1  0.4536150000000  0.4709870000000  0.4758480000000 1.0
C      1  0.4665210000000  0.4721730000000  0.4512730000000 1.0
C      1  0.4977470000000  0.5533020000000  0.5866820000000 1.0
C      1  0.5864500000000  0.4855170000000  0.4044460000000 1.0
C      1  0.4244260000000  0.4780520000000  0.5115020000000 1.0
C      1  0.4582900000000  0.5472310000000  0.4231290000000 1.0
C      1  0.5273750000000  0.4426540000000  0.4293160000000 1.0
C      1  0.5513300000000  0.5150980000000  0.4284150000000 1.0
C      1  0.5627000000000  0.4325150000000  0.4612400000000 1.0
C      1  0.4881050000000  0.5753450000000  0.5722370000000 1.0
END
