TITL C-612604-1799-1135 0.257912948892333 125000 -757.457353980492 0 0 126 (C1) n - 1
REM
REM in /home/nfs/bkarasulu/CARBON/AIRSS/Generating-Clusters/TERSOFF/Only-C1/FIRE-HFTN
REM
REM
REM
REM
REM
REM ./C.cell (11c1c37f851c82e70ff6c80c92926a4b)
REM AIRSS Version 0.9.1 bugfix July 2018 build 013d7b7c2542+ Fri, 06 Jul 2018 19:26:36 +0100
REM compiler GCC version 9.2.1 20190827 (Red Hat 9.2.1-1)
REM options -cpp -mtune=generic -march=x86-64 -g -O0 -fpre-include=/usr/include/finclude/math-vector-fortran.h
REM seed 65889150 1584904880 -2054016089 242008547 -154666255 -1227067786 -751725930 -517308304 805341267 -1660317649 339015467 -1146526610 1858167 1440168077 2127589591 -2023394868 -187679651 954941211 -437343248 -633112193 421655462 -317256553 -1930254587 280671642 -597618500 -1284368491 1682884073 1636698712 683860682 -1648390211 1917741365 -1723090990 2037394937
REM
CELL 1.54180   50.00000   50.00000   50.00000   90.00000   90.00000   90.00000
LATT -1
SFAC C  
C      1  0.5724200000000  0.3513700000000  0.4979870000000 1.0
C      1  0.5582870000000  0.5718890000000  0.5870550000000 1.0
C      1  0.5803470000000  0.5778060000000  0.5365130000000 1.0
C      1  0.5205160000000  0.4289250000000  0.5330180000000 1.0
C      1  0.4514640000000  0.5450720000000  0.4181690000000 1.0
C      1  0.5496500000000  0.5466890000000  0.5983860000000 1.0
C      1  0.4404840000000  0.4945060000000  0.6032360000000 1.0
C      1  0.4600490000000  0.5738250000000  0.5328540000000 1.0
C      1  0.5041680000000  0.4887910000000  0.4701300000000 1.0
C      1  0.4276450000000  0.4440110000000  0.6098820000000 1.0
C      1  0.5984020000000  0.4925380000000  0.4943390000000 1.0
C      1  0.3980910000000  0.4713400000000  0.4790830000000 1.0
C      1  0.4931600000000  0.5067320000000  0.4523320000000 1.0
C      1  0.4897160000000  0.4784640000000  0.4916170000000 1.0
C      1  0.4760970000000  0.5732700000000  0.5579400000000 1.0
C      1  0.5691770000000  0.4929860000000  0.4275950000000 1.0
C      1  0.4880290000000  0.3935220000000  0.5304090000000 1.0
C      1  0.5533140000000  0.4959710000000  0.4704350000000 1.0
C      1  0.5539480000000  0.5193090000000  0.4216580000000 1.0
C      1  0.3967310000000  0.4350540000000  0.4117750000000 1.0
C      1  0.5774710000000  0.4979010000000  0.4549370000000 1.0
C      1  0.4489440000000  0.5197240000000  0.5945520000000 1.0
C      1  0.5237820000000  0.4129190000000  0.4550100000000 1.0
C      1  0.5395900000000  0.5387530000000  0.4635320000000 1.0
C      1  0.4901940000000  0.6105980000000  0.5215780000000 1.0
C      1  0.5665500000000  0.5131520000000  0.5330710000000 1.0
C      1  0.5257230000000  0.5117640000000  0.5581400000000 1.0
C      1  0.4716260000000  0.5900350000000  0.5811780000000 1.0
C      1  0.5149110000000  0.5547830000000  0.4621110000000 1.0
C      1  0.5712490000000  0.5690060000000  0.5107770000000 1.0
C      1  0.5560630000000  0.5250010000000  0.5100440000000 1.0
C      1  0.4765740000000  0.5076270000000  0.4080020000000 1.0
C      1  0.5218820000000  0.5402550000000  0.6019480000000 1.0
C      1  0.5558910000000  0.5889110000000  0.4679560000000 1.0
C      1  0.5607710000000  0.4645290000000  0.4302170000000 1.0
C      1  0.4966760000000  0.5316410000000  0.5968610000000 1.0
C      1  0.4592010000000  0.4425440000000  0.4847640000000 1.0
C      1  0.4878940000000  0.5928530000000  0.4575610000000 1.0
C      1  0.4656460000000  0.4373610000000  0.5400490000000 1.0
C      1  0.5767320000000  0.5704110000000  0.4807090000000 1.0
C      1  0.4740860000000  0.5218910000000  0.5816390000000 1.0
C      1  0.4921840000000  0.4449800000000  0.4331080000000 1.0
C      1  0.4032540000000  0.4587160000000  0.4205350000000 1.0
C      1  0.4216880000000  0.4407200000000  0.5143800000000 1.0
C      1  0.5335550000000  0.4671650000000  0.4392230000000 1.0
C      1  0.5331400000000  0.4668750000000  0.4981800000000 1.0
C      1  0.5074510000000  0.4711000000000  0.5116400000000 1.0
C      1  0.5831250000000  0.4678630000000  0.5024670000000 1.0
C      1  0.5024840000000  0.4942610000000  0.5555620000000 1.0
C      1  0.4482310000000  0.4888480000000  0.5087910000000 1.0
C      1  0.5155480000000  0.4550380000000  0.4219390000000 1.0
C      1  0.4346350000000  0.5588780000000  0.5343110000000 1.0
C      1  0.4334890000000  0.5418340000000  0.5990240000000 1.0
C      1  0.4632000000000  0.4702630000000  0.4927170000000 1.0
C      1  0.4977610000000  0.4261660000000  0.4537860000000 1.0
C      1  0.5612580000000  0.5390180000000  0.4439580000000 1.0
C      1  0.4719550000000  0.5427620000000  0.4751430000000 1.0
C      1  0.4785830000000  0.5228970000000  0.5277000000000 1.0
C      1  0.4110760000000  0.5736060000000  0.5379640000000 1.0
C      1  0.5164410000000  0.5703140000000  0.4889830000000 1.0
C      1  0.4768220000000  0.4220760000000  0.4718100000000 1.0
C      1  0.4354190000000  0.5496580000000  0.4413160000000 1.0
C      1  0.5264790000000  0.5239480000000  0.4094120000000 1.0
C      1  0.4482430000000  0.5333890000000  0.4852060000000 1.0
C      1  0.5826750000000  0.4396440000000  0.4953050000000 1.0
C      1  0.5181540000000  0.5917790000000  0.5582130000000 1.0
C      1  0.5314440000000  0.4765910000000  0.4685950000000 1.0
C      1  0.4642620000000  0.3962680000000  0.4751330000000 1.0
C      1  0.4368520000000  0.4263740000000  0.4957440000000 1.0
C      1  0.5119740000000  0.5802920000000  0.4447780000000 1.0
C      1  0.5278440000000  0.4532250000000  0.5472740000000 1.0
C      1  0.4271460000000  0.5007590000000  0.4149920000000 1.0
C      1  0.5949110000000  0.5132380000000  0.4723910000000 1.0
C      1  0.5191770000000  0.6015550000000  0.5852880000000 1.0
C      1  0.5060430000000  0.4714960000000  0.5400310000000 1.0
C      1  0.5437990000000  0.5946160000000  0.5968970000000 1.0
C      1  0.5569540000000  0.4699980000000  0.5145040000000 1.0
C      1  0.5208470000000  0.5543150000000  0.5103710000000 1.0
C      1  0.3893400000000  0.5874610000000  0.5417860000000 1.0
C      1  0.4933640000000  0.5345700000000  0.4599070000000 1.0
C      1  0.4908180000000  0.4216190000000  0.5354390000000 1.0
C      1  0.5078650000000  0.3782190000000  0.5201270000000 1.0
C      1  0.5034760000000  0.5369590000000  0.5240620000000 1.0
C      1  0.4921380000000  0.6025160000000  0.5949660000000 1.0
C      1  0.4971370000000  0.5291660000000  0.4056560000000 1.0
C      1  0.5851160000000  0.5442160000000  0.4642770000000 1.0
C      1  0.4522570000000  0.5192590000000  0.5109450000000 1.0
C      1  0.5496710000000  0.4243410000000  0.4624870000000 1.0
C      1  0.5244560000000  0.3331140000000  0.4424230000000 1.0
C      1  0.5120180000000  0.6094100000000  0.5372410000000 1.0
C      1  0.5051580000000  0.5658190000000  0.5577600000000 1.0
C      1  0.4276510000000  0.5358560000000  0.4656110000000 1.0
C      1  0.5507180000000  0.4704270000000  0.5427730000000 1.0
C      1  0.5339200000000  0.3861530000000  0.5123620000000 1.0
C      1  0.5401280000000  0.5898250000000  0.4428040000000 1.0
C      1  0.4390870000000  0.4513180000000  0.5357450000000 1.0
C      1  0.4794190000000  0.5525700000000  0.4107910000000 1.0
C      1  0.4115240000000  0.4831870000000  0.4312340000000 1.0
C      1  0.5576240000000  0.4247900000000  0.4908920000000 1.0
C      1  0.5669910000000  0.4386470000000  0.4426430000000 1.0
C      1  0.5739320000000  0.5749160000000  0.5629810000000 1.0
C      1  0.5686490000000  0.5286800000000  0.6066570000000 1.0
C      1  0.4071380000000  0.5169380000000  0.4653040000000 1.0
C      1  0.4325450000000  0.5299460000000  0.5321020000000 1.0
C      1  0.5487240000000  0.5514790000000  0.5148680000000 1.0
C      1  0.4016580000000  0.4566230000000  0.5015280000000 1.0
C      1  0.5239390000000  0.3595790000000  0.4437680000000 1.0
C      1  0.4337990000000  0.4692360000000  0.6075630000000 1.0
C      1  0.4488670000000  0.5174540000000  0.4077660000000 1.0
C      1  0.4245930000000  0.5046650000000  0.5451120000000 1.0
C      1  0.4725580000000  0.4652360000000  0.4332760000000 1.0
C      1  0.5241030000000  0.3857970000000  0.4475040000000 1.0
C      1  0.4714050000000  0.5916690000000  0.5107390000000 1.0
C      1  0.4404810000000  0.3990780000000  0.4886660000000 1.0
C      1  0.5464060000000  0.5192870000000  0.4839240000000 1.0
C      1  0.5505260000000  0.4984840000000  0.5511710000000 1.0
C      1  0.4799030000000  0.4925980000000  0.4313890000000 1.0
C      1  0.5538180000000  0.3678960000000  0.5057340000000 1.0
C      1  0.4365100000000  0.4800740000000  0.5343900000000 1.0
C      1  0.5386150000000  0.4149380000000  0.5126490000000 1.0
C      1  0.4729140000000  0.5919170000000  0.4812370000000 1.0
C      1  0.4788880000000  0.5105510000000  0.5553000000000 1.0
C      1  0.5252940000000  0.3070670000000  0.4417480000000 1.0
C      1  0.5341170000000  0.5930180000000  0.4872440000000 1.0
C      1  0.5151960000000  0.5393750000000  0.5513560000000 1.0
C      1  0.4042890000000  0.4898020000000  0.4583790000000 1.0
END
