TITL C-612605-9286-1057 0.550209058788049 125000 -167.714637096223 0 0 30 (C1) n - 1
REM
REM in /home/nfs/bkarasulu/CARBON/AIRSS/Generating-Clusters/TERSOFF/Only-C1/FIRE-HFTN
REM
REM
REM
REM
REM
REM ./C.cell (11c1c37f851c82e70ff6c80c92926a4b)
REM AIRSS Version 0.9.1 bugfix July 2018 build 013d7b7c2542+ Fri, 06 Jul 2018 19:26:36 +0100
REM compiler GCC version 9.2.1 20190827 (Red Hat 9.2.1-1)
REM options -cpp -mtune=generic -march=x86-64 -g -O0 -fpre-include=/usr/include/finclude/math-vector-fortran.h
REM seed 655247335 -823749856 168986635 -620145670 841394571 -611835057 1616702167 -2016131535 398649237 -968816458 115589520 1592809302 -1674664198 -1794013880 1310069758 1114407316 312936939 1089823829 1388821434 1818777273 1779233299 -685869044 1402130536 1732043380 -1403682789 632521213 840443881 -1361143471 -290568842 -549546443 -2035388054 244236980 -392449022
REM
CELL 1.54180   50.00000   50.00000   50.00000   90.00000   90.00000   90.00000
LATT -1
SFAC C  
C      1  0.5191410000000  0.4465390000000  0.5141100000000 1.0
C      1  0.4725480000000  0.4842780000000  0.4710150000000 1.0
C      1  0.5754280000000  0.4130570000000  0.5256220000000 1.0
C      1  0.4381120000000  0.5429460000000  0.4973860000000 1.0
C      1  0.4923790000000  0.6009680000000  0.5017770000000 1.0
C      1  0.4528410000000  0.4733100000000  0.4545680000000 1.0
C      1  0.4089330000000  0.5691970000000  0.4603240000000 1.0
C      1  0.5286200000000  0.5706750000000  0.5103580000000 1.0
C      1  0.5020930000000  0.5754200000000  0.5028270000000 1.0
C      1  0.4701600000000  0.5104940000000  0.4804130000000 1.0
C      1  0.5704780000000  0.5403480000000  0.5173090000000 1.0
C      1  0.5794550000000  0.5154590000000  0.5148960000000 1.0
C      1  0.5201310000000  0.4734450000000  0.4659300000000 1.0
C      1  0.5520700000000  0.5593890000000  0.5154640000000 1.0
C      1  0.4272670000000  0.5364820000000  0.5222940000000 1.0
C      1  0.5583750000000  0.4702950000000  0.4988760000000 1.0
C      1  0.4488470000000  0.4269790000000  0.5149820000000 1.0
C      1  0.5757500000000  0.4899740000000  0.5083070000000 1.0
C      1  0.4948920000000  0.4510060000000  0.5005390000000 1.0
C      1  0.4855700000000  0.5537630000000  0.4963920000000 1.0
C      1  0.5627990000000  0.4357600000000  0.5342910000000 1.0
C      1  0.5457120000000  0.4736250000000  0.4739170000000 1.0
C      1  0.4175810000000  0.5300520000000  0.5456170000000 1.0
C      1  0.5653190000000  0.4442410000000  0.5602100000000 1.0
C      1  0.4342070000000  0.4623560000000  0.4400110000000 1.0
C      1  0.4714550000000  0.4381630000000  0.5084300000000 1.0
C      1  0.4952260000000  0.4689490000000  0.4782350000000 1.0
C      1  0.5469010000000  0.4506650000000  0.5161880000000 1.0
C      1  0.4227970000000  0.5565150000000  0.4783830000000 1.0
C      1  0.4649100000000  0.5356520000000  0.4913300000000 1.0
END
