TITL C-612607-4507-227 0.704451082942932 125000 -443.653127881206 0 0 74 (C1) n - 1
REM
REM in /home/nfs/bkarasulu/CARBON/AIRSS/Generating-Clusters/TERSOFF/Only-C1/FIRE-HFTN
REM
REM
REM
REM
REM
REM ./C.cell (11c1c37f851c82e70ff6c80c92926a4b)
REM AIRSS Version 0.9.1 bugfix July 2018 build 013d7b7c2542+ Fri, 06 Jul 2018 19:26:36 +0100
REM compiler GCC version 9.2.1 20190827 (Red Hat 9.2.1-1)
REM options -cpp -mtune=generic -march=x86-64 -g -O0 -fpre-include=/usr/include/finclude/math-vector-fortran.h
REM seed -1727624955 1601789831 -1602513653 1690910087 -1205946435 -1573215142 568841630 -2096582662 378726928 296936062 104501141 -730054090 -220307451 1717243563 -659172749 1201151848 -819648155 149843040 -1582482505 945401918 2146607896 1950041922 -316322108 1703278233 1189044760 -916571506 1245528596 -1098671372 2135140265 -1249527795 -323378414 627588031 -166497580
REM
CELL 1.54180   50.00000   50.00000   50.00000   90.00000   90.00000   90.00000
LATT -1
SFAC C  
C      1  0.5757770000000  0.5353780000000  0.5496120000000 1.0
C      1  0.4441940000000  0.4479320000000  0.4928900000000 1.0
C      1  0.4741770000000  0.3926360000000  0.5272370000000 1.0
C      1  0.5532580000000  0.4606650000000  0.5432600000000 1.0
C      1  0.5434480000000  0.4581360000000  0.4402770000000 1.0
C      1  0.4644010000000  0.4512460000000  0.4518680000000 1.0
C      1  0.4742750000000  0.3162280000000  0.5475520000000 1.0
C      1  0.4742470000000  0.5214100000000  0.5680050000000 1.0
C      1  0.5052010000000  0.4569870000000  0.5449360000000 1.0
C      1  0.5731940000000  0.4870660000000  0.5071650000000 1.0
C      1  0.4392870000000  0.4779170000000  0.4004360000000 1.0
C      1  0.4742400000000  0.3414260000000  0.5408660000000 1.0
C      1  0.5252220000000  0.5241330000000  0.4950210000000 1.0
C      1  0.5896750000000  0.5103350000000  0.5071610000000 1.0
C      1  0.4846150000000  0.4391150000000  0.5374660000000 1.0
C      1  0.5771240000000  0.5196840000000  0.4247870000000 1.0
C      1  0.4819950000000  0.5302440000000  0.4791440000000 1.0
C      1  0.4742040000000  0.3670450000000  0.5340670000000 1.0
C      1  0.5095680000000  0.5429820000000  0.4163740000000 1.0
C      1  0.5001550000000  0.5619100000000  0.5432040000000 1.0
C      1  0.5409150000000  0.5643660000000  0.4496810000000 1.0
C      1  0.5584710000000  0.4695210000000  0.4896010000000 1.0
C      1  0.4761250000000  0.4592290000000  0.4269300000000 1.0
C      1  0.4556280000000  0.4771400000000  0.5737860000000 1.0
C      1  0.5501800000000  0.5227880000000  0.4228760000000 1.0
C      1  0.5345970000000  0.4755010000000  0.4200170000000 1.0
C      1  0.4186470000000  0.5702870000000  0.5596740000000 1.0
C      1  0.4650900000000  0.4797480000000  0.4107130000000 1.0
C      1  0.4470780000000  0.5294080000000  0.5706840000000 1.0
C      1  0.4985980000000  0.4859870000000  0.4760490000000 1.0
C      1  0.4250260000000  0.5894470000000  0.5422590000000 1.0
C      1  0.5330140000000  0.4598010000000  0.5013170000000 1.0
C      1  0.5064950000000  0.4383880000000  0.4675990000000 1.0
C      1  0.4744100000000  0.4194970000000  0.5197300000000 1.0
C      1  0.5515620000000  0.5232480000000  0.5584330000000 1.0
C      1  0.4646090000000  0.4273060000000  0.4943910000000 1.0
C      1  0.5239230000000  0.4896280000000  0.5810510000000 1.0
C      1  0.5294000000000  0.4537420000000  0.5295530000000 1.0
C      1  0.5304010000000  0.5519970000000  0.4985410000000 1.0
C      1  0.4656720000000  0.5805200000000  0.4818900000000 1.0
C      1  0.4399940000000  0.5853830000000  0.4946700000000 1.0
C      1  0.5116330000000  0.4616260000000  0.4834170000000 1.0
C      1  0.5195620000000  0.4403760000000  0.4425500000000 1.0
C      1  0.5900350000000  0.5294120000000  0.5269290000000 1.0
C      1  0.4149040000000  0.4758700000000  0.3914660000000 1.0
C      1  0.5356190000000  0.5475480000000  0.4281360000000 1.0
C      1  0.5407850000000  0.5111390000000  0.5818850000000 1.0
C      1  0.4815530000000  0.5018730000000  0.4054900000000 1.0
C      1  0.4695810000000  0.4875910000000  0.4836740000000 1.0
C      1  0.5185780000000  0.5115830000000  0.5203830000000 1.0
C      1  0.5198490000000  0.5618200000000  0.5229210000000 1.0
C      1  0.4893500000000  0.5096270000000  0.5218970000000 1.0
C      1  0.4733270000000  0.5556110000000  0.4720530000000 1.0
C      1  0.4833800000000  0.5960090000000  0.4990650000000 1.0
C      1  0.5311280000000  0.5023370000000  0.4148700000000 1.0
C      1  0.5606310000000  0.4640670000000  0.4618530000000 1.0
C      1  0.4432320000000  0.5946910000000  0.5219510000000 1.0
C      1  0.4271740000000  0.5469760000000  0.5693340000000 1.0
C      1  0.5602690000000  0.4858210000000  0.5327970000000 1.0
C      1  0.5054520000000  0.5152550000000  0.4095980000000 1.0
C      1  0.4922750000000  0.5440190000000  0.5665120000000 1.0
C      1  0.4722070000000  0.5988350000000  0.5259120000000 1.0
C      1  0.4521980000000  0.4678610000000  0.4734370000000 1.0
C      1  0.5395560000000  0.5662830000000  0.4763400000000 1.0
C      1  0.4863170000000  0.5880720000000  0.5476370000000 1.0
C      1  0.5410760000000  0.5069220000000  0.5369690000000 1.0
C      1  0.5027750000000  0.4785860000000  0.5651650000000 1.0
C      1  0.5074920000000  0.5148130000000  0.4742180000000 1.0
C      1  0.4788850000000  0.4305540000000  0.4686690000000 1.0
C      1  0.4778770000000  0.4926180000000  0.5685250000000 1.0
C      1  0.4883980000000  0.5643080000000  0.5875450000000 1.0
C      1  0.4836140000000  0.5892200000000  0.5763120000000 1.0
C      1  0.4703600000000  0.5120040000000  0.4995580000000 1.0
C      1  0.5028380000000  0.4512610000000  0.4221580000000 1.0
END
