TITL C-612600-6631-1136 0.000110652859813178 125000 -573.001581310563 0 0 93 (C1) n - 1
REM
REM in /home/nfs/bkarasulu/CARBON/AIRSS/Generating-Clusters/TERSOFF/Only-C1/FIRE-HFTN
REM
REM
REM
REM
REM
REM ./C.cell (11c1c37f851c82e70ff6c80c92926a4b)
REM AIRSS Version 0.9.1 bugfix July 2018 build 013d7b7c2542+ Fri, 06 Jul 2018 19:26:36 +0100
REM compiler GCC version 9.2.1 20190827 (Red Hat 9.2.1-1)
REM options -cpp -mtune=generic -march=x86-64 -g -O0 -fpre-include=/usr/include/finclude/math-vector-fortran.h
REM seed -1966230524 1017498653 1987576045 -1901617435 -1429679163 -1538173235 -2027413129 1739670365 653765069 509863695 -1219185094 791770234 456231281 -75423814 1435437950 2014497040 1699767513 -247193659 -1810118684 -887246929 -2041833386 -1214699971 -1789221146 -1086089128 739482765 -1534479399 481519338 1874883122 320303774 1536567656 871289114 -960724227 167737873
REM
CELL 1.54180   50.00000   50.00000   50.00000   90.00000   90.00000   90.00000
LATT -1
SFAC C  
C      1  0.5537200000000  0.4345980000000  0.4842810000000 1.0
C      1  0.5481270000000  0.4212290000000  0.5085240000000 1.0
C      1  0.4989140000000  0.4446510000000  0.5543990000000 1.0
C      1  0.5372270000000  0.5215840000000  0.5344300000000 1.0
C      1  0.5064530000000  0.5047790000000  0.4413340000000 1.0
C      1  0.4520240000000  0.5399910000000  0.5348380000000 1.0
C      1  0.5089410000000  0.4535950000000  0.4805740000000 1.0
C      1  0.4320150000000  0.5364280000000  0.5134370000000 1.0
C      1  0.5925390000000  0.4529700000000  0.4058000000000 1.0
C      1  0.4227480000000  0.4908620000000  0.4062920000000 1.0
C      1  0.4773100000000  0.4380450000000  0.5703950000000 1.0
C      1  0.4134420000000  0.5057900000000  0.4688940000000 1.0
C      1  0.4579920000000  0.5123670000000  0.5424100000000 1.0
C      1  0.4526210000000  0.4761930000000  0.4403190000000 1.0
C      1  0.4869640000000  0.4589140000000  0.4952760000000 1.0
C      1  0.4446730000000  0.4479870000000  0.4379510000000 1.0
C      1  0.4215800000000  0.5088790000000  0.5162830000000 1.0
C      1  0.5579280000000  0.5380530000000  0.4426780000000 1.0
C      1  0.5006160000000  0.4939640000000  0.5578510000000 1.0
C      1  0.5273560000000  0.5451370000000  0.5463640000000 1.0
C      1  0.4467490000000  0.5854460000000  0.5496110000000 1.0
C      1  0.5386190000000  0.4377670000000  0.5305350000000 1.0
C      1  0.4873970000000  0.5044770000000  0.4616000000000 1.0
C      1  0.5417160000000  0.4640790000000  0.5437610000000 1.0
C      1  0.5567550000000  0.5110170000000  0.4336430000000 1.0
C      1  0.4305150000000  0.6058140000000  0.5486220000000 1.0
C      1  0.4844590000000  0.5573900000000  0.6168130000000 1.0
C      1  0.4195180000000  0.4925520000000  0.4932460000000 1.0
C      1  0.5600020000000  0.3694530000000  0.4433990000000 1.0
C      1  0.4439930000000  0.4317130000000  0.4624730000000 1.0
C      1  0.5626500000000  0.4840840000000  0.5421970000000 1.0
C      1  0.5059720000000  0.5415250000000  0.5646580000000 1.0
C      1  0.4924890000000  0.5321890000000  0.6216740000000 1.0
C      1  0.4636040000000  0.4719060000000  0.4869250000000 1.0
C      1  0.4686190000000  0.4838770000000  0.4616170000000 1.0
C      1  0.5442350000000  0.5913450000000  0.5500770000000 1.0
C      1  0.5332200000000  0.4468130000000  0.4714950000000 1.0
C      1  0.5836820000000  0.4017390000000  0.4098970000000 1.0
C      1  0.4897180000000  0.5601020000000  0.4391430000000 1.0
C      1  0.5776030000000  0.4922810000000  0.4375540000000 1.0
C      1  0.4355010000000  0.4686790000000  0.4923040000000 1.0
C      1  0.4241810000000  0.4775480000000  0.5567990000000 1.0
C      1  0.4955980000000  0.5842760000000  0.4989180000000 1.0
C      1  0.4835650000000  0.5025550000000  0.5360790000000 1.0
C      1  0.4440930000000  0.5424780000000  0.4614790000000 1.0
C      1  0.5250650000000  0.5843020000000  0.4625360000000 1.0
C      1  0.4190040000000  0.4645360000000  0.3999320000000 1.0
C      1  0.5906330000000  0.4265670000000  0.4034980000000 1.0
C      1  0.5668650000000  0.5448900000000  0.4688960000000 1.0
C      1  0.4824640000000  0.6271760000000  0.5957310000000 1.0
C      1  0.4517560000000  0.4411240000000  0.5770180000000 1.0
C      1  0.5770400000000  0.5308730000000  0.5161950000000 1.0
C      1  0.5294280000000  0.3989170000000  0.5044620000000 1.0
C      1  0.4266080000000  0.4437550000000  0.4821910000000 1.0
C      1  0.5379830000000  0.5688520000000  0.5349830000000 1.0
C      1  0.4310870000000  0.5184740000000  0.4495280000000 1.0
C      1  0.4820000000000  0.6011270000000  0.5950920000000 1.0
C      1  0.4641970000000  0.4148630000000  0.4744370000000 1.0
C      1  0.4375590000000  0.4985760000000  0.4292380000000 1.0
C      1  0.5046030000000  0.5149270000000  0.5766930000000 1.0
C      1  0.5243570000000  0.5087590000000  0.5129650000000 1.0
C      1  0.5729780000000  0.3817660000000  0.4237560000000 1.0
C      1  0.4809130000000  0.4080400000000  0.4950000000000 1.0
C      1  0.4326350000000  0.5478020000000  0.4877550000000 1.0
C      1  0.5172150000000  0.5683820000000  0.4404920000000 1.0
C      1  0.5145610000000  0.4692470000000  0.5558120000000 1.0
C      1  0.5645490000000  0.5123730000000  0.5351850000000 1.0
C      1  0.4755400000000  0.5731520000000  0.4822980000000 1.0
C      1  0.5884590000000  0.4766010000000  0.4172680000000 1.0
C      1  0.4686360000000  0.5583490000000  0.4584080000000 1.0
C      1  0.5466710000000  0.3673710000000  0.4662980000000 1.0
C      1  0.4305820000000  0.4563170000000  0.5715000000000 1.0
C      1  0.5485480000000  0.6123950000000  0.5648190000000 1.0
C      1  0.4839070000000  0.5595240000000  0.5683710000000 1.0
C      1  0.4899970000000  0.6022510000000  0.5186570000000 1.0
C      1  0.4966100000000  0.5101080000000  0.5117090000000 1.0
C      1  0.4879070000000  0.5178510000000  0.4863260000000 1.0
C      1  0.4827800000000  0.5733360000000  0.5936030000000 1.0
C      1  0.5225940000000  0.5799320000000  0.4901390000000 1.0
C      1  0.5639770000000  0.4871170000000  0.4848840000000 1.0
C      1  0.4334710000000  0.4973010000000  0.5399680000000 1.0
C      1  0.5030250000000  0.4083930000000  0.5132730000000 1.0
C      1  0.5303830000000  0.5017920000000  0.4300130000000 1.0
C      1  0.5811450000000  0.4852370000000  0.4645300000000 1.0
C      1  0.5355740000000  0.3771300000000  0.4884050000000 1.0
C      1  0.4291650000000  0.4437120000000  0.4144480000000 1.0
C      1  0.5639880000000  0.5491830000000  0.4970150000000 1.0
C      1  0.5393100000000  0.5550100000000  0.4294900000000 1.0
C      1  0.5428520000000  0.5675610000000  0.5065190000000 1.0
C      1  0.5015150000000  0.5135010000000  0.6045220000000 1.0
C      1  0.4615690000000  0.5616450000000  0.5502090000000 1.0
C      1  0.5100960000000  0.4276030000000  0.5343930000000 1.0
C      1  0.5405640000000  0.4951790000000  0.4946930000000 1.0
END
