TITL C-612604-1799-214 43.0830649521272 125000 -1152.48795820136 0 0 187 (C1) n - 1
REM
REM in /home/nfs/bkarasulu/CARBON/AIRSS/Generating-Clusters/TERSOFF/Only-C1/FIRE-HFTN
REM
REM
REM
REM
REM
REM ./C.cell (11c1c37f851c82e70ff6c80c92926a4b)
REM AIRSS Version 0.9.1 bugfix July 2018 build 013d7b7c2542+ Fri, 06 Jul 2018 19:26:36 +0100
REM compiler GCC version 9.2.1 20190827 (Red Hat 9.2.1-1)
REM options -cpp -mtune=generic -march=x86-64 -g -O0 -fpre-include=/usr/include/finclude/math-vector-fortran.h
REM seed -29823344 1261617622 -778010449 -1235750025 1676181840 190817169 731432229 -337561368 -1876082324 477834407 -1817124822 1035304472 1580913675 1160283477 702918031 -404876557 -78467809 1685114365 214285865 748125127 -1077816377 59907111 -1625996130 -1668495255 696573596 1549058612 415130046 -112302798 -1223186630 -1658275290 2100129852 -113336604 -869313484
REM
CELL 1.54180   50.00000   50.00000   50.00000   90.00000   90.00000   90.00000
LATT -1
SFAC C  
C      1  0.5645410000000  0.5772590000000  0.4184860000000 1.0
C      1  0.5071230000000  0.3957150000000  0.5710860000000 1.0
C      1  0.5502220000000  0.4996110000000  0.5967870000000 1.0
C      1  0.4962640000000  0.5989600000000  0.5372600000000 1.0
C      1  0.4470000000000  0.4508840000000  0.5481220000000 1.0
C      1  0.5591050000000  0.4519360000000  0.3976560000000 1.0
C      1  0.4058500000000  0.5002620000000  0.5105660000000 1.0
C      1  0.4547400000000  0.4469060000000  0.4356490000000 1.0
C      1  0.4140080000000  0.4598520000000  0.5983530000000 1.0
C      1  0.5999190000000  0.3943620000000  0.4915490000000 1.0
C      1  0.5949590000000  0.4273200000000  0.5367940000000 1.0
C      1  0.4739990000000  0.5337460000000  0.6519580000000 1.0
C      1  0.3925000000000  0.4404540000000  0.4835630000000 1.0
C      1  0.5945830000000  0.4803480000000  0.4858230000000 1.0
C      1  0.5601620000000  0.5498310000000  0.4125920000000 1.0
C      1  0.5366770000000  0.5886340000000  0.6003470000000 1.0
C      1  0.4279250000000  0.4160800000000  0.4599440000000 1.0
C      1  0.5568100000000  0.5321140000000  0.5475280000000 1.0
C      1  0.4801760000000  0.3869350000000  0.5124290000000 1.0
C      1  0.4819910000000  0.6184840000000  0.4962510000000 1.0
C      1  0.4082370000000  0.4384530000000  0.4602590000000 1.0
C      1  0.4339090000000  0.3958390000000  0.5274910000000 1.0
C      1  0.5458480000000  0.5942010000000  0.4286660000000 1.0
C      1  0.4215570000000  0.4993040000000  0.4004310000000 1.0
C      1  0.5164850000000  0.4971770000000  0.4367270000000 1.0
C      1  0.4488450000000  0.6032670000000  0.5351870000000 1.0
C      1  0.3831920000000  0.5275280000000  0.5509810000000 1.0
C      1  0.4623370000000  0.4439410000000  0.5017500000000 1.0
C      1  0.5253490000000  0.4037100000000  0.4149710000000 1.0
C      1  0.4374800000000  0.3992800000000  0.5749680000000 1.0
C      1  0.5454380000000  0.4975010000000  0.3979350000000 1.0
C      1  0.5038010000000  0.5245440000000  0.3505960000000 1.0
C      1  0.4251920000000  0.6038090000000  0.5176140000000 1.0
C      1  0.5303860000000  0.6221810000000  0.4905300000000 1.0
C      1  0.5752800000000  0.4750910000000  0.4378670000000 1.0
C      1  0.4504010000000  0.5804160000000  0.5552120000000 1.0
C      1  0.4130150000000  0.6272700000000  0.5106120000000 1.0
C      1  0.4343260000000  0.4622570000000  0.4244400000000 1.0
C      1  0.4988450000000  0.4308860000000  0.4429100000000 1.0
C      1  0.5667330000000  0.4772670000000  0.4695630000000 1.0
C      1  0.4841040000000  0.3696380000000  0.5346570000000 1.0
C      1  0.4412280000000  0.5100930000000  0.4760700000000 1.0
C      1  0.5790240000000  0.4913100000000  0.5415590000000 1.0
C      1  0.4051820000000  0.5087440000000  0.4217050000000 1.0
C      1  0.6201110000000  0.4513250000000  0.4515470000000 1.0
C      1  0.5580090000000  0.4001920000000  0.5542580000000 1.0
C      1  0.5662380000000  0.5398010000000  0.5745790000000 1.0
C      1  0.3900020000000  0.5135880000000  0.4896450000000 1.0
C      1  0.4188700000000  0.4388530000000  0.5517540000000 1.0
C      1  0.5665130000000  0.5206340000000  0.5946000000000 1.0
C      1  0.5588720000000  0.5082520000000  0.5325630000000 1.0
C      1  0.4612380000000  0.4033330000000  0.5867610000000 1.0
C      1  0.4708140000000  0.4960880000000  0.4137030000000 1.0
C      1  0.4889950000000  0.4443030000000  0.5769520000000 1.0
C      1  0.5463760000000  0.4294660000000  0.4944180000000 1.0
C      1  0.4827540000000  0.5047230000000  0.3894430000000 1.0
C      1  0.4211700000000  0.5267040000000  0.4608440000000 1.0
C      1  0.5765800000000  0.5274010000000  0.4211240000000 1.0
C      1  0.5789630000000  0.4042360000000  0.5358760000000 1.0
C      1  0.3948490000000  0.5026950000000  0.5580790000000 1.0
C      1  0.4154860000000  0.5780360000000  0.5085440000000 1.0
C      1  0.5402470000000  0.6231240000000  0.5412150000000 1.0
C      1  0.5518330000000  0.5039110000000  0.4783680000000 1.0
C      1  0.6198200000000  0.4102970000000  0.4794390000000 1.0
C      1  0.4749980000000  0.6091410000000  0.4370240000000 1.0
C      1  0.4026440000000  0.5388090000000  0.4796690000000 1.0
C      1  0.5058730000000  0.4833700000000  0.6048480000000 1.0
C      1  0.5302350000000  0.5408350000000  0.4544700000000 1.0
C      1  0.5116910000000  0.4437750000000  0.5237050000000 1.0
C      1  0.4855910000000  0.5736590000000  0.4752780000000 1.0
C      1  0.5990040000000  0.4740550000000  0.5402020000000 1.0
C      1  0.3966530000000  0.5483530000000  0.5409960000000 1.0
C      1  0.3907450000000  0.4443470000000  0.5098520000000 1.0
C      1  0.4921060000000  0.5286660000000  0.6320450000000 1.0
C      1  0.4504060000000  0.5353490000000  0.5795730000000 1.0
C      1  0.5347510000000  0.4005880000000  0.5676660000000 1.0
C      1  0.5048120000000  0.4388280000000  0.6245460000000 1.0
C      1  0.5326770000000  0.3895140000000  0.4596200000000 1.0
C      1  0.4812020000000  0.5517830000000  0.4337880000000 1.0
C      1  0.5099920000000  0.4652800000000  0.5046530000000 1.0
C      1  0.4733690000000  0.5377460000000  0.5034460000000 1.0
C      1  0.4952100000000  0.5023090000000  0.6225520000000 1.0
C      1  0.3830520000000  0.4966380000000  0.4665740000000 1.0
C      1  0.6058830000000  0.4699740000000  0.4380850000000 1.0
C      1  0.5012440000000  0.4409300000000  0.3945540000000 1.0
C      1  0.4618260000000  0.5096850000000  0.5680940000000 1.0
C      1  0.5842390000000  0.3889490000000  0.5127290000000 1.0
C      1  0.5138220000000  0.5554090000000  0.4321000000000 1.0
C      1  0.5325900000000  0.5114950000000  0.4549520000000 1.0
C      1  0.6428610000000  0.3984340000000  0.4705020000000 1.0
C      1  0.5794920000000  0.6007040000000  0.5402300000000 1.0
C      1  0.4341090000000  0.5020360000000  0.5048950000000 1.0
C      1  0.5056010000000  0.4239700000000  0.4164460000000 1.0
C      1  0.5930970000000  0.5256050000000  0.4680620000000 1.0
C      1  0.5095380000000  0.4233880000000  0.6450010000000 1.0
C      1  0.5725200000000  0.5680250000000  0.5747050000000 1.0
C      1  0.5674340000000  0.5306310000000  0.4787020000000 1.0
C      1  0.4109610000000  0.5050790000000  0.5818740000000 1.0
C      1  0.4231210000000  0.5301960000000  0.5875590000000 1.0
C      1  0.5249750000000  0.4933280000000  0.5866620000000 1.0
C      1  0.5432320000000  0.5013700000000  0.5092120000000 1.0
C      1  0.5152050000000  0.4603910000000  0.3823300000000 1.0
C      1  0.5004440000000  0.5006900000000  0.5377370000000 1.0
C      1  0.4338400000000  0.5524090000000  0.4194100000000 1.0
C      1  0.5439160000000  0.4017000000000  0.4365340000000 1.0
C      1  0.4098500000000  0.4617120000000  0.4407730000000 1.0
C      1  0.5757910000000  0.6087410000000  0.5127420000000 1.0
C      1  0.5489650000000  0.6212310000000  0.5124420000000 1.0
C      1  0.4852700000000  0.5105590000000  0.4650980000000 1.0
C      1  0.5047210000000  0.6174210000000  0.4777370000000 1.0
C      1  0.5163300000000  0.4999700000000  0.5609600000000 1.0
C      1  0.4372530000000  0.3983060000000  0.4806070000000 1.0
C      1  0.5031940000000  0.5096680000000  0.4882510000000 1.0
C      1  0.5404980000000  0.4710750000000  0.3883810000000 1.0
C      1  0.4078400000000  0.4415980000000  0.5796950000000 1.0
C      1  0.4969240000000  0.3728000000000  0.5579770000000 1.0
C      1  0.4513020000000  0.3923330000000  0.5052770000000 1.0
C      1  0.5233510000000  0.4204140000000  0.5112580000000 1.0
C      1  0.6028910000000  0.4512040000000  0.5246050000000 1.0
C      1  0.4567460000000  0.5643700000000  0.5786940000000 1.0
C      1  0.4974810000000  0.4566700000000  0.4562490000000 1.0
C      1  0.4328200000000  0.5813130000000  0.4205950000000 1.0
C      1  0.5001200000000  0.4557210000000  0.6026910000000 1.0
C      1  0.4614980000000  0.5456050000000  0.4141410000000 1.0
C      1  0.4691750000000  0.4634860000000  0.4544700000000 1.0
C      1  0.5074280000000  0.5616320000000  0.4869810000000 1.0
C      1  0.4545840000000  0.4612490000000  0.5226260000000 1.0
C      1  0.5317310000000  0.5666460000000  0.5227410000000 1.0
C      1  0.4721910000000  0.5533860000000  0.5257960000000 1.0
C      1  0.5771520000000  0.5730760000000  0.5455490000000 1.0
C      1  0.6057430000000  0.4558650000000  0.4966170000000 1.0
C      1  0.4194670000000  0.5582630000000  0.5285960000000 1.0
C      1  0.5045960000000  0.5166180000000  0.3766660000000 1.0
C      1  0.5089380000000  0.3947230000000  0.4739780000000 1.0
C      1  0.4718350000000  0.5035650000000  0.5411090000000 1.0
C      1  0.5194570000000  0.5875660000000  0.4369120000000 1.0
C      1  0.5339900000000  0.5674340000000  0.4938100000000 1.0
C      1  0.4382590000000  0.5696110000000  0.4669640000000 1.0
C      1  0.6230150000000  0.5235210000000  0.5020960000000 1.0
C      1  0.4536830000000  0.4843700000000  0.5817260000000 1.0
C      1  0.5135120000000  0.4935770000000  0.5113440000000 1.0
C      1  0.5573620000000  0.5923660000000  0.5817440000000 1.0
C      1  0.6112730000000  0.5745610000000  0.4968480000000 1.0
C      1  0.5199710000000  0.5718070000000  0.6127710000000 1.0
C      1  0.4008930000000  0.4561680000000  0.5333800000000 1.0
C      1  0.3957040000000  0.4879190000000  0.4417740000000 1.0
C      1  0.4472520000000  0.4202350000000  0.4395660000000 1.0
C      1  0.4521510000000  0.4833790000000  0.4658620000000 1.0
C      1  0.5014590000000  0.5362830000000  0.4976360000000 1.0
C      1  0.4439040000000  0.4847340000000  0.4098600000000 1.0
C      1  0.5600300000000  0.6121300000000  0.5595400000000 1.0
C      1  0.6221420000000  0.5507490000000  0.5035680000000 1.0
C      1  0.5008510000000  0.6065030000000  0.4498650000000 1.0
C      1  0.5488180000000  0.5523500000000  0.4746850000000 1.0
C      1  0.5057020000000  0.4465400000000  0.5510900000000 1.0
C      1  0.6072450000000  0.5069930000000  0.4849450000000 1.0
C      1  0.4867170000000  0.4138660000000  0.5804440000000 1.0
C      1  0.4466150000000  0.5584280000000  0.5363860000000 1.0
C      1  0.5276690000000  0.5199370000000  0.3927290000000 1.0
C      1  0.4542140000000  0.4902060000000  0.5218040000000 1.0
C      1  0.5964680000000  0.5309390000000  0.4408280000000 1.0
C      1  0.5314940000000  0.5440630000000  0.4076730000000 1.0
C      1  0.4513250000000  0.6005430000000  0.4268130000000 1.0
C      1  0.6166180000000  0.4384780000000  0.4766880000000 1.0
C      1  0.5071700000000  0.5499390000000  0.6212220000000 1.0
C      1  0.4145540000000  0.5657190000000  0.4830700000000 1.0
C      1  0.4656330000000  0.5568030000000  0.4610680000000 1.0
C      1  0.5137050000000  0.6178550000000  0.5477960000000 1.0
C      1  0.4880390000000  0.5008720000000  0.4376840000000 1.0
C      1  0.4741990000000  0.6095130000000  0.5225040000000 1.0
C      1  0.5026430000000  0.5712740000000  0.5325890000000 1.0
C      1  0.5658420000000  0.4484760000000  0.4249880000000 1.0
C      1  0.5060750000000  0.3980740000000  0.5024220000000 1.0
C      1  0.4176570000000  0.5321500000000  0.4332740000000 1.0
C      1  0.5938230000000  0.5952640000000  0.4956910000000 1.0
C      1  0.4259120000000  0.4089120000000  0.5507790000000 1.0
C      1  0.4635200000000  0.5293540000000  0.4758250000000 1.0
C      1  0.3992220000000  0.4854030000000  0.5351030000000 1.0
C      1  0.4899660000000  0.4134780000000  0.4637260000000 1.0
C      1  0.5629200000000  0.4228200000000  0.4367070000000 1.0
C      1  0.4266890000000  0.4838270000000  0.5917820000000 1.0
C      1  0.4627830000000  0.4591370000000  0.5706750000000 1.0
C      1  0.5666270000000  0.5002370000000  0.4181990000000 1.0
C      1  0.5461720000000  0.4536610000000  0.4774460000000 1.0
C      1  0.4734360000000  0.4270900000000  0.4837470000000 1.0
C      1  0.5170170000000  0.4605120000000  0.4767560000000 1.0
C      1  0.5554690000000  0.5573460000000  0.5342550000000 1.0
END
