TITL C-612604-1799-1114 1.90219388582676 125000 -377.765154879121 0 0 62 (C1) n - 1
REM
REM in /home/nfs/bkarasulu/CARBON/AIRSS/Generating-Clusters/TERSOFF/Only-C1/FIRE-HFTN
REM
REM
REM
REM
REM
REM ./C.cell (11c1c37f851c82e70ff6c80c92926a4b)
REM AIRSS Version 0.9.1 bugfix July 2018 build 013d7b7c2542+ Fri, 06 Jul 2018 19:26:36 +0100
REM compiler GCC version 9.2.1 20190827 (Red Hat 9.2.1-1)
REM options -cpp -mtune=generic -march=x86-64 -g -O0 -fpre-include=/usr/include/finclude/math-vector-fortran.h
REM seed -953332229 -1983767201 -1061191871 -435225090 -1397848766 810073263 1956849255 -420193215 1228236637 -185182351 442967281 1809999120 -816457718 916693759 -1025995143 1883426293 1542946959 -487438871 -2048779043 1980922555 -1237429568 -1133855827 -1400086967 -1994139301 1943028753 1606798066 1066415688 -1511405815 -198142288 -939623314 -2139814597 482226286 -910934141
REM
CELL 1.54180   50.00000   50.00000   50.00000   90.00000   90.00000   90.00000
LATT -1
SFAC C  
C      1  0.4257900000000  0.4992920000000  0.5156940000000 1.0
C      1  0.5327990000000  0.4812360000000  0.5297860000000 1.0
C      1  0.5259530000000  0.5559310000000  0.5434850000000 1.0
C      1  0.5171120000000  0.4785460000000  0.5539710000000 1.0
C      1  0.4757100000000  0.5913230000000  0.4831710000000 1.0
C      1  0.5745450000000  0.5259810000000  0.4999070000000 1.0
C      1  0.4437850000000  0.5538140000000  0.4431230000000 1.0
C      1  0.4298870000000  0.4403320000000  0.5245710000000 1.0
C      1  0.5076510000000  0.4421900000000  0.5259970000000 1.0
C      1  0.4407410000000  0.4814330000000  0.4999420000000 1.0
C      1  0.4226560000000  0.4385330000000  0.5751190000000 1.0
C      1  0.4841540000000  0.5444590000000  0.5181500000000 1.0
C      1  0.5794830000000  0.5701170000000  0.4692650000000 1.0
C      1  0.4639430000000  0.4761790000000  0.4566630000000 1.0
C      1  0.4857500000000  0.5248600000000  0.4980090000000 1.0
C      1  0.5331580000000  0.5292400000000  0.4317600000000 1.0
C      1  0.4356980000000  0.5735580000000  0.5115820000000 1.0
C      1  0.5920040000000  0.5043120000000  0.4975920000000 1.0
C      1  0.5778770000000  0.5486240000000  0.4839130000000 1.0
C      1  0.4860340000000  0.5353330000000  0.4221040000000 1.0
C      1  0.5507910000000  0.5433750000000  0.5397230000000 1.0
C      1  0.5529260000000  0.5246690000000  0.5182420000000 1.0
C      1  0.4203890000000  0.5247180000000  0.5219700000000 1.0
C      1  0.5012500000000  0.4540080000000  0.5511880000000 1.0
C      1  0.4198010000000  0.4356730000000  0.5487460000000 1.0
C      1  0.5086360000000  0.5684320000000  0.4495970000000 1.0
C      1  0.5004330000000  0.5563600000000  0.5357020000000 1.0
C      1  0.5101080000000  0.5105300000000  0.4983300000000 1.0
C      1  0.4713840000000  0.4495200000000  0.4650410000000 1.0
C      1  0.5407870000000  0.5035480000000  0.4314660000000 1.0
C      1  0.5326530000000  0.5050840000000  0.5146140000000 1.0
C      1  0.5104010000000  0.5457240000000  0.4331200000000 1.0
C      1  0.4501110000000  0.5394810000000  0.4664380000000 1.0
C      1  0.4672270000000  0.4556920000000  0.5919650000000 1.0
C      1  0.5330310000000  0.4556560000000  0.5163950000000 1.0
C      1  0.6143040000000  0.4564760000000  0.4939110000000 1.0
C      1  0.4627770000000  0.5511640000000  0.4225000000000 1.0
C      1  0.4212130000000  0.5688190000000  0.4405850000000 1.0
C      1  0.4826590000000  0.4840710000000  0.4360900000000 1.0
C      1  0.4995120000000  0.4449920000000  0.4559620000000 1.0
C      1  0.6317000000000  0.4069740000000  0.4905820000000 1.0
C      1  0.4407390000000  0.4468410000000  0.5929990000000 1.0
C      1  0.4824550000000  0.5074810000000  0.4211500000000 1.0
C      1  0.4640060000000  0.5195600000000  0.4804060000000 1.0
C      1  0.4459720000000  0.4539060000000  0.5062650000000 1.0
C      1  0.4546070000000  0.4928560000000  0.4775290000000 1.0
C      1  0.4833370000000  0.4460130000000  0.5708340000000 1.0
C      1  0.5140040000000  0.4946480000000  0.5765700000000 1.0
C      1  0.5719370000000  0.5484390000000  0.5562620000000 1.0
C      1  0.5309900000000  0.4786070000000  0.4330490000000 1.0
C      1  0.4678540000000  0.4417980000000  0.4927230000000 1.0
C      1  0.4238950000000  0.5511290000000  0.5200270000000 1.0
C      1  0.4777090000000  0.4781050000000  0.6054780000000 1.0
C      1  0.6044540000000  0.4810140000000  0.4956430000000 1.0
C      1  0.6231510000000  0.4315470000000  0.4922280000000 1.0
C      1  0.4977620000000  0.4945490000000  0.5980320000000 1.0
C      1  0.4954860000000  0.5841470000000  0.4667250000000 1.0
C      1  0.5132150000000  0.4350830000000  0.4789670000000 1.0
C      1  0.4938690000000  0.4334290000000  0.5022630000000 1.0
C      1  0.4541750000000  0.5878390000000  0.4985940000000 1.0
C      1  0.5373770000000  0.4460010000000  0.4899790000000 1.0
C      1  0.5061840000000  0.4667500000000  0.4383030000000 1.0
END
