TITL C-612602-9376-913 14681.5766345628 125000 -707.126924785944 0 0 116 (C1) n - 1
REM
REM in /home/nfs/bkarasulu/CARBON/AIRSS/Generating-Clusters/TERSOFF/Only-C1/FIRE-HFTN
REM
REM
REM
REM
REM
REM ./C.cell (11c1c37f851c82e70ff6c80c92926a4b)
REM AIRSS Version 0.9.1 bugfix July 2018 build 013d7b7c2542+ Fri, 06 Jul 2018 19:26:36 +0100
REM compiler GCC version 9.2.1 20190827 (Red Hat 9.2.1-1)
REM options -cpp -mtune=generic -march=x86-64 -g -O0 -fpre-include=/usr/include/finclude/math-vector-fortran.h
REM seed -17911711 311856297 -724095243 -1681719117 -1969108001 511168208 -1918122526 579173649 -453558397 1603947048 -1120303479 -1597900436 1971546502 163718608 1545798173 1674684983 579956245 170458583 1989477253 -328801369 -1892929125 -1563666387 1085833242 319837820 861033424 1693089539 -409614712 1019142452 -1823908043 1616424884 -2021368714 -1023851651 -1769086351
REM
CELL 1.54180   50.00000   50.00000   50.00000   90.00000   90.00000   90.00000
LATT -1
SFAC C  
C      1  0.5990080000000  0.5337540000000  0.4766850000000 1.0
C      1  0.4511250000000  0.4169560000000  0.5608640000000 1.0
C      1  0.5674900000000  0.4778270000000  0.6163040000000 1.0
C      1  0.5121850000000  0.4930500000000  0.5748020000000 1.0
C      1  0.4706280000000  0.5570140000000  0.5396220000000 1.0
C      1  0.4809820000000  0.4898760000000  0.5332990000000 1.0
C      1  0.5443480000000  0.4437620000000  0.5379860000000 1.0
C      1  0.5108900000000  0.4527480000000  0.4239810000000 1.0
C      1  0.5790910000000  0.5322890000000  0.4552400000000 1.0
C      1  0.4149580000000  0.5107720000000  0.4624510000000 1.0
C      1  0.4006580000000  0.5409630000000  0.4981780000000 1.0
C      1  0.5574400000000  0.4687320000000  0.4917730000000 1.0
C      1  0.4524970000000  0.5640400000000  0.4495090000000 1.0
C      1  0.3822260000000  0.5438590000000  0.5163690000000 1.0
C      1  0.4198020000000  0.5358300000000  0.4780550000000 1.0
C      1  0.4100280000000  0.5131490000000  0.4339510000000 1.0
C      1  0.4307120000000  0.5436610000000  0.5643580000000 1.0
C      1  0.4908650000000  0.5474260000000  0.5563490000000 1.0
C      1  0.5370800000000  0.5592750000000  0.5033750000000 1.0
C      1  0.4447780000000  0.4880350000000  0.4088810000000 1.0
C      1  0.5811260000000  0.5319670000000  0.5248040000000 1.0
C      1  0.5704390000000  0.4283490000000  0.4580430000000 1.0
C      1  0.5605620000000  0.4059070000000  0.4709930000000 1.0
C      1  0.5093780000000  0.5531840000000  0.5099850000000 1.0
C      1  0.5608770000000  0.4571420000000  0.4218630000000 1.0
C      1  0.5518100000000  0.5362520000000  0.5148340000000 1.0
C      1  0.4912420000000  0.6012270000000  0.6036060000000 1.0
C      1  0.4445030000000  0.5608330000000  0.5489240000000 1.0
C      1  0.5073090000000  0.4499960000000  0.5912930000000 1.0
C      1  0.5945610000000  0.4955820000000  0.5042480000000 1.0
C      1  0.6000010000000  0.5241530000000  0.5037970000000 1.0
C      1  0.5193650000000  0.4319810000000  0.5287970000000 1.0
C      1  0.4218910000000  0.4824390000000  0.4701420000000 1.0
C      1  0.4278670000000  0.4263630000000  0.5510360000000 1.0
C      1  0.5776780000000  0.5086430000000  0.5448150000000 1.0
C      1  0.5303030000000  0.4785120000000  0.4869030000000 1.0
C      1  0.5242570000000  0.4827100000000  0.4596760000000 1.0
C      1  0.4609760000000  0.4735030000000  0.5791810000000 1.0
C      1  0.5064040000000  0.4641020000000  0.4496460000000 1.0
C      1  0.5549580000000  0.5669910000000  0.4302570000000 1.0
C      1  0.5680810000000  0.4305100000000  0.4294400000000 1.0
C      1  0.5833890000000  0.4837150000000  0.5298210000000 1.0
C      1  0.4801110000000  0.5609040000000  0.5142400000000 1.0
C      1  0.4379860000000  0.4720840000000  0.5590290000000 1.0
C      1  0.4235530000000  0.4530540000000  0.5434090000000 1.0
C      1  0.5604100000000  0.5558950000000  0.4557510000000 1.0
C      1  0.5199450000000  0.6153590000000  0.4842610000000 1.0
C      1  0.4930660000000  0.6158910000000  0.6250720000000 1.0
C      1  0.4129820000000  0.4610400000000  0.5179810000000 1.0
C      1  0.4864010000000  0.5313970000000  0.4803670000000 1.0
C      1  0.4946660000000  0.4551030000000  0.4957110000000 1.0
C      1  0.4866130000000  0.4566540000000  0.4686020000000 1.0
C      1  0.5228460000000  0.6423650000000  0.4814690000000 1.0
C      1  0.4796280000000  0.5876640000000  0.4786430000000 1.0
C      1  0.4477330000000  0.4275240000000  0.4690790000000 1.0
C      1  0.4874290000000  0.5555990000000  0.5834120000000 1.0
C      1  0.4598770000000  0.4525640000000  0.4627540000000 1.0
C      1  0.5360230000000  0.4511640000000  0.5885080000000 1.0
C      1  0.4410740000000  0.5561460000000  0.4755680000000 1.0
C      1  0.5481090000000  0.4394240000000  0.5657600000000 1.0
C      1  0.4758570000000  0.5318010000000  0.5970090000000 1.0
C      1  0.5348180000000  0.4644630000000  0.4112730000000 1.0
C      1  0.4907210000000  0.5851050000000  0.5807260000000 1.0
C      1  0.4373130000000  0.4986710000000  0.5472940000000 1.0
C      1  0.4534780000000  0.4654550000000  0.3940960000000 1.0
C      1  0.4148370000000  0.4603390000000  0.4894690000000 1.0
C      1  0.4774500000000  0.5055310000000  0.4456510000000 1.0
C      1  0.5514080000000  0.5162140000000  0.4843180000000 1.0
C      1  0.5479250000000  0.5772680000000  0.4073650000000 1.0
C      1  0.4946040000000  0.6042910000000  0.5264820000000 1.0
C      1  0.5532830000000  0.5115530000000  0.5593640000000 1.0
C      1  0.5277950000000  0.5106400000000  0.4564150000000 1.0
C      1  0.4533910000000  0.5033550000000  0.4971820000000 1.0
C      1  0.4770190000000  0.4285540000000  0.5602610000000 1.0
C      1  0.4576830000000  0.4894620000000  0.4339740000000 1.0
C      1  0.5057210000000  0.5253300000000  0.5000250000000 1.0
C      1  0.5138380000000  0.4347790000000  0.5010130000000 1.0
C      1  0.5126680000000  0.4105370000000  0.4858980000000 1.0
C      1  0.4956420000000  0.5462110000000  0.4567370000000 1.0
C      1  0.4965260000000  0.6040440000000  0.4964770000000 1.0
C      1  0.4801960000000  0.4034800000000  0.5168580000000 1.0
C      1  0.4390520000000  0.5173600000000  0.5686690000000 1.0
C      1  0.5700390000000  0.4558230000000  0.4677230000000 1.0
C      1  0.4815950000000  0.4513230000000  0.5783230000000 1.0
C      1  0.4552290000000  0.4996970000000  0.5253500000000 1.0
C      1  0.4597830000000  0.5088530000000  0.5874360000000 1.0
C      1  0.5718950000000  0.4754340000000  0.4436950000000 1.0
C      1  0.5705070000000  0.4955500000000  0.4884190000000 1.0
C      1  0.4852310000000  0.4014200000000  0.4875790000000 1.0
C      1  0.4443810000000  0.4736620000000  0.4537300000000 1.0
C      1  0.5375540000000  0.4920930000000  0.4032170000000 1.0
C      1  0.5396110000000  0.5972390000000  0.4751760000000 1.0
C      1  0.4205780000000  0.5031320000000  0.4106850000000 1.0
C      1  0.4893690000000  0.4339320000000  0.4174950000000 1.0
C      1  0.5559430000000  0.5094310000000  0.4142610000000 1.0
C      1  0.5084650000000  0.5278160000000  0.5478940000000 1.0
C      1  0.4817710000000  0.4133930000000  0.4375150000000 1.0
C      1  0.4937950000000  0.5977390000000  0.5536120000000 1.0
C      1  0.5724720000000  0.5062100000000  0.4386120000000 1.0
C      1  0.4939030000000  0.4196090000000  0.5385070000000 1.0
C      1  0.4812430000000  0.5710200000000  0.4533410000000 1.0
C      1  0.5624720000000  0.4620860000000  0.5223980000000 1.0
C      1  0.5493770000000  0.4754790000000  0.5962490000000 1.0
C      1  0.4690350000000  0.4083230000000  0.4641560000000 1.0
C      1  0.4221110000000  0.4334810000000  0.4797870000000 1.0
C      1  0.5359920000000  0.3980040000000  0.4778520000000 1.0
C      1  0.5042150000000  0.5223750000000  0.4418500000000 1.0
C      1  0.5401250000000  0.4962460000000  0.5793910000000 1.0
C      1  0.4697860000000  0.4443450000000  0.3993590000000 1.0
C      1  0.4946590000000  0.4781460000000  0.5124050000000 1.0
C      1  0.5473210000000  0.5701160000000  0.4785780000000 1.0
C      1  0.5362330000000  0.5277220000000  0.5413590000000 1.0
C      1  0.5140920000000  0.4967190000000  0.5027550000000 1.0
C      1  0.4685790000000  0.5108930000000  0.4740790000000 1.0
C      1  0.4976800000000  0.5016990000000  0.5526670000000 1.0
C      1  0.4615160000000  0.5696360000000  0.4942330000000 1.0
END
