TITL C-612603-7354-536 -1.6365776488377e-05 125000 -943.939690891994 0 0 154 (C1) n - 1
REM
REM in /home/nfs/bkarasulu/CARBON/AIRSS/Generating-Clusters/TERSOFF/Only-C1/FIRE-HFTN
REM
REM
REM
REM
REM
REM ./C.cell (11c1c37f851c82e70ff6c80c92926a4b)
REM AIRSS Version 0.9.1 bugfix July 2018 build 013d7b7c2542+ Fri, 06 Jul 2018 19:26:36 +0100
REM compiler GCC version 9.2.1 20190827 (Red Hat 9.2.1-1)
REM options -cpp -mtune=generic -march=x86-64 -g -O0 -fpre-include=/usr/include/finclude/math-vector-fortran.h
REM seed 1176848401 -370335424 -1053821303 451776632 1547722423 -2124420238 -1332436810 1271988482 1166303356 -1457324104 -1939711712 1306977732 -1806214725 -647656182 1296443330 396787152 1676945327 -2086435523 468891113 588235620 -904165906 2137575013 1151198832 -591240409 -1048252325 -769493150 907989682 1831610684 -1839290485 -171229042 520797252 1869926372 1185919076
REM
CELL 1.54180   50.00000   50.00000   50.00000   90.00000   90.00000   90.00000
LATT -1
SFAC C  
C      1  0.5003300000000  0.5441450000000  0.5970120000000 1.0
C      1  0.4871700000000  0.5893550000000  0.5006640000000 1.0
C      1  0.5511950000000  0.5072160000000  0.4133070000000 1.0
C      1  0.5767870000000  0.5083270000000  0.5985270000000 1.0
C      1  0.4683760000000  0.4462150000000  0.5061380000000 1.0
C      1  0.5472240000000  0.4773900000000  0.4635660000000 1.0
C      1  0.6039320000000  0.5486770000000  0.6045670000000 1.0
C      1  0.4091860000000  0.4405200000000  0.4888840000000 1.0
C      1  0.4374670000000  0.4762260000000  0.4807790000000 1.0
C      1  0.5375410000000  0.5332000000000  0.4210920000000 1.0
C      1  0.5560900000000  0.5526240000000  0.5163870000000 1.0
C      1  0.4176080000000  0.4751020000000  0.4338730000000 1.0
C      1  0.3994730000000  0.4901840000000  0.4504230000000 1.0
C      1  0.5209740000000  0.5555090000000  0.4739970000000 1.0
C      1  0.5124830000000  0.4735020000000  0.5376010000000 1.0
C      1  0.4108520000000  0.6047910000000  0.5589930000000 1.0
C      1  0.5047100000000  0.4826490000000  0.6150740000000 1.0
C      1  0.5321100000000  0.4009100000000  0.5122590000000 1.0
C      1  0.5329360000000  0.4919040000000  0.5466200000000 1.0
C      1  0.5106360000000  0.5418470000000  0.5404550000000 1.0
C      1  0.4434250000000  0.4539570000000  0.5628830000000 1.0
C      1  0.4041930000000  0.4785510000000  0.5770100000000 1.0
C      1  0.5374480000000  0.4488690000000  0.5985150000000 1.0
C      1  0.5650580000000  0.4689840000000  0.5173260000000 1.0
C      1  0.5443100000000  0.4503270000000  0.5117640000000 1.0
C      1  0.4603180000000  0.4980540000000  0.5106460000000 1.0
C      1  0.4682210000000  0.4238870000000  0.4139640000000 1.0
C      1  0.4621410000000  0.4701770000000  0.5209220000000 1.0
C      1  0.4991150000000  0.5136320000000  0.4682550000000 1.0
C      1  0.4680810000000  0.4004730000000  0.5523150000000 1.0
C      1  0.5501880000000  0.4992940000000  0.4815570000000 1.0
C      1  0.5172390000000  0.5673200000000  0.5506610000000 1.0
C      1  0.4515660000000  0.5737490000000  0.5752360000000 1.0
C      1  0.4402810000000  0.5558940000000  0.4695080000000 1.0
C      1  0.6114960000000  0.5022290000000  0.4638520000000 1.0
C      1  0.3878400000000  0.5370330000000  0.5391020000000 1.0
C      1  0.4982080000000  0.4704570000000  0.4151640000000 1.0
C      1  0.4949100000000  0.5705200000000  0.5942560000000 1.0
C      1  0.5236480000000  0.5094030000000  0.4822290000000 1.0
C      1  0.5962050000000  0.5064750000000  0.5168750000000 1.0
C      1  0.5432100000000  0.4797400000000  0.4079830000000 1.0
C      1  0.5865500000000  0.5300870000000  0.6141120000000 1.0
C      1  0.5170570000000  0.4782710000000  0.3961030000000 1.0
C      1  0.4742880000000  0.4537010000000  0.3698090000000 1.0
C      1  0.5133280000000  0.5467870000000  0.4129570000000 1.0
C      1  0.5869590000000  0.4832290000000  0.5559460000000 1.0
C      1  0.4176580000000  0.4634970000000  0.5559760000000 1.0
C      1  0.3803560000000  0.5828610000000  0.5262400000000 1.0
C      1  0.4977850000000  0.5348590000000  0.3918890000000 1.0
C      1  0.4848510000000  0.4066220000000  0.5303530000000 1.0
C      1  0.3852180000000  0.4484950000000  0.4756160000000 1.0
C      1  0.4869630000000  0.5875740000000  0.4443480000000 1.0
C      1  0.5217730000000  0.5305600000000  0.3497300000000 1.0
C      1  0.4882790000000  0.5423600000000  0.5227340000000 1.0
C      1  0.5740040000000  0.5957890000000  0.5073010000000 1.0
C      1  0.4796720000000  0.5819170000000  0.5724960000000 1.0
C      1  0.5690840000000  0.4973840000000  0.5026600000000 1.0
C      1  0.5278990000000  0.6105290000000  0.5117550000000 1.0
C      1  0.5546820000000  0.5338460000000  0.5371680000000 1.0
C      1  0.5030010000000  0.5704820000000  0.4268820000000 1.0
C      1  0.4969830000000  0.4469800000000  0.5773520000000 1.0
C      1  0.6028400000000  0.5557330000000  0.5207520000000 1.0
C      1  0.5644910000000  0.4600520000000  0.4496130000000 1.0
C      1  0.4926340000000  0.4630490000000  0.5547560000000 1.0
C      1  0.4210220000000  0.4635690000000  0.5018980000000 1.0
C      1  0.4549450000000  0.4966350000000  0.6049180000000 1.0
C      1  0.4772520000000  0.5127710000000  0.5631790000000 1.0
C      1  0.5322500000000  0.4755650000000  0.6084720000000 1.0
C      1  0.4918590000000  0.4104200000000  0.4209760000000 1.0
C      1  0.4280820000000  0.4214440000000  0.4779810000000 1.0
C      1  0.5977340000000  0.4549680000000  0.4850970000000 1.0
C      1  0.4526690000000  0.4368890000000  0.5836060000000 1.0
C      1  0.4766460000000  0.4765990000000  0.6088600000000 1.0
C      1  0.5218570000000  0.4340850000000  0.5798230000000 1.0
C      1  0.5089310000000  0.5189040000000  0.3708770000000 1.0
C      1  0.4424420000000  0.5037860000000  0.4881580000000 1.0
C      1  0.4749210000000  0.4180160000000  0.5062630000000 1.0
C      1  0.5596740000000  0.4797470000000  0.5457590000000 1.0
C      1  0.4788330000000  0.4107940000000  0.4771660000000 1.0
C      1  0.6184450000000  0.5502370000000  0.4664570000000 1.0
C      1  0.4653100000000  0.4652790000000  0.5479640000000 1.0
C      1  0.5784200000000  0.5125150000000  0.4207670000000 1.0
C      1  0.4764930000000  0.4978980000000  0.4603450000000 1.0
C      1  0.5205110000000  0.4676460000000  0.4631150000000 1.0
C      1  0.5086060000000  0.4102590000000  0.4668290000000 1.0
C      1  0.3975180000000  0.5510510000000  0.4938200000000 1.0
C      1  0.4525020000000  0.5138890000000  0.4618590000000 1.0
C      1  0.4682640000000  0.5517750000000  0.4799010000000 1.0
C      1  0.6049940000000  0.5274730000000  0.5608730000000 1.0
C      1  0.4444490000000  0.5233060000000  0.4367670000000 1.0
C      1  0.4258670000000  0.5050380000000  0.5381910000000 1.0
C      1  0.5810100000000  0.5330100000000  0.4410640000000 1.0
C      1  0.4495680000000  0.5102860000000  0.5571900000000 1.0
C      1  0.5418110000000  0.5672770000000  0.4572020000000 1.0
C      1  0.5338490000000  0.5536560000000  0.4993620000000 1.0
C      1  0.4771070000000  0.5628900000000  0.5053930000000 1.0
C      1  0.4886670000000  0.4745700000000  0.3571530000000 1.0
C      1  0.5184090000000  0.4604720000000  0.5124970000000 1.0
C      1  0.5481690000000  0.5935050000000  0.4672630000000 1.0
C      1  0.5283040000000  0.4149100000000  0.5595840000000 1.0
C      1  0.4856800000000  0.4791870000000  0.3303600000000 1.0
C      1  0.5065870000000  0.4904420000000  0.3729010000000 1.0
C      1  0.5767860000000  0.4415780000000  0.4685190000000 1.0
C      1  0.4948900000000  0.5422410000000  0.4688170000000 1.0
C      1  0.4808040000000  0.4561520000000  0.4831040000000 1.0
C      1  0.5356590000000  0.4304230000000  0.4255770000000 1.0
C      1  0.4935900000000  0.5228120000000  0.5821190000000 1.0
C      1  0.4036470000000  0.5185670000000  0.5522160000000 1.0
C      1  0.4504260000000  0.4306180000000  0.4353500000000 1.0
C      1  0.4563100000000  0.4101140000000  0.5746930000000 1.0
C      1  0.5936250000000  0.4598830000000  0.5136880000000 1.0
C      1  0.6044310000000  0.5298990000000  0.5319750000000 1.0
C      1  0.4594290000000  0.5893280000000  0.4373360000000 1.0
C      1  0.4426860000000  0.5479530000000  0.5867490000000 1.0
C      1  0.5908990000000  0.5050320000000  0.5733280000000 1.0
C      1  0.4501430000000  0.5302150000000  0.4117580000000 1.0
C      1  0.4391730000000  0.5767790000000  0.4499910000000 1.0
C      1  0.4526580000000  0.4180750000000  0.4619550000000 1.0
C      1  0.5544650000000  0.4036430000000  0.5537590000000 1.0
C      1  0.4369590000000  0.5166070000000  0.5862830000000 1.0
C      1  0.5536310000000  0.4940700000000  0.6063000000000 1.0
C      1  0.6115130000000  0.4763780000000  0.4715930000000 1.0
C      1  0.5501060000000  0.6041370000000  0.4942380000000 1.0
C      1  0.4913200000000  0.5957090000000  0.4722090000000 1.0
C      1  0.4039640000000  0.5175990000000  0.4591330000000 1.0
C      1  0.5518190000000  0.4549030000000  0.4237930000000 1.0
C      1  0.5790820000000  0.5692080000000  0.5145810000000 1.0
C      1  0.4144880000000  0.5411190000000  0.4735230000000 1.0
C      1  0.5139330000000  0.4153830000000  0.4379710000000 1.0
C      1  0.6033370000000  0.5290270000000  0.4581590000000 1.0
C      1  0.4182310000000  0.4768260000000  0.5292750000000 1.0
C      1  0.5564490000000  0.3952500000000  0.5274140000000 1.0
C      1  0.5553190000000  0.5480570000000  0.4404750000000 1.0
C      1  0.5073430000000  0.4617440000000  0.4868800000000 1.0
C      1  0.4642740000000  0.4715560000000  0.4673330000000 1.0
C      1  0.6048570000000  0.4805100000000  0.5314480000000 1.0
C      1  0.5024270000000  0.6010710000000  0.5220010000000 1.0
C      1  0.4322430000000  0.4524820000000  0.4310100000000 1.0
C      1  0.4321460000000  0.5932960000000  0.5699130000000 1.0
C      1  0.5588390000000  0.4197580000000  0.4756580000000 1.0
C      1  0.4699020000000  0.5352380000000  0.3947180000000 1.0
C      1  0.3865790000000  0.5565410000000  0.5189450000000 1.0
C      1  0.4666940000000  0.4362460000000  0.3886260000000 1.0
C      1  0.5045330000000  0.4660690000000  0.4404600000000 1.0
C      1  0.5129910000000  0.4079670000000  0.5342710000000 1.0
C      1  0.6132040000000  0.5476060000000  0.5790390000000 1.0
C      1  0.5305220000000  0.5205270000000  0.5439310000000 1.0
C      1  0.4751430000000  0.4501430000000  0.5963650000000 1.0
C      1  0.3903860000000  0.6017590000000  0.5422040000000 1.0
C      1  0.3810330000000  0.4727110000000  0.4636650000000 1.0
C      1  0.4784770000000  0.5171080000000  0.5176640000000 1.0
C      1  0.4978350000000  0.5889960000000  0.5492010000000 1.0
C      1  0.4077720000000  0.5074320000000  0.5795980000000 1.0
C      1  0.5328310000000  0.4089120000000  0.4845130000000 1.0
END
