TITL C-612601-4209-1197 11438.1265773451 125000 -805.075047374245 0 0 133 (C1) n - 1
REM
REM in /home/nfs/bkarasulu/CARBON/AIRSS/Generating-Clusters/TERSOFF/Only-C1/FIRE-HFTN
REM
REM
REM
REM
REM
REM ./C.cell (11c1c37f851c82e70ff6c80c92926a4b)
REM AIRSS Version 0.9.1 bugfix July 2018 build 013d7b7c2542+ Fri, 06 Jul 2018 19:26:36 +0100
REM compiler GCC version 9.2.1 20190827 (Red Hat 9.2.1-1)
REM options -cpp -mtune=generic -march=x86-64 -g -O0 -fpre-include=/usr/include/finclude/math-vector-fortran.h
REM seed -778700733 1814964848 875585660 1399212154 15663710 -646995270 1675818219 1721493180 -479249205 -1163752320 -362173994 1439280602 -1028753491 -1978216306 -437609256 -995892653 -725061825 -1095050420 1770539836 1545708626 991484382 -1475811038 -1988476407 -1682761518 -342553868 25401086 437919760 1416744605 -1160971363 -1226089128 812038904 -584555668 1412459645
REM
CELL 1.54180   50.00000   50.00000   50.00000   90.00000   90.00000   90.00000
LATT -1
SFAC C  
C      1  0.5421960000000  0.5282690000000  0.4204600000000 1.0
C      1  0.4783820000000  0.5304620000000  0.6033840000000 1.0
C      1  0.5010520000000  0.4154890000000  0.4478510000000 1.0
C      1  0.4697940000000  0.3962040000000  0.5172490000000 1.0
C      1  0.4378820000000  0.4922670000000  0.4556780000000 1.0
C      1  0.4451520000000  0.5747850000000  0.4747830000000 1.0
C      1  0.4873560000000  0.4401240000000  0.4506900000000 1.0
C      1  0.5703780000000  0.4770610000000  0.5662960000000 1.0
C      1  0.4495530000000  0.5197980000000  0.4967970000000 1.0
C      1  0.5233800000000  0.4984860000000  0.5927550000000 1.0
C      1  0.5556710000000  0.4044570000000  0.3849790000000 1.0
C      1  0.4271400000000  0.4428550000000  0.4752970000000 1.0
C      1  0.4172460000000  0.5625420000000  0.5140040000000 1.0
C      1  0.4480490000000  0.5166380000000  0.4682260000000 1.0
C      1  0.5604960000000  0.5702680000000  0.5743880000000 1.0
C      1  0.4186800000000  0.4694000000000  0.5545410000000 1.0
C      1  0.4689910000000  0.4377120000000  0.5460680000000 1.0
C      1  0.3883060000000  0.5043090000000  0.5351580000000 1.0
C      1  0.5389220000000  0.4542650000000  0.5148800000000 1.0
C      1  0.3829160000000  0.4590820000000  0.5117560000000 1.0
C      1  0.5021020000000  0.5989590000000  0.4739890000000 1.0
C      1  0.5470120000000  0.3945100000000  0.5019860000000 1.0
C      1  0.4516740000000  0.4614750000000  0.5882150000000 1.0
C      1  0.5028570000000  0.5011790000000  0.4425330000000 1.0
C      1  0.5961170000000  0.4573190000000  0.4978350000000 1.0
C      1  0.4113400000000  0.5169540000000  0.5474690000000 1.0
C      1  0.4034970000000  0.4405080000000  0.5162020000000 1.0
C      1  0.4480860000000  0.4905130000000  0.5851290000000 1.0
C      1  0.4935090000000  0.3786930000000  0.5109490000000 1.0
C      1  0.5639620000000  0.5159920000000  0.4809030000000 1.0
C      1  0.5206130000000  0.5661760000000  0.4440320000000 1.0
C      1  0.4762830000000  0.5962120000000  0.5591760000000 1.0
C      1  0.5148660000000  0.4144770000000  0.5324480000000 1.0
C      1  0.4271160000000  0.4963960000000  0.5637300000000 1.0
C      1  0.5897080000000  0.5484000000000  0.4572070000000 1.0
C      1  0.6040310000000  0.4842490000000  0.5014530000000 1.0
C      1  0.5552740000000  0.5272790000000  0.6119780000000 1.0
C      1  0.5121360000000  0.5674100000000  0.5683580000000 1.0
C      1  0.4004200000000  0.5729210000000  0.4924220000000 1.0
C      1  0.5026500000000  0.4704730000000  0.5578720000000 1.0
C      1  0.5545950000000  0.4326390000000  0.4769690000000 1.0
C      1  0.4691620000000  0.5619790000000  0.3107130000000 1.0
C      1  0.5299610000000  0.5505190000000  0.4987600000000 1.0
C      1  0.5558490000000  0.4320710000000  0.5548010000000 1.0
C      1  0.4637490000000  0.4402880000000  0.5762900000000 1.0
C      1  0.4437950000000  0.5658170000000  0.5025690000000 1.0
C      1  0.4868550000000  0.4586790000000  0.4287660000000 1.0
C      1  0.4862270000000  0.4212920000000  0.5265650000000 1.0
C      1  0.5987180000000  0.5401190000000  0.5016980000000 1.0
C      1  0.4623500000000  0.4684040000000  0.4187470000000 1.0
C      1  0.5811390000000  0.4979770000000  0.5826230000000 1.0
C      1  0.5365670000000  0.4690780000000  0.4288850000000 1.0
C      1  0.5421010000000  0.5324150000000  0.5520310000000 1.0
C      1  0.4192410000000  0.4453380000000  0.5400610000000 1.0
C      1  0.5115950000000  0.4963300000000  0.4689300000000 1.0
C      1  0.5791460000000  0.4329200000000  0.4943950000000 1.0
C      1  0.5309950000000  0.4535880000000  0.5928260000000 1.0
C      1  0.4964010000000  0.5325230000000  0.5358270000000 1.0
C      1  0.5623370000000  0.5797290000000  0.4801800000000 1.0
C      1  0.5346740000000  0.4506330000000  0.4869770000000 1.0
C      1  0.3783500000000  0.4841390000000  0.5205130000000 1.0
C      1  0.4677660000000  0.5682670000000  0.3643140000000 1.0
C      1  0.5053790000000  0.6142790000000  0.5197250000000 1.0
C      1  0.5163890000000  0.4750410000000  0.6080950000000 1.0
C      1  0.5462900000000  0.4479730000000  0.4135740000000 1.0
C      1  0.4848650000000  0.5736620000000  0.5737790000000 1.0
C      1  0.4152600000000  0.5436580000000  0.5361320000000 1.0
C      1  0.4956360000000  0.5766290000000  0.4566550000000 1.0
C      1  0.4444070000000  0.5772220000000  0.3768010000000 1.0
C      1  0.5224860000000  0.4018570000000  0.4566720000000 1.0
C      1  0.4490120000000  0.4985780000000  0.5153350000000 1.0
C      1  0.5204030000000  0.4720690000000  0.4766020000000 1.0
C      1  0.5746190000000  0.4148830000000  0.5416230000000 1.0
C      1  0.4748580000000  0.4842410000000  0.5186720000000 1.0
C      1  0.5470580000000  0.5987700000000  0.4957880000000 1.0
C      1  0.4280200000000  0.4692030000000  0.4691420000000 1.0
C      1  0.4601410000000  0.5441200000000  0.5071810000000 1.0
C      1  0.4253940000000  0.5836100000000  0.3941470000000 1.0
C      1  0.4902940000000  0.5620870000000  0.3796870000000 1.0
C      1  0.4680980000000  0.5638540000000  0.4591440000000 1.0
C      1  0.3734070000000  0.5759740000000  0.4939290000000 1.0
C      1  0.5560040000000  0.4770670000000  0.5147440000000 1.0
C      1  0.5600910000000  0.4888700000000  0.4815960000000 1.0
C      1  0.5588820000000  0.3608600000000  0.3557740000000 1.0
C      1  0.5600320000000  0.4874840000000  0.5405740000000 1.0
C      1  0.5719270000000  0.4097520000000  0.5132650000000 1.0
C      1  0.4873460000000  0.6107060000000  0.5392830000000 1.0
C      1  0.5054510000000  0.5601700000000  0.5010460000000 1.0
C      1  0.5455470000000  0.5735480000000  0.4567130000000 1.0
C      1  0.4820300000000  0.4488970000000  0.4775840000000 1.0
C      1  0.4773690000000  0.4735260000000  0.4905990000000 1.0
C      1  0.5437540000000  0.4056240000000  0.4745440000000 1.0
C      1  0.5164930000000  0.5447470000000  0.5519680000000 1.0
C      1  0.4123410000000  0.5868830000000  0.4170240000000 1.0
C      1  0.5722260000000  0.5244540000000  0.5890880000000 1.0
C      1  0.5214660000000  0.3905810000000  0.5162910000000 1.0
C      1  0.5742460000000  0.5252010000000  0.4554870000000 1.0
C      1  0.4169140000000  0.5795260000000  0.4689880000000 1.0
C      1  0.4693910000000  0.5026280000000  0.6016420000000 1.0
C      1  0.5089280000000  0.5560340000000  0.3975310000000 1.0
C      1  0.4216210000000  0.4258040000000  0.4974350000000 1.0
C      1  0.5488120000000  0.5323690000000  0.4970330000000 1.0
C      1  0.4849260000000  0.5218970000000  0.4378090000000 1.0
C      1  0.5236760000000  0.5499740000000  0.4204780000000 1.0
C      1  0.4685540000000  0.5653500000000  0.3365490000000 1.0
C      1  0.5341750000000  0.4352500000000  0.5354210000000 1.0
C      1  0.4854100000000  0.5494790000000  0.5165830000000 1.0
C      1  0.5105120000000  0.4474790000000  0.5732980000000 1.0
C      1  0.5392940000000  0.5049600000000  0.5485060000000 1.0
C      1  0.5866180000000  0.5615180000000  0.4832460000000 1.0
C      1  0.5355810000000  0.5811130000000  0.5763650000000 1.0
C      1  0.5565220000000  0.4526450000000  0.5757930000000 1.0
C      1  0.5575420000000  0.3824240000000  0.3703630000000 1.0
C      1  0.4803250000000  0.4652350000000  0.5406820000000 1.0
C      1  0.6047190000000  0.5123870000000  0.5040560000000 1.0
C      1  0.5087760000000  0.4771550000000  0.4276440000000 1.0
C      1  0.5537710000000  0.4847730000000  0.4454840000000 1.0
C      1  0.4893750000000  0.4325540000000  0.4988640000000 1.0
C      1  0.5038830000000  0.5338320000000  0.6164380000000 1.0
C      1  0.5189820000000  0.6064860000000  0.4961650000000 1.0
C      1  0.5636410000000  0.5426590000000  0.5682460000000 1.0
C      1  0.5523280000000  0.4265770000000  0.3991810000000 1.0
C      1  0.4707070000000  0.5534550000000  0.5882150000000 1.0
C      1  0.5189920000000  0.4935710000000  0.5647310000000 1.0
C      1  0.4939730000000  0.5061930000000  0.5267380000000 1.0
C      1  0.4421920000000  0.4104870000000  0.5139810000000 1.0
C      1  0.5595890000000  0.5117290000000  0.4354930000000 1.0
C      1  0.4085530000000  0.5858640000000  0.4432860000000 1.0
C      1  0.4881310000000  0.4818960000000  0.6143510000000 1.0
C      1  0.4652270000000  0.5351430000000  0.4530480000000 1.0
C      1  0.4420360000000  0.4285090000000  0.5379050000000 1.0
C      1  0.5278960000000  0.5213540000000  0.6088340000000 1.0
C      1  0.4448450000000  0.4863020000000  0.4287920000000 1.0
END
