TITL C-612602-9376-1162 0.000741982179005679 125000 -825.05230329105 0 0 134 (C1) n - 1
REM
REM in /home/nfs/bkarasulu/CARBON/AIRSS/Generating-Clusters/TERSOFF/Only-C1/FIRE-HFTN
REM
REM
REM
REM
REM
REM ./C.cell (11c1c37f851c82e70ff6c80c92926a4b)
REM AIRSS Version 0.9.1 bugfix July 2018 build 013d7b7c2542+ Fri, 06 Jul 2018 19:26:36 +0100
REM compiler GCC version 9.2.1 20190827 (Red Hat 9.2.1-1)
REM options -cpp -mtune=generic -march=x86-64 -g -O0 -fpre-include=/usr/include/finclude/math-vector-fortran.h
REM seed 61835852 224531359 764491306 -2026363644 -1703598899 -1851790308 -1901579380 839219506 -946924375 1902001096 -182568586 -1955241297 1615369905 -572549291 -2111492735 962816240 -357817898 -1876823190 1936619664 -671586265 1229472569 886183466 -65406651 -2028705349 -489288382 754109955 -645472608 561380112 745261431 -2092273005 1240415402 1136221734 5804055
REM
CELL 1.54180   50.00000   50.00000   50.00000   90.00000   90.00000   90.00000
LATT -1
SFAC C  
C      1  0.4239980000000  0.5488570000000  0.5362460000000 1.0
C      1  0.4538380000000  0.4055050000000  0.5071750000000 1.0
C      1  0.4824450000000  0.5533740000000  0.5809500000000 1.0
C      1  0.4122160000000  0.4631250000000  0.4156940000000 1.0
C      1  0.4483240000000  0.4104940000000  0.5578010000000 1.0
C      1  0.5413320000000  0.4693270000000  0.5220490000000 1.0
C      1  0.4877970000000  0.4708530000000  0.4549650000000 1.0
C      1  0.5545160000000  0.5390490000000  0.5024390000000 1.0
C      1  0.4238910000000  0.5688000000000  0.5804060000000 1.0
C      1  0.4199510000000  0.4507620000000  0.5103070000000 1.0
C      1  0.5881150000000  0.4583840000000  0.4836580000000 1.0
C      1  0.4780760000000  0.4624250000000  0.5940970000000 1.0
C      1  0.5230440000000  0.4682530000000  0.6034720000000 1.0
C      1  0.5095450000000  0.5454280000000  0.4657100000000 1.0
C      1  0.5825810000000  0.4529800000000  0.5146790000000 1.0
C      1  0.4391730000000  0.5268420000000  0.4226800000000 1.0
C      1  0.4743910000000  0.4978120000000  0.4042220000000 1.0
C      1  0.5263350000000  0.4994080000000  0.4585720000000 1.0
C      1  0.4979720000000  0.4199950000000  0.4192090000000 1.0
C      1  0.4678020000000  0.4060370000000  0.4572400000000 1.0
C      1  0.5065080000000  0.5385550000000  0.5781230000000 1.0
C      1  0.5069830000000  0.5980160000000  0.5235110000000 1.0
C      1  0.5814060000000  0.5388360000000  0.4902370000000 1.0
C      1  0.4308660000000  0.5717980000000  0.5531160000000 1.0
C      1  0.4217460000000  0.4794310000000  0.5496850000000 1.0
C      1  0.5189240000000  0.5188270000000  0.5965640000000 1.0
C      1  0.4468160000000  0.4618260000000  0.4729880000000 1.0
C      1  0.5130080000000  0.5486970000000  0.5263620000000 1.0
C      1  0.5170340000000  0.5908230000000  0.4745930000000 1.0
C      1  0.5397610000000  0.5074030000000  0.5801540000000 1.0
C      1  0.4753810000000  0.5682750000000  0.4282500000000 1.0
C      1  0.5045810000000  0.4880820000000  0.4407660000000 1.0
C      1  0.5299120000000  0.5688170000000  0.4305030000000 1.0
C      1  0.5388750000000  0.5829920000000  0.4561010000000 1.0
C      1  0.5107850000000  0.5329140000000  0.5495600000000 1.0
C      1  0.4620220000000  0.5147970000000  0.5409340000000 1.0
C      1  0.5868700000000  0.4968030000000  0.4480000000000 1.0
C      1  0.4891060000000  0.5931030000000  0.4670260000000 1.0
C      1  0.5503690000000  0.4645340000000  0.3664280000000 1.0
C      1  0.5144680000000  0.4679590000000  0.3991840000000 1.0
C      1  0.4213140000000  0.5498520000000  0.4646710000000 1.0
C      1  0.4821080000000  0.5788640000000  0.5645050000000 1.0
C      1  0.5430560000000  0.4261310000000  0.5493520000000 1.0
C      1  0.4077500000000  0.5342010000000  0.5186920000000 1.0
C      1  0.4459540000000  0.4318020000000  0.5748670000000 1.0
C      1  0.5656520000000  0.4340180000000  0.5328980000000 1.0
C      1  0.4760770000000  0.3753500000000  0.5359370000000 1.0
C      1  0.4887570000000  0.5446460000000  0.4841060000000 1.0
C      1  0.4427400000000  0.4682700000000  0.5007800000000 1.0
C      1  0.5072930000000  0.3813500000000  0.4489250000000 1.0
C      1  0.4566880000000  0.5073540000000  0.4705390000000 1.0
C      1  0.4818210000000  0.4858790000000  0.6106290000000 1.0
C      1  0.5048600000000  0.4512910000000  0.5863140000000 1.0
C      1  0.5445650000000  0.4743540000000  0.4618830000000 1.0
C      1  0.5288730000000  0.4545950000000  0.4760670000000 1.0
C      1  0.5376170000000  0.5404590000000  0.4276610000000 1.0
C      1  0.4915450000000  0.4379130000000  0.5394820000000 1.0
C      1  0.4573400000000  0.3965320000000  0.5342700000000 1.0
C      1  0.4186360000000  0.5275190000000  0.4439880000000 1.0
C      1  0.5924030000000  0.5475910000000  0.5462140000000 1.0
C      1  0.5113850000000  0.4359750000000  0.5614240000000 1.0
C      1  0.5731670000000  0.4743160000000  0.4622060000000 1.0
C      1  0.4468470000000  0.5024560000000  0.4092350000000 1.0
C      1  0.5652980000000  0.5807050000000  0.4703660000000 1.0
C      1  0.4411340000000  0.5708950000000  0.4625490000000 1.0
C      1  0.4666220000000  0.4714380000000  0.5198560000000 1.0
C      1  0.4621390000000  0.4808300000000  0.4600500000000 1.0
C      1  0.4527130000000  0.4591680000000  0.5821150000000 1.0
C      1  0.5905880000000  0.5718030000000  0.5350120000000 1.0
C      1  0.5042610000000  0.4367090000000  0.5133500000000 1.0
C      1  0.4591820000000  0.5789450000000  0.5464630000000 1.0
C      1  0.5704310000000  0.5942700000000  0.4960310000000 1.0
C      1  0.5091340000000  0.4947020000000  0.6102150000000 1.0
C      1  0.4405700000000  0.4843860000000  0.5715810000000 1.0
C      1  0.5484310000000  0.5028390000000  0.3960970000000 1.0
C      1  0.5853870000000  0.5218930000000  0.5481540000000 1.0
C      1  0.5075350000000  0.5045350000000  0.5449290000000 1.0
C      1  0.5550080000000  0.6016080000000  0.5448600000000 1.0
C      1  0.5959000000000  0.4788340000000  0.5260390000000 1.0
C      1  0.4268810000000  0.4519560000000  0.5382570000000 1.0
C      1  0.4947350000000  0.5029990000000  0.4993300000000 1.0
C      1  0.5788390000000  0.5193500000000  0.4310790000000 1.0
C      1  0.4990990000000  0.4876330000000  0.4130550000000 1.0
C      1  0.4035450000000  0.5028110000000  0.4540700000000 1.0
C      1  0.4507660000000  0.5380360000000  0.5300230000000 1.0
C      1  0.4290160000000  0.4936590000000  0.5051260000000 1.0
C      1  0.4571170000000  0.5488660000000  0.4184930000000 1.0
C      1  0.5557040000000  0.5223550000000  0.4149410000000 1.0
C      1  0.5278740000000  0.4919960000000  0.5599140000000 1.0
C      1  0.4331000000000  0.5123290000000  0.4855970000000 1.0
C      1  0.5080260000000  0.4407750000000  0.4051470000000 1.0
C      1  0.4671760000000  0.5800500000000  0.4535580000000 1.0
C      1  0.5057620000000  0.5931530000000  0.5526640000000 1.0
C      1  0.4587720000000  0.5354070000000  0.5852690000000 1.0
C      1  0.4646150000000  0.4505420000000  0.5372420000000 1.0
C      1  0.5257450000000  0.5282600000000  0.4503450000000 1.0
C      1  0.4682790000000  0.4145370000000  0.4843880000000 1.0
C      1  0.5468620000000  0.4600600000000  0.6137510000000 1.0
C      1  0.3996500000000  0.4579340000000  0.4389630000000 1.0
C      1  0.5027430000000  0.5733040000000  0.4209450000000 1.0
C      1  0.5284120000000  0.4514120000000  0.5050150000000 1.0
C      1  0.4549230000000  0.5103230000000  0.5690080000000 1.0
C      1  0.5071470000000  0.3613540000000  0.4968460000000 1.0
C      1  0.5121890000000  0.3673650000000  0.4712850000000 1.0
C      1  0.5813540000000  0.5567880000000  0.4668960000000 1.0
C      1  0.4169750000000  0.5359560000000  0.4901530000000 1.0
C      1  0.5329210000000  0.5983410000000  0.5606200000000 1.0
C      1  0.5875430000000  0.5447670000000  0.4420280000000 1.0
C      1  0.3986810000000  0.4742030000000  0.4626630000000 1.0
C      1  0.4778680000000  0.5191370000000  0.4834490000000 1.0
C      1  0.5230830000000  0.5859220000000  0.5025150000000 1.0
C      1  0.5731300000000  0.5917400000000  0.5249410000000 1.0
C      1  0.6084150000000  0.5083250000000  0.4632960000000 1.0
C      1  0.6026100000000  0.5165690000000  0.4906110000000 1.0
C      1  0.4900580000000  0.4017940000000  0.4396140000000 1.0
C      1  0.4891220000000  0.4329640000000  0.4891310000000 1.0
C      1  0.6122810000000  0.4919100000000  0.5052530000000 1.0
C      1  0.5208800000000  0.5036340000000  0.4887820000000 1.0
C      1  0.4895350000000  0.5550110000000  0.5105150000000 1.0
C      1  0.5775500000000  0.4982030000000  0.5357660000000 1.0
C      1  0.6160170000000  0.4693690000000  0.4861750000000 1.0
C      1  0.5548940000000  0.4942180000000  0.5189380000000 1.0
C      1  0.4944500000000  0.3636390000000  0.5202680000000 1.0
C      1  0.5381170000000  0.4780870000000  0.3867470000000 1.0
C      1  0.5007490000000  0.4497060000000  0.4686710000000 1.0
C      1  0.4665090000000  0.5610260000000  0.5243270000000 1.0
C      1  0.4835570000000  0.4968510000000  0.5268680000000 1.0
C      1  0.4357940000000  0.5491950000000  0.5950540000000 1.0
C      1  0.5431530000000  0.5131010000000  0.5030340000000 1.0
C      1  0.4153120000000  0.5000240000000  0.5285680000000 1.0
C      1  0.5353890000000  0.5595720000000  0.5111080000000 1.0
C      1  0.4285900000000  0.4814880000000  0.4051570000000 1.0
C      1  0.5373090000000  0.4689460000000  0.5496860000000 1.0
C      1  0.3996310000000  0.4585660000000  0.4888820000000 1.0
END
