TITL C-612601-4209-774 0.0814745070552377 125000 -126.951525524425 0 0 24 (C1) n - 1
REM
REM in /home/nfs/bkarasulu/CARBON/AIRSS/Generating-Clusters/TERSOFF/Only-C1/FIRE-HFTN
REM
REM
REM
REM
REM
REM ./C.cell (11c1c37f851c82e70ff6c80c92926a4b)
REM AIRSS Version 0.9.1 bugfix July 2018 build 013d7b7c2542+ Fri, 06 Jul 2018 19:26:36 +0100
REM compiler GCC version 9.2.1 20190827 (Red Hat 9.2.1-1)
REM options -cpp -mtune=generic -march=x86-64 -g -O0 -fpre-include=/usr/include/finclude/math-vector-fortran.h
REM seed -1980772286 -988872455 -649619355 -1901997784 173127637 2070159661 -413650182 982725304 -2098403248 422187157 -556085001 58380344 -1314580898 116520243 -834174405 -73523589 1918171519 -1621040772 -835250450 1532202155 -2126696419 1254676225 -392361789 467529528 -1710820304 -1981817460 -362682269 -1603803420 883194273 633136350 -1548887725 932098891 -1625352745
REM
CELL 1.54180   50.00000   50.00000   50.00000   90.00000   90.00000   90.00000
LATT -1
SFAC C  
C      1  0.3913710000000  0.5024560000000  0.4732820000000 1.0
C      1  0.4749470000000  0.5509310000000  0.4684070000000 1.0
C      1  0.4164000000000  0.5085540000000  0.4772260000000 1.0
C      1  0.4810790000000  0.5122640000000  0.5188490000000 1.0
C      1  0.4781750000000  0.3991730000000  0.5306710000000 1.0
C      1  0.5600470000000  0.4500870000000  0.5194590000000 1.0
C      1  0.4588410000000  0.5273210000000  0.4611510000000 1.0
C      1  0.4966150000000  0.4175330000000  0.5322480000000 1.0
C      1  0.4563150000000  0.5098800000000  0.5057690000000 1.0
C      1  0.4431280000000  0.5150630000000  0.4812640000000 1.0
C      1  0.5434530000000  0.4626400000000  0.5642720000000 1.0
C      1  0.5240200000000  0.4837630000000  0.5241490000000 1.0
C      1  0.5037140000000  0.5438650000000  0.4680700000000 1.0
C      1  0.5352870000000  0.4582390000000  0.5352480000000 1.0
C      1  0.5153220000000  0.5398310000000  0.4936070000000 1.0
C      1  0.5863370000000  0.5509180000000  0.4810060000000 1.0
C      1  0.4962460000000  0.5359140000000  0.5144360000000 1.0
C      1  0.5644000000000  0.5395380000000  0.4892780000000 1.0
C      1  0.5407380000000  0.5275730000000  0.4976430000000 1.0
C      1  0.4777970000000  0.5127450000000  0.4442760000000 1.0
C      1  0.5403250000000  0.5025920000000  0.5108110000000 1.0
C      1  0.5036840000000  0.5224980000000  0.4480190000000 1.0
C      1  0.4966100000000  0.4902320000000  0.5270670000000 1.0
C      1  0.5151470000000  0.4363880000000  0.5337930000000 1.0
END
