TITL C-612605-9286-1007 8.71869095355933 125000 -650.055965389337 0 0 108 (C1) n - 1
REM
REM in /home/nfs/bkarasulu/CARBON/AIRSS/Generating-Clusters/TERSOFF/Only-C1/FIRE-HFTN
REM
REM
REM
REM
REM
REM ./C.cell (11c1c37f851c82e70ff6c80c92926a4b)
REM AIRSS Version 0.9.1 bugfix July 2018 build 013d7b7c2542+ Fri, 06 Jul 2018 19:26:36 +0100
REM compiler GCC version 9.2.1 20190827 (Red Hat 9.2.1-1)
REM options -cpp -mtune=generic -march=x86-64 -g -O0 -fpre-include=/usr/include/finclude/math-vector-fortran.h
REM seed 276052499 -141568643 74921300 2134709909 -1981344189 136878479 -703782776 1695081382 1242491535 -1259780689 77689966 -466268533 -1272844840 1237648783 -178969176 1349698508 -617089659 1695430853 1213305284 905781526 -1237860068 -1245184634 250611822 -1146278929 1861397235 1172002270 757492537 -924770429 -141941338 -1643702164 1613758275 761677294 -1334609723
REM
CELL 1.54180   50.00000   50.00000   50.00000   90.00000   90.00000   90.00000
LATT -1
SFAC C  
C      1  0.5155810000000  0.4904000000000  0.5808700000000 1.0
C      1  0.6047650000000  0.4933880000000  0.5635040000000 1.0
C      1  0.4273850000000  0.4494130000000  0.3962450000000 1.0
C      1  0.5806990000000  0.4673070000000  0.4724820000000 1.0
C      1  0.6317990000000  0.4928610000000  0.5222140000000 1.0
C      1  0.4974620000000  0.4709480000000  0.4085350000000 1.0
C      1  0.4566440000000  0.5858630000000  0.4181230000000 1.0
C      1  0.6786970000000  0.5186250000000  0.5163440000000 1.0
C      1  0.5448700000000  0.5398180000000  0.5848310000000 1.0
C      1  0.4906380000000  0.5146740000000  0.5125870000000 1.0
C      1  0.4512350000000  0.6022260000000  0.3985650000000 1.0
C      1  0.3402780000000  0.4216330000000  0.4886660000000 1.0
C      1  0.4322580000000  0.5236770000000  0.4528800000000 1.0
C      1  0.5252230000000  0.6005590000000  0.4558150000000 1.0
C      1  0.5192900000000  0.4605390000000  0.4244350000000 1.0
C      1  0.4503970000000  0.4623780000000  0.4022880000000 1.0
C      1  0.4121420000000  0.5475820000000  0.4906430000000 1.0
C      1  0.3863710000000  0.4386760000000  0.4866580000000 1.0
C      1  0.3606730000000  0.4373930000000  0.4992060000000 1.0
C      1  0.6561250000000  0.5058500000000  0.5188760000000 1.0
C      1  0.4798270000000  0.4330050000000  0.5608220000000 1.0
C      1  0.4266130000000  0.4289740000000  0.5204970000000 1.0
C      1  0.4844320000000  0.4952950000000  0.4008510000000 1.0
C      1  0.5387950000000  0.5395410000000  0.5571400000000 1.0
C      1  0.4151850000000  0.4573120000000  0.5570550000000 1.0
C      1  0.5735000000000  0.5626390000000  0.5072550000000 1.0
C      1  0.5758830000000  0.4638810000000  0.5411220000000 1.0
C      1  0.4136390000000  0.5493470000000  0.5172890000000 1.0
C      1  0.4725850000000  0.4761770000000  0.5401070000000 1.0
C      1  0.4641160000000  0.4235310000000  0.4478820000000 1.0
C      1  0.4754590000000  0.4502920000000  0.4090060000000 1.0
C      1  0.4974150000000  0.5614810000000  0.5408680000000 1.0
C      1  0.3911410000000  0.4731360000000  0.4450510000000 1.0
C      1  0.4523500000000  0.5846190000000  0.4861020000000 1.0
C      1  0.5501250000000  0.5584300000000  0.4947580000000 1.0
C      1  0.3891360000000  0.4534790000000  0.4629420000000 1.0
C      1  0.5349570000000  0.6143380000000  0.4764310000000 1.0
C      1  0.3570800000000  0.4525070000000  0.5226110000000 1.0
C      1  0.4751550000000  0.5577550000000  0.5575680000000 1.0
C      1  0.5802450000000  0.4783780000000  0.5658380000000 1.0
C      1  0.4487170000000  0.5539190000000  0.5555490000000 1.0
C      1  0.4913020000000  0.5426040000000  0.4677560000000 1.0
C      1  0.4550960000000  0.4906460000000  0.4016660000000 1.0
C      1  0.3971610000000  0.4748750000000  0.5441490000000 1.0
C      1  0.4917800000000  0.5207060000000  0.3911490000000 1.0
C      1  0.4003760000000  0.4945570000000  0.4320340000000 1.0
C      1  0.5102400000000  0.5812350000000  0.4452110000000 1.0
C      1  0.6122190000000  0.4914110000000  0.5018660000000 1.0
C      1  0.6222980000000  0.4510230000000  0.5450750000000 1.0
C      1  0.6415000000000  0.3800390000000  0.4635440000000 1.0
C      1  0.6106900000000  0.4226280000000  0.4645500000000 1.0
C      1  0.4894520000000  0.4606840000000  0.4911430000000 1.0
C      1  0.3214140000000  0.4068680000000  0.4784040000000 1.0
C      1  0.5299930000000  0.5311450000000  0.6072070000000 1.0
C      1  0.5906500000000  0.5568860000000  0.5269130000000 1.0
C      1  0.5307560000000  0.5381480000000  0.4933500000000 1.0
C      1  0.4731680000000  0.5398840000000  0.3858720000000 1.0
C      1  0.4286590000000  0.4890150000000  0.5061610000000 1.0
C      1  0.4727150000000  0.5813720000000  0.5031700000000 1.0
C      1  0.5375090000000  0.5876140000000  0.5439730000000 1.0
C      1  0.5131560000000  0.4991030000000  0.5536980000000 1.0
C      1  0.5412260000000  0.4727220000000  0.4363910000000 1.0
C      1  0.6246200000000  0.4798080000000  0.5467540000000 1.0
C      1  0.6001610000000  0.5432010000000  0.5477610000000 1.0
C      1  0.4268850000000  0.5512670000000  0.5403930000000 1.0
C      1  0.5105810000000  0.4339960000000  0.4327410000000 1.0
C      1  0.4210870000000  0.5133680000000  0.4286980000000 1.0
C      1  0.5319940000000  0.5428590000000  0.6322810000000 1.0
C      1  0.4544800000000  0.4387780000000  0.4677540000000 1.0
C      1  0.4095520000000  0.4909010000000  0.5246280000000 1.0
C      1  0.3704450000000  0.4673290000000  0.5404190000000 1.0
C      1  0.6261960000000  0.4011410000000  0.4639350000000 1.0
C      1  0.5494450000000  0.5015960000000  0.5215800000000 1.0
C      1  0.4267730000000  0.5481130000000  0.4664750000000 1.0
C      1  0.5006440000000  0.5394680000000  0.4961980000000 1.0
C      1  0.5224820000000  0.4427670000000  0.5859870000000 1.0
C      1  0.5608610000000  0.4742230000000  0.5854650000000 1.0
C      1  0.6042850000000  0.5214910000000  0.5628030000000 1.0
C      1  0.5683850000000  0.4805050000000  0.5193150000000 1.0
C      1  0.5956090000000  0.4434630000000  0.5381600000000 1.0
C      1  0.4378730000000  0.5130800000000  0.4057160000000 1.0
C      1  0.5248840000000  0.5628390000000  0.5479930000000 1.0
C      1  0.6427250000000  0.4336460000000  0.5495140000000 1.0
C      1  0.5404030000000  0.6175270000000  0.5023210000000 1.0
C      1  0.5332610000000  0.4685250000000  0.5861690000000 1.0
C      1  0.4913850000000  0.5628880000000  0.5130350000000 1.0
C      1  0.4824460000000  0.4294600000000  0.4276630000000 1.0
C      1  0.5128650000000  0.5093870000000  0.6015940000000 1.0
C      1  0.5864340000000  0.4809370000000  0.4967680000000 1.0
C      1  0.5607490000000  0.4752090000000  0.4543830000000 1.0
C      1  0.4086200000000  0.4284370000000  0.5006390000000 1.0
C      1  0.4355830000000  0.4433620000000  0.5430860000000 1.0
C      1  0.5416020000000  0.6079460000000  0.5271760000000 1.0
C      1  0.5362390000000  0.5135830000000  0.5442670000000 1.0
C      1  0.4440670000000  0.5705220000000  0.4630190000000 1.0
C      1  0.5955820000000  0.4442830000000  0.4666230000000 1.0
C      1  0.4888660000000  0.5633240000000  0.4484820000000 1.0
C      1  0.4484030000000  0.5050990000000  0.4665270000000 1.0
C      1  0.4627820000000  0.4612590000000  0.4824930000000 1.0
C      1  0.4625500000000  0.5719980000000  0.4414820000000 1.0
C      1  0.4468530000000  0.5364370000000  0.3922100000000 1.0
C      1  0.4911090000000  0.4969900000000  0.5354450000000 1.0
C      1  0.5411720000000  0.5123650000000  0.4969980000000 1.0
C      1  0.5017700000000  0.4296210000000  0.5755120000000 1.0
C      1  0.5338580000000  0.5539070000000  0.6558110000000 1.0
C      1  0.4469190000000  0.4845950000000  0.4854250000000 1.0
C      1  0.4626550000000  0.4506480000000  0.5474620000000 1.0
C      1  0.5136120000000  0.4528410000000  0.4970430000000 1.0
END
