TITL C-612600-6631-355 9.67896429439374 125000 -1156.81008363465 0 0 186 (C1) n - 1
REM
REM in /home/nfs/bkarasulu/CARBON/AIRSS/Generating-Clusters/TERSOFF/Only-C1/FIRE-HFTN
REM
REM
REM
REM
REM
REM ./C.cell (11c1c37f851c82e70ff6c80c92926a4b)
REM AIRSS Version 0.9.1 bugfix July 2018 build 013d7b7c2542+ Fri, 06 Jul 2018 19:26:36 +0100
REM compiler GCC version 9.2.1 20190827 (Red Hat 9.2.1-1)
REM options -cpp -mtune=generic -march=x86-64 -g -O0 -fpre-include=/usr/include/finclude/math-vector-fortran.h
REM seed -1182501817 -71349150 -1458371581 -1625562255 831395076 806665390 185322454 327153178 -988357721 2026117193 -173504667 667363994 903436190 -269312277 -2099544319 -69198843 -709537036 -350408883 1167529137 -438262685 1243788970 -305498575 1954979061 696225106 -1120033884 1285579937 -355973679 1268597041 557645127 677823958 929798213 1921536600 -1682851265
REM
CELL 1.54180   50.00000   50.00000   50.00000   90.00000   90.00000   90.00000
LATT -1
SFAC C  
C      1  0.5275870000000  0.5568930000000  0.5434440000000 1.0
C      1  0.4762720000000  0.5879660000000  0.5744630000000 1.0
C      1  0.5038670000000  0.5776860000000  0.5800900000000 1.0
C      1  0.4187130000000  0.5662620000000  0.4834050000000 1.0
C      1  0.5302090000000  0.5973660000000  0.4370030000000 1.0
C      1  0.5648710000000  0.4081770000000  0.5510920000000 1.0
C      1  0.5038460000000  0.4727070000000  0.4670530000000 1.0
C      1  0.6857390000000  0.5470060000000  0.5174240000000 1.0
C      1  0.5260410000000  0.5095940000000  0.4011790000000 1.0
C      1  0.6084890000000  0.4894540000000  0.5169510000000 1.0
C      1  0.5183360000000  0.6110430000000  0.4604620000000 1.0
C      1  0.6246520000000  0.4315390000000  0.5279210000000 1.0
C      1  0.4313260000000  0.5418120000000  0.4151810000000 1.0
C      1  0.3744270000000  0.4954840000000  0.4918120000000 1.0
C      1  0.4315050000000  0.4372030000000  0.5570200000000 1.0
C      1  0.4720200000000  0.5919000000000  0.5443150000000 1.0
C      1  0.5156220000000  0.5013690000000  0.5027580000000 1.0
C      1  0.5194550000000  0.4271770000000  0.4913850000000 1.0
C      1  0.4947240000000  0.3806890000000  0.4792930000000 1.0
C      1  0.4521250000000  0.5070930000000  0.4611770000000 1.0
C      1  0.5517100000000  0.3938270000000  0.5303390000000 1.0
C      1  0.4579660000000  0.5958680000000  0.5938410000000 1.0
C      1  0.4407080000000  0.4813670000000  0.6285050000000 1.0
C      1  0.4727250000000  0.4709370000000  0.4345340000000 1.0
C      1  0.4765990000000  0.5309160000000  0.3936770000000 1.0
C      1  0.5071330000000  0.5481780000000  0.4364540000000 1.0
C      1  0.5974890000000  0.4893060000000  0.5663860000000 1.0
C      1  0.4957070000000  0.4935440000000  0.4848240000000 1.0
C      1  0.4858950000000  0.4951120000000  0.4254840000000 1.0
C      1  0.3555350000000  0.5154920000000  0.4495940000000 1.0
C      1  0.4888310000000  0.6104460000000  0.4536470000000 1.0
C      1  0.5464360000000  0.5406630000000  0.4863880000000 1.0
C      1  0.5470760000000  0.5175870000000  0.4712330000000 1.0
C      1  0.5211150000000  0.5509500000000  0.4921590000000 1.0
C      1  0.4952730000000  0.5604650000000  0.4900410000000 1.0
C      1  0.5107830000000  0.5936390000000  0.4156520000000 1.0
C      1  0.4484160000000  0.5771650000000  0.5290470000000 1.0
C      1  0.5298010000000  0.6072940000000  0.4889140000000 1.0
C      1  0.4645280000000  0.5778550000000  0.4162880000000 1.0
C      1  0.6088370000000  0.5147240000000  0.4682870000000 1.0
C      1  0.4757310000000  0.5532190000000  0.4703460000000 1.0
C      1  0.4453630000000  0.4700840000000  0.4267540000000 1.0
C      1  0.3996610000000  0.4967870000000  0.5073870000000 1.0
C      1  0.4120830000000  0.4517040000000  0.4547820000000 1.0
C      1  0.6185790000000  0.5075610000000  0.4955890000000 1.0
C      1  0.5216560000000  0.3905520000000  0.5287000000000 1.0
C      1  0.5305520000000  0.4660480000000  0.4579280000000 1.0
C      1  0.4317500000000  0.4462960000000  0.4356480000000 1.0
C      1  0.6643190000000  0.5340940000000  0.5100730000000 1.0
C      1  0.5169000000000  0.3808190000000  0.4990600000000 1.0
C      1  0.5182520000000  0.5632430000000  0.6009710000000 1.0
C      1  0.5689230000000  0.4596290000000  0.5385490000000 1.0
C      1  0.5077550000000  0.4014130000000  0.5528410000000 1.0
C      1  0.5914160000000  0.3979840000000  0.5031720000000 1.0
C      1  0.3994560000000  0.5757070000000  0.5291450000000 1.0
C      1  0.5703310000000  0.5189160000000  0.5985020000000 1.0
C      1  0.4461410000000  0.4232870000000  0.4244230000000 1.0
C      1  0.6118330000000  0.4130890000000  0.5127130000000 1.0
C      1  0.5125090000000  0.5109910000000  0.5291530000000 1.0
C      1  0.4494700000000  0.3910420000000  0.4887410000000 1.0
C      1  0.5172620000000  0.5809060000000  0.5541720000000 1.0
C      1  0.4831120000000  0.4624250000000  0.3752020000000 1.0
C      1  0.5080250000000  0.5362320000000  0.5404120000000 1.0
C      1  0.3884340000000  0.5178920000000  0.5757760000000 1.0
C      1  0.5648930000000  0.3881480000000  0.5054720000000 1.0
C      1  0.4861520000000  0.4957710000000  0.6113870000000 1.0
C      1  0.5419080000000  0.5146800000000  0.6012470000000 1.0
C      1  0.4898060000000  0.5883770000000  0.4951050000000 1.0
C      1  0.3822190000000  0.5437920000000  0.5657710000000 1.0
C      1  0.5874720000000  0.4278520000000  0.4229780000000 1.0
C      1  0.4382600000000  0.5278880000000  0.5214180000000 1.0
C      1  0.5012320000000  0.5975300000000  0.5362230000000 1.0
C      1  0.5641960000000  0.5031280000000  0.5124440000000 1.0
C      1  0.5343050000000  0.5611030000000  0.3865400000000 1.0
C      1  0.5472110000000  0.5756830000000  0.4441440000000 1.0
C      1  0.5066100000000  0.4563760000000  0.3869220000000 1.0
C      1  0.5527960000000  0.4675060000000  0.5874610000000 1.0
C      1  0.5402840000000  0.4525880000000  0.5313720000000 1.0
C      1  0.4372190000000  0.4575460000000  0.5386280000000 1.0
C      1  0.6160060000000  0.4807430000000  0.5443680000000 1.0
C      1  0.4746350000000  0.4333720000000  0.5773670000000 1.0
C      1  0.5668520000000  0.5822290000000  0.4646870000000 1.0
C      1  0.5575600000000  0.5449320000000  0.3914540000000 1.0
C      1  0.4563150000000  0.4608910000000  0.3847420000000 1.0
C      1  0.5739680000000  0.4983390000000  0.4060370000000 1.0
C      1  0.4970750000000  0.4479100000000  0.5910800000000 1.0
C      1  0.5202490000000  0.4666790000000  0.5447560000000 1.0
C      1  0.5790490000000  0.4322150000000  0.5457530000000 1.0
C      1  0.5379580000000  0.4714870000000  0.4291800000000 1.0
C      1  0.4126620000000  0.5234270000000  0.5095410000000 1.0
C      1  0.3835110000000  0.5025340000000  0.5995400000000 1.0
C      1  0.3607720000000  0.5852130000000  0.5554880000000 1.0
C      1  0.5858030000000  0.5606950000000  0.4711150000000 1.0
C      1  0.4491980000000  0.5368270000000  0.5866270000000 1.0
C      1  0.5944160000000  0.5388510000000  0.4271200000000 1.0
C      1  0.5424100000000  0.5218570000000  0.4446940000000 1.0
C      1  0.4866840000000  0.5372700000000  0.5578720000000 1.0
C      1  0.5744380000000  0.4625180000000  0.4888180000000 1.0
C      1  0.6425010000000  0.5209950000000  0.5027160000000 1.0
C      1  0.4178310000000  0.4751360000000  0.4699440000000 1.0
C      1  0.5432510000000  0.4971550000000  0.4916670000000 1.0
C      1  0.4083600000000  0.5048550000000  0.5609180000000 1.0
C      1  0.4509310000000  0.4333550000000  0.3964870000000 1.0
C      1  0.4940620000000  0.4262540000000  0.4847900000000 1.0
C      1  0.5531230000000  0.5160850000000  0.3921300000000 1.0
C      1  0.4817000000000  0.4142190000000  0.5545670000000 1.0
C      1  0.6058380000000  0.4684700000000  0.4433460000000 1.0
C      1  0.6271570000000  0.4541920000000  0.5428510000000 1.0
C      1  0.4340960000000  0.4969390000000  0.5682110000000 1.0
C      1  0.4667340000000  0.5163580000000  0.4369350000000 1.0
C      1  0.3359930000000  0.5191450000000  0.4327470000000 1.0
C      1  0.5239950000000  0.4062700000000  0.5762110000000 1.0
C      1  0.5471340000000  0.4408510000000  0.5930860000000 1.0
C      1  0.5220640000000  0.4562580000000  0.4088170000000 1.0
C      1  0.5325750000000  0.5013370000000  0.4281880000000 1.0
C      1  0.4733110000000  0.5993320000000  0.4745040000000 1.0
C      1  0.3870630000000  0.4400710000000  0.4602220000000 1.0
C      1  0.5523690000000  0.4058240000000  0.5754830000000 1.0
C      1  0.4229640000000  0.5787360000000  0.5115670000000 1.0
C      1  0.4398330000000  0.6024610000000  0.6113560000000 1.0
C      1  0.4297000000000  0.4430790000000  0.6039510000000 1.0
C      1  0.5541320000000  0.5517050000000  0.5346210000000 1.0
C      1  0.5499970000000  0.4714600000000  0.4775640000000 1.0
C      1  0.3813910000000  0.5677470000000  0.5499760000000 1.0
C      1  0.4195350000000  0.4661240000000  0.6172470000000 1.0
C      1  0.4632080000000  0.4082410000000  0.5336730000000 1.0
C      1  0.4602640000000  0.5437110000000  0.5620310000000 1.0
C      1  0.5610550000000  0.5217430000000  0.5348960000000 1.0
C      1  0.5091210000000  0.6029560000000  0.5094050000000 1.0
C      1  0.4328050000000  0.5720230000000  0.4574580000000 1.0
C      1  0.5723070000000  0.5503390000000  0.4937640000000 1.0
C      1  0.4581000000000  0.4954390000000  0.6116860000000 1.0
C      1  0.5352430000000  0.5493350000000  0.4393400000000 1.0
C      1  0.4712730000000  0.4415690000000  0.4780810000000 1.0
C      1  0.5498840000000  0.3658720000000  0.4630670000000 1.0
C      1  0.6063880000000  0.4964560000000  0.4453070000000 1.0
C      1  0.5801090000000  0.5533150000000  0.4072370000000 1.0
C      1  0.4241950000000  0.5012720000000  0.4600530000000 1.0
C      1  0.4819840000000  0.5599730000000  0.3970380000000 1.0
C      1  0.5508430000000  0.5026970000000  0.5547920000000 1.0
C      1  0.5640410000000  0.5705250000000  0.5132020000000 1.0
C      1  0.4476280000000  0.4804640000000  0.5506420000000 1.0
C      1  0.4973000000000  0.5100500000000  0.4012940000000 1.0
C      1  0.3763690000000  0.5109260000000  0.4672690000000 1.0
C      1  0.5315580000000  0.5790570000000  0.6193790000000 1.0
C      1  0.4501530000000  0.4379570000000  0.4970060000000 1.0
C      1  0.4587340000000  0.5132540000000  0.5090390000000 1.0
C      1  0.5356190000000  0.4363760000000  0.5098050000000 1.0
C      1  0.4031200000000  0.5211170000000  0.4639930000000 1.0
C      1  0.4688520000000  0.5036290000000  0.4848250000000 1.0
C      1  0.3664830000000  0.4483480000000  0.4756420000000 1.0
C      1  0.4597360000000  0.4031130000000  0.4419020000000 1.0
C      1  0.4167140000000  0.4748600000000  0.4984620000000 1.0
C      1  0.4090910000000  0.5392640000000  0.4852750000000 1.0
C      1  0.4506730000000  0.4112830000000  0.5084640000000 1.0
C      1  0.3956270000000  0.4809320000000  0.6112800000000 1.0
C      1  0.5446130000000  0.3775710000000  0.4877110000000 1.0
C      1  0.4385770000000  0.5667650000000  0.4281130000000 1.0
C      1  0.4457100000000  0.4356980000000  0.5817300000000 1.0
C      1  0.5096550000000  0.5721750000000  0.3958190000000 1.0
C      1  0.5950620000000  0.5104460000000  0.4220600000000 1.0
C      1  0.4340470000000  0.4567150000000  0.5109410000000 1.0
C      1  0.5039730000000  0.4759690000000  0.6001060000000 1.0
C      1  0.4830510000000  0.5393990000000  0.4471580000000 1.0
C      1  0.5867080000000  0.4546470000000  0.4276320000000 1.0
C      1  0.6001440000000  0.5416300000000  0.4560450000000 1.0
C      1  0.4686560000000  0.3890470000000  0.4672030000000 1.0
C      1  0.5202020000000  0.4310910000000  0.5920670000000 1.0
C      1  0.5809980000000  0.4768740000000  0.5144630000000 1.0
C      1  0.5688060000000  0.4784320000000  0.5629780000000 1.0
C      1  0.5934430000000  0.5098810000000  0.5865620000000 1.0
C      1  0.5548320000000  0.3560860000000  0.4394270000000 1.0
C      1  0.4454470000000  0.5094600000000  0.5907560000000 1.0
C      1  0.5327170000000  0.4861780000000  0.5980490000000 1.0
C      1  0.4589910000000  0.5762690000000  0.4669760000000 1.0
C      1  0.3609580000000  0.4706170000000  0.4899200000000 1.0
C      1  0.5240410000000  0.4940320000000  0.5483460000000 1.0
C      1  0.4453030000000  0.4837190000000  0.4013400000000 1.0
C      1  0.4810720000000  0.4590750000000  0.4579470000000 1.0
C      1  0.5663800000000  0.4719170000000  0.4173650000000 1.0
C      1  0.5205550000000  0.5343310000000  0.6052240000000 1.0
C      1  0.4976920000000  0.5213240000000  0.6158000000000 1.0
C      1  0.4836180000000  0.5988150000000  0.4268220000000 1.0
C      1  0.4511480000000  0.5199160000000  0.4094750000000 1.0
C      1  0.5551420000000  0.5925100000000  0.4919850000000 1.0
C      1  0.4463200000000  0.5492650000000  0.5384550000000 1.0
END
