TITL C-612605-9286-1147 0.0278969854502497 125000 -214.985587472241 0 0 37 (C1) n - 1
REM
REM in /home/nfs/bkarasulu/CARBON/AIRSS/Generating-Clusters/TERSOFF/Only-C1/FIRE-HFTN
REM
REM
REM
REM
REM
REM ./C.cell (11c1c37f851c82e70ff6c80c92926a4b)
REM AIRSS Version 0.9.1 bugfix July 2018 build 013d7b7c2542+ Fri, 06 Jul 2018 19:26:36 +0100
REM compiler GCC version 9.2.1 20190827 (Red Hat 9.2.1-1)
REM options -cpp -mtune=generic -march=x86-64 -g -O0 -fpre-include=/usr/include/finclude/math-vector-fortran.h
REM seed -1152738778 -1903465100 375329790 332465756 623903681 56562226 1775795265 1980087418 -2070608678 999669905 1219293094 -1634651633 -1971705605 418446253 -1110753632 1287595692 -620510016 290112970 -421050577 1471630551 1741157099 -1101633936 -1778781531 479850119 -2035785992 -393693669 1073710562 -1164299334 -807671922 -679529187 -1720173551 829095113 -531192503
REM
CELL 1.54180   50.00000   50.00000   50.00000   90.00000   90.00000   90.00000
LATT -1
SFAC C  
C      1  0.4514860000000  0.5175290000000  0.4665110000000 1.0
C      1  0.4888790000000  0.5155230000000  0.5260470000000 1.0
C      1  0.4958970000000  0.5268170000000  0.4582240000000 1.0
C      1  0.4805360000000  0.5346610000000  0.4345450000000 1.0
C      1  0.5275410000000  0.5376390000000  0.5441870000000 1.0
C      1  0.5240860000000  0.4620360000000  0.4748140000000 1.0
C      1  0.4839720000000  0.5017470000000  0.5021730000000 1.0
C      1  0.5765220000000  0.4758110000000  0.4784590000000 1.0
C      1  0.5092280000000  0.4594260000000  0.4988560000000 1.0
C      1  0.6008090000000  0.4848050000000  0.4814340000000 1.0
C      1  0.5029310000000  0.4826160000000  0.5977560000000 1.0
C      1  0.5112170000000  0.4594440000000  0.4501600000000 1.0
C      1  0.4806720000000  0.4688910000000  0.4081350000000 1.0
C      1  0.4384760000000  0.4456100000000  0.5068560000000 1.0
C      1  0.4896170000000  0.5280390000000  0.5736400000000 1.0
C      1  0.5537690000000  0.5428040000000  0.5012340000000 1.0
C      1  0.4423280000000  0.5900540000000  0.5933680000000 1.0
C      1  0.4607790000000  0.4589010000000  0.5046280000000 1.0
C      1  0.5440890000000  0.5380930000000  0.4768800000000 1.0
C      1  0.5513610000000  0.4679340000000  0.4758640000000 1.0
C      1  0.5017720000000  0.5273210000000  0.5479830000000 1.0
C      1  0.4964850000000  0.4622120000000  0.4283200000000 1.0
C      1  0.5198960000000  0.4421670000000  0.5713820000000 1.0
C      1  0.4645640000000  0.4783560000000  0.3893330000000 1.0
C      1  0.4944970000000  0.5069810000000  0.5913910000000 1.0
C      1  0.4531240000000  0.5285950000000  0.4412610000000 1.0
C      1  0.4899410000000  0.5450540000000  0.4113580000000 1.0
C      1  0.4778030000000  0.5151550000000  0.4783220000000 1.0
C      1  0.4845830000000  0.4732820000000  0.5019660000000 1.0
C      1  0.4487150000000  0.4890240000000  0.3715970000000 1.0
C      1  0.5229420000000  0.5316840000000  0.4621220000000 1.0
C      1  0.5125300000000  0.4588380000000  0.5907450000000 1.0
C      1  0.5222580000000  0.4371120000000  0.5453950000000 1.0
C      1  0.4576160000000  0.5698590000000  0.5872000000000 1.0
C      1  0.4731650000000  0.5493620000000  0.5808760000000 1.0
C      1  0.5186970000000  0.4436570000000  0.5199140000000 1.0
C      1  0.5472160000000  0.5429590000000  0.5270620000000 1.0
END
