TITL C-612603-7354-1456 62346.7732486078 125000 -1190.86524711179 0 0 195 (C1) n - 1
REM
REM in /home/nfs/bkarasulu/CARBON/AIRSS/Generating-Clusters/TERSOFF/Only-C1/FIRE-HFTN
REM
REM
REM
REM
REM
REM ./C.cell (11c1c37f851c82e70ff6c80c92926a4b)
REM AIRSS Version 0.9.1 bugfix July 2018 build 013d7b7c2542+ Fri, 06 Jul 2018 19:26:36 +0100
REM compiler GCC version 9.2.1 20190827 (Red Hat 9.2.1-1)
REM options -cpp -mtune=generic -march=x86-64 -g -O0 -fpre-include=/usr/include/finclude/math-vector-fortran.h
REM seed -1955235766 -938359469 -2039646762 172955878 51718450 -650078524 1293621805 -642520510 -1655405811 1778587391 373954968 2104399171 855403126 2143861206 -912561691 -1995435166 1586861443 1601491082 -2031356171 -1996527370 1132953316 796802507 -628554110 -210124211 100471486 -1464522574 1729927832 1625584508 904547911 -2012546422 -1447980505 -655596107 -1728959270
REM
CELL 1.54180   50.00000   50.00000   50.00000   90.00000   90.00000   90.00000
LATT -1
SFAC C  
C      1  0.5833750000000  0.5278620000000  0.4949500000000 1.0
C      1  0.4929020000000  0.4244590000000  0.5210450000000 1.0
C      1  0.5170350000000  0.4126120000000  0.5609650000000 1.0
C      1  0.5447020000000  0.6015800000000  0.5456650000000 1.0
C      1  0.4028670000000  0.5573880000000  0.5012610000000 1.0
C      1  0.5926980000000  0.3896020000000  0.4578460000000 1.0
C      1  0.4720540000000  0.5208550000000  0.3845670000000 1.0
C      1  0.5572240000000  0.4612480000000  0.4119190000000 1.0
C      1  0.4922240000000  0.4084100000000  0.4619110000000 1.0
C      1  0.6137590000000  0.4725700000000  0.5592740000000 1.0
C      1  0.4435090000000  0.5809450000000  0.5092640000000 1.0
C      1  0.5679610000000  0.4149460000000  0.5511670000000 1.0
C      1  0.3937190000000  0.5244730000000  0.5437920000000 1.0
C      1  0.5952700000000  0.4165760000000  0.5107270000000 1.0
C      1  0.6132500000000  0.4825190000000  0.4934100000000 1.0
C      1  0.4905750000000  0.5581900000000  0.4051030000000 1.0
C      1  0.4834650000000  0.4068230000000  0.6019520000000 1.0
C      1  0.4674420000000  0.3698280000000  0.5103480000000 1.0
C      1  0.3736080000000  0.4931750000000  0.4404780000000 1.0
C      1  0.4494800000000  0.4852370000000  0.4850900000000 1.0
C      1  0.3614400000000  0.5397240000000  0.5906810000000 1.0
C      1  0.4453450000000  0.5164200000000  0.3930970000000 1.0
C      1  0.4102730000000  0.4865220000000  0.5201700000000 1.0
C      1  0.5651290000000  0.4281650000000  0.4480920000000 1.0
C      1  0.3654270000000  0.5217190000000  0.4778210000000 1.0
C      1  0.4537490000000  0.6055540000000  0.5050380000000 1.0
C      1  0.5057040000000  0.6483340000000  0.6128910000000 1.0
C      1  0.5392900000000  0.4470200000000  0.4998470000000 1.0
C      1  0.5520280000000  0.4707690000000  0.5000490000000 1.0
C      1  0.5031270000000  0.5371760000000  0.4519130000000 1.0
C      1  0.3868280000000  0.5390210000000  0.5183260000000 1.0
C      1  0.3949860000000  0.4885740000000  0.5436120000000 1.0
C      1  0.4691130000000  0.4726700000000  0.4035730000000 1.0
C      1  0.5089920000000  0.4334900000000  0.3593680000000 1.0
C      1  0.5399510000000  0.5328170000000  0.4095360000000 1.0
C      1  0.5988700000000  0.4837970000000  0.4429590000000 1.0
C      1  0.5916960000000  0.5468320000000  0.5453920000000 1.0
C      1  0.4951720000000  0.4652270000000  0.3930710000000 1.0
C      1  0.5313610000000  0.5525150000000  0.6115250000000 1.0
C      1  0.6015430000000  0.5358670000000  0.4276000000000 1.0
C      1  0.4973730000000  0.5634170000000  0.4621220000000 1.0
C      1  0.4687940000000  0.4704870000000  0.4332220000000 1.0
C      1  0.5118190000000  0.6236270000000  0.6072660000000 1.0
C      1  0.4423130000000  0.4881050000000  0.3984220000000 1.0
C      1  0.5124440000000  0.5583890000000  0.5695560000000 1.0
C      1  0.5344550000000  0.5157060000000  0.4318920000000 1.0
C      1  0.5288430000000  0.4663670000000  0.5813020000000 1.0
C      1  0.3877800000000  0.4329190000000  0.4821700000000 1.0
C      1  0.5360040000000  0.5790940000000  0.4278900000000 1.0
C      1  0.4030700000000  0.5634600000000  0.6047300000000 1.0
C      1  0.4795570000000  0.3619350000000  0.4873690000000 1.0
C      1  0.5087520000000  0.4941460000000  0.5377420000000 1.0
C      1  0.4172890000000  0.4367830000000  0.5519850000000 1.0
C      1  0.5702360000000  0.4074990000000  0.5229810000000 1.0
C      1  0.6148400000000  0.5365060000000  0.5348420000000 1.0
C      1  0.4103240000000  0.4169870000000  0.4424160000000 1.0
C      1  0.4089880000000  0.4631480000000  0.4281710000000 1.0
C      1  0.5970120000000  0.4518590000000  0.5698590000000 1.0
C      1  0.5266110000000  0.4796600000000  0.6062780000000 1.0
C      1  0.5124140000000  0.4773240000000  0.4504930000000 1.0
C      1  0.5467470000000  0.4990360000000  0.6112180000000 1.0
C      1  0.4657540000000  0.5291720000000  0.5406890000000 1.0
C      1  0.4700750000000  0.6088390000000  0.5611370000000 1.0
C      1  0.5850150000000  0.4158520000000  0.4637890000000 1.0
C      1  0.6261850000000  0.4904410000000  0.5429750000000 1.0
C      1  0.4790470000000  0.4862760000000  0.4929460000000 1.0
C      1  0.4289390000000  0.5655700000000  0.5956250000000 1.0
C      1  0.5481470000000  0.4457010000000  0.5815720000000 1.0
C      1  0.5214910000000  0.4504490000000  0.4467160000000 1.0
C      1  0.4033540000000  0.4128430000000  0.4693560000000 1.0
C      1  0.4311390000000  0.5555480000000  0.5057320000000 1.0
C      1  0.5163810000000  0.5985300000000  0.6001110000000 1.0
C      1  0.4834150000000  0.5954770000000  0.5430490000000 1.0
C      1  0.5443360000000  0.4217120000000  0.5666120000000 1.0
C      1  0.4892260000000  0.3933700000000  0.4173590000000 1.0
C      1  0.5393900000000  0.5176080000000  0.5092070000000 1.0
C      1  0.4247730000000  0.3704130000000  0.4709250000000 1.0
C      1  0.4909250000000  0.4144330000000  0.5755900000000 1.0
C      1  0.5259390000000  0.5591190000000  0.4098160000000 1.0
C      1  0.4576830000000  0.4086990000000  0.6108000000000 1.0
C      1  0.3774640000000  0.4521910000000  0.4648010000000 1.0
C      1  0.5979490000000  0.3643460000000  0.4541360000000 1.0
C      1  0.5633840000000  0.5459670000000  0.5390130000000 1.0
C      1  0.4030340000000  0.5684870000000  0.4731470000000 1.0
C      1  0.6282840000000  0.5178400000000  0.4661040000000 1.0
C      1  0.4898690000000  0.5596110000000  0.5103010000000 1.0
C      1  0.4342200000000  0.4975600000000  0.5234530000000 1.0
C      1  0.4392380000000  0.4267870000000  0.5691540000000 1.0
C      1  0.6071920000000  0.4579680000000  0.4517600000000 1.0
C      1  0.5871390000000  0.6480090000000  0.5281460000000 1.0
C      1  0.5263590000000  0.4815660000000  0.5574020000000 1.0
C      1  0.4408250000000  0.4583180000000  0.4815660000000 1.0
C      1  0.4850460000000  0.5251770000000  0.4329670000000 1.0
C      1  0.4734150000000  0.4660440000000  0.5389410000000 1.0
C      1  0.4935430000000  0.5888310000000  0.4503020000000 1.0
C      1  0.4365360000000  0.4178020000000  0.5960870000000 1.0
C      1  0.3874880000000  0.5466070000000  0.5875450000000 1.0
C      1  0.5208370000000  0.5720220000000  0.5933940000000 1.0
C      1  0.4055840000000  0.5383320000000  0.5656710000000 1.0
C      1  0.4233410000000  0.4280780000000  0.3971560000000 1.0
C      1  0.6285860000000  0.5132020000000  0.5245250000000 1.0
C      1  0.4809660000000  0.5567690000000  0.4838490000000 1.0
C      1  0.4278580000000  0.4842380000000  0.4239700000000 1.0
C      1  0.4504680000000  0.4913500000000  0.4420720000000 1.0
C      1  0.4739550000000  0.4476680000000  0.4480600000000 1.0
C      1  0.4881830000000  0.5306060000000  0.4050630000000 1.0
C      1  0.5871150000000  0.5245200000000  0.4070420000000 1.0
C      1  0.4627880000000  0.5361920000000  0.4747330000000 1.0
C      1  0.4839750000000  0.5565540000000  0.5714420000000 1.0
C      1  0.5180540000000  0.4822760000000  0.4006650000000 1.0
C      1  0.4872720000000  0.3860150000000  0.4449960000000 1.0
C      1  0.4408560000000  0.5327380000000  0.4917070000000 1.0
C      1  0.4596450000000  0.5469780000000  0.5616360000000 1.0
C      1  0.4943090000000  0.6373470000000  0.5155470000000 1.0
C      1  0.5582250000000  0.5740140000000  0.4450200000000 1.0
C      1  0.5611930000000  0.5164440000000  0.3970860000000 1.0
C      1  0.4924140000000  0.4143410000000  0.4002490000000 1.0
C      1  0.5977960000000  0.4293100000000  0.4860880000000 1.0
C      1  0.5953130000000  0.4269530000000  0.5562920000000 1.0
C      1  0.4672240000000  0.4248930000000  0.5605380000000 1.0
C      1  0.4114250000000  0.4222110000000  0.5266490000000 1.0
C      1  0.4661370000000  0.5960870000000  0.4472670000000 1.0
C      1  0.5478700000000  0.4838540000000  0.3958960000000 1.0
C      1  0.4816280000000  0.4972410000000  0.6091800000000 1.0
C      1  0.5693960000000  0.4815570000000  0.4810310000000 1.0
C      1  0.5278470000000  0.5868000000000  0.5281050000000 1.0
C      1  0.5099450000000  0.5179280000000  0.4718830000000 1.0
C      1  0.4157030000000  0.3929920000000  0.4854160000000 1.0
C      1  0.5604200000000  0.5173310000000  0.5938870000000 1.0
C      1  0.5749360000000  0.4543030000000  0.5873530000000 1.0
C      1  0.5527880000000  0.4907810000000  0.5485650000000 1.0
C      1  0.5122720000000  0.4096260000000  0.5328320000000 1.0
C      1  0.5642800000000  0.6461950000000  0.5418600000000 1.0
C      1  0.4456070000000  0.5793330000000  0.4368780000000 1.0
C      1  0.6101660000000  0.4552410000000  0.4805420000000 1.0
C      1  0.5012590000000  0.4788230000000  0.6179240000000 1.0
C      1  0.4207250000000  0.5383480000000  0.4377300000000 1.0
C      1  0.5606460000000  0.5883930000000  0.5659220000000 1.0
C      1  0.4451620000000  0.3619050000000  0.4554020000000 1.0
C      1  0.4629780000000  0.5173260000000  0.4499630000000 1.0
C      1  0.5476380000000  0.4458280000000  0.4348080000000 1.0
C      1  0.4369480000000  0.5382030000000  0.4119190000000 1.0
C      1  0.4696000000000  0.4153450000000  0.4788590000000 1.0
C      1  0.5414500000000  0.6299940000000  0.5417240000000 1.0
C      1  0.4995930000000  0.4332350000000  0.4493100000000 1.0
C      1  0.4987600000000  0.4376300000000  0.3846050000000 1.0
C      1  0.5108500000000  0.5373230000000  0.6236020000000 1.0
C      1  0.5171950000000  0.6390550000000  0.5297040000000 1.0
C      1  0.4668260000000  0.4891400000000  0.5863290000000 1.0
C      1  0.5309550000000  0.5437920000000  0.5506800000000 1.0
C      1  0.3649010000000  0.5286750000000  0.5036540000000 1.0
C      1  0.4729800000000  0.3655200000000  0.4595530000000 1.0
C      1  0.6117650000000  0.4221110000000  0.5334110000000 1.0
C      1  0.5368380000000  0.5180380000000  0.4794510000000 1.0
C      1  0.5897760000000  0.5468830000000  0.4739560000000 1.0
C      1  0.5500110000000  0.4909200000000  0.5201450000000 1.0
C      1  0.4332410000000  0.5497790000000  0.5714780000000 1.0
C      1  0.5671990000000  0.5682230000000  0.5835990000000 1.0
C      1  0.4623800000000  0.4838900000000  0.5589860000000 1.0
C      1  0.5994620000000  0.6355580000000  0.5080300000000 1.0
C      1  0.4890800000000  0.5355670000000  0.5252660000000 1.0
C      1  0.4524200000000  0.5050470000000  0.5425080000000 1.0
C      1  0.4471700000000  0.3843220000000  0.5208790000000 1.0
C      1  0.5626150000000  0.5354140000000  0.5130160000000 1.0
C      1  0.6320830000000  0.5057770000000  0.4947640000000 1.0
C      1  0.5162270000000  0.5231640000000  0.5302180000000 1.0
C      1  0.6099060000000  0.5385040000000  0.4558680000000 1.0
C      1  0.5886190000000  0.4981630000000  0.4943500000000 1.0
C      1  0.5002220000000  0.5819390000000  0.5246950000000 1.0
C      1  0.4214760000000  0.5659140000000  0.4498630000000 1.0
C      1  0.5721340000000  0.4916840000000  0.4539810000000 1.0
C      1  0.4015780000000  0.4626160000000  0.5570120000000 1.0
C      1  0.4566430000000  0.4388890000000  0.4696930000000 1.0
C      1  0.4718320000000  0.6255790000000  0.5063060000000 1.0
C      1  0.5516980000000  0.5126490000000  0.4543430000000 1.0
C      1  0.5171500000000  0.4934900000000  0.4274940000000 1.0
C      1  0.5764900000000  0.5714210000000  0.4667420000000 1.0
C      1  0.4556600000000  0.5636320000000  0.4136470000000 1.0
C      1  0.3827750000000  0.5132520000000  0.4576350000000 1.0
C      1  0.4244010000000  0.3993500000000  0.5129120000000 1.0
C      1  0.5163820000000  0.5978620000000  0.4365680000000 1.0
C      1  0.5665410000000  0.5059540000000  0.5682690000000 1.0
C      1  0.5976170000000  0.6156850000000  0.4904480000000 1.0
C      1  0.4293850000000  0.5085150000000  0.4799070000000 1.0
C      1  0.3909870000000  0.4338770000000  0.5101310000000 1.0
C      1  0.3845780000000  0.4676090000000  0.4422980000000 1.0
C      1  0.6241700000000  0.4981480000000  0.4451530000000 1.0
C      1  0.4743650000000  0.4385170000000  0.5369860000000 1.0
C      1  0.4889720000000  0.4812550000000  0.5203050000000 1.0
C      1  0.4989950000000  0.4913040000000  0.4725090000000 1.0
C      1  0.5570240000000  0.5455660000000  0.5991340000000 1.0
C      1  0.4148330000000  0.4358000000000  0.4219200000000 1.0
C      1  0.4112000000000  0.5179020000000  0.4573320000000 1.0
C      1  0.4882370000000  0.5233470000000  0.6181490000000 1.0
C      1  0.5860150000000  0.5948970000000  0.4787510000000 1.0
END
