TITL C-612602-9376-491 0.000563268891607205 125000 -366.546088193673 0 0 61 (C1) n - 1
REM
REM in /home/nfs/bkarasulu/CARBON/AIRSS/Generating-Clusters/TERSOFF/Only-C1/FIRE-HFTN
REM
REM
REM
REM
REM
REM ./C.cell (11c1c37f851c82e70ff6c80c92926a4b)
REM AIRSS Version 0.9.1 bugfix July 2018 build 013d7b7c2542+ Fri, 06 Jul 2018 19:26:36 +0100
REM compiler GCC version 9.2.1 20190827 (Red Hat 9.2.1-1)
REM options -cpp -mtune=generic -march=x86-64 -g -O0 -fpre-include=/usr/include/finclude/math-vector-fortran.h
REM seed -216991138 86749943 2081504474 1060703473 -1447569433 -220685568 -1872770102 -1011128180 -1231801985 -757393277 204827769 -330538011 -173307879 59623118 -901391154 -1348552981 206243652 -504343123 836666941 1137720668 1219816326 1554145033 -1997477734 1976899603 -213707280 1424965945 -1106748047 1109990993 -1151989072 489005553 1833865107 1561812236 1956516911
REM
CELL 1.54180   50.00000   50.00000   50.00000   90.00000   90.00000   90.00000
LATT -1
SFAC C  
C      1  0.4764500000000  0.4915260000000  0.4904230000000 1.0
C      1  0.5642140000000  0.5131140000000  0.5585340000000 1.0
C      1  0.5468700000000  0.5328460000000  0.5473750000000 1.0
C      1  0.5698870000000  0.4716890000000  0.4535920000000 1.0
C      1  0.4961690000000  0.5059120000000  0.5060170000000 1.0
C      1  0.4842290000000  0.5295960000000  0.5153380000000 1.0
C      1  0.4349580000000  0.5019270000000  0.4701770000000 1.0
C      1  0.5365400000000  0.5500400000000  0.4575020000000 1.0
C      1  0.5835180000000  0.4966890000000  0.5484600000000 1.0
C      1  0.5028690000000  0.5440270000000  0.5307940000000 1.0
C      1  0.5576880000000  0.4957630000000  0.4993410000000 1.0
C      1  0.4614050000000  0.5423720000000  0.4611200000000 1.0
C      1  0.4335830000000  0.4703610000000  0.5179330000000 1.0
C      1  0.4866640000000  0.5547350000000  0.4706970000000 1.0
C      1  0.5320500000000  0.4488440000000  0.5062260000000 1.0
C      1  0.5569990000000  0.5241820000000  0.4972520000000 1.0
C      1  0.4809800000000  0.5027210000000  0.4630610000000 1.0
C      1  0.4412720000000  0.5537900000000  0.5202590000000 1.0
C      1  0.5146380000000  0.4893720000000  0.5190180000000 1.0
C      1  0.5108200000000  0.5386150000000  0.4611820000000 1.0
C      1  0.4321180000000  0.5326390000000  0.5607120000000 1.0
C      1  0.4773390000000  0.5363350000000  0.5771450000000 1.0
C      1  0.5457310000000  0.4289630000000  0.4924180000000 1.0
C      1  0.4585260000000  0.5678380000000  0.5387760000000 1.0
C      1  0.4600510000000  0.4800330000000  0.5128160000000 1.0
C      1  0.4853970000000  0.5736580000000  0.4933250000000 1.0
C      1  0.5548880000000  0.5391270000000  0.5209010000000 1.0
C      1  0.5201530000000  0.5414800000000  0.5533390000000 1.0
C      1  0.4688800000000  0.4873220000000  0.5637320000000 1.0
C      1  0.5942430000000  0.4854180000000  0.5259910000000 1.0
C      1  0.5048460000000  0.5437770000000  0.5769630000000 1.0
C      1  0.5086000000000  0.5089670000000  0.4567830000000 1.0
C      1  0.5034570000000  0.4400260000000  0.4270520000000 1.0
C      1  0.5011340000000  0.4686860000000  0.5336900000000 1.0
C      1  0.4553690000000  0.5333680000000  0.5068990000000 1.0
C      1  0.5174140000000  0.4839230000000  0.4448100000000 1.0
C      1  0.4201290000000  0.5110520000000  0.5491830000000 1.0
C      1  0.4576460000000  0.4263880000000  0.5164600000000 1.0
C      1  0.4848080000000  0.4263400000000  0.5172490000000 1.0
C      1  0.4561500000000  0.5498210000000  0.5625760000000 1.0
C      1  0.4950620000000  0.4647290000000  0.4380390000000 1.0
C      1  0.5072880000000  0.4431170000000  0.5213460000000 1.0
C      1  0.4773920000000  0.5803840000000  0.5194450000000 1.0
C      1  0.5564640000000  0.5380110000000  0.4730390000000 1.0
C      1  0.4660930000000  0.4670830000000  0.4439330000000 1.0
C      1  0.4746910000000  0.4766090000000  0.5384960000000 1.0
C      1  0.5412920000000  0.5706110000000  0.4403180000000 1.0
C      1  0.4441900000000  0.4797910000000  0.4555840000000 1.0
C      1  0.4671870000000  0.5205120000000  0.4434770000000 1.0
C      1  0.5837050000000  0.4837920000000  0.4996560000000 1.0
C      1  0.5192260000000  0.4187450000000  0.4301490000000 1.0
C      1  0.4350480000000  0.4417760000000  0.5171970000000 1.0
C      1  0.4452150000000  0.5277440000000  0.4808860000000 1.0
C      1  0.4184150000000  0.4887480000000  0.5336690000000 1.0
C      1  0.4635790000000  0.5188330000000  0.4167330000000 1.0
C      1  0.5879850000000  0.4724240000000  0.4740060000000 1.0
C      1  0.5369580000000  0.4779810000000  0.5058320000000 1.0
C      1  0.5449130000000  0.4766550000000  0.4445560000000 1.0
C      1  0.5471850000000  0.4127570000000  0.4713330000000 1.0
C      1  0.4726740000000  0.5083570000000  0.5799610000000 1.0
C      1  0.5367560000000  0.4080590000000  0.4472190000000 1.0
END
