TITL C-612607-4507-309 100736.10290676 125000 -1077.07705185709 0 0 174 (C1) n - 1
REM
REM in /home/nfs/bkarasulu/CARBON/AIRSS/Generating-Clusters/TERSOFF/Only-C1/FIRE-HFTN
REM
REM
REM
REM
REM
REM ./C.cell (11c1c37f851c82e70ff6c80c92926a4b)
REM AIRSS Version 0.9.1 bugfix July 2018 build 013d7b7c2542+ Fri, 06 Jul 2018 19:26:36 +0100
REM compiler GCC version 9.2.1 20190827 (Red Hat 9.2.1-1)
REM options -cpp -mtune=generic -march=x86-64 -g -O0 -fpre-include=/usr/include/finclude/math-vector-fortran.h
REM seed 1771711281 1010411853 -867909564 -515655905 1360875193 1754180976 1547626574 -1058223028 -326960801 621110002 2001208427 1858634938 -338062015 1110860948 767374684 745186025 1872720726 632783299 1684296433 1693332549 1862121693 956034724 74476401 -1909743919 -2031900607 -2102148367 2145846823 707591225 -469257722 1054653112 1123729274 943363547 1605617236
REM
CELL 1.54180   50.00000   50.00000   50.00000   90.00000   90.00000   90.00000
LATT -1
SFAC C  
C      1  0.5800380000000  0.5013230000000  0.4062880000000 1.0
C      1  0.4587200000000  0.5334980000000  0.6264810000000 1.0
C      1  0.4768660000000  0.5423100000000  0.5259710000000 1.0
C      1  0.5863150000000  0.5580000000000  0.5230370000000 1.0
C      1  0.5154570000000  0.5963230000000  0.4791710000000 1.0
C      1  0.5071240000000  0.5792920000000  0.4584340000000 1.0
C      1  0.3753760000000  0.4197790000000  0.4908170000000 1.0
C      1  0.4982630000000  0.5882860000000  0.4121940000000 1.0
C      1  0.4586540000000  0.5648710000000  0.5265400000000 1.0
C      1  0.4858740000000  0.5393920000000  0.6183140000000 1.0
C      1  0.4798800000000  0.5679800000000  0.4601790000000 1.0
C      1  0.4951110000000  0.4543820000000  0.6382530000000 1.0
C      1  0.5075110000000  0.5246170000000  0.4198500000000 1.0
C      1  0.4950350000000  0.6176930000000  0.5229880000000 1.0
C      1  0.4369490000000  0.4495560000000  0.5175350000000 1.0
C      1  0.5190010000000  0.5814360000000  0.4309770000000 1.0
C      1  0.5619760000000  0.5257770000000  0.3697430000000 1.0
C      1  0.5226890000000  0.4881970000000  0.4467000000000 1.0
C      1  0.5155530000000  0.4060360000000  0.4618770000000 1.0
C      1  0.4722890000000  0.5167670000000  0.5704880000000 1.0
C      1  0.5740150000000  0.4695130000000  0.4854090000000 1.0
C      1  0.4993390000000  0.4156390000000  0.4152540000000 1.0
C      1  0.5646340000000  0.5138240000000  0.5595230000000 1.0
C      1  0.5968200000000  0.5680160000000  0.4543810000000 1.0
C      1  0.5600920000000  0.4759200000000  0.5093330000000 1.0
C      1  0.5724050000000  0.4406170000000  0.4321580000000 1.0
C      1  0.4091220000000  0.4400640000000  0.5228150000000 1.0
C      1  0.4426520000000  0.4859930000000  0.5510600000000 1.0
C      1  0.5016980000000  0.6074600000000  0.5488270000000 1.0
C      1  0.5306380000000  0.5597710000000  0.5278470000000 1.0
C      1  0.4369670000000  0.4962220000000  0.6561930000000 1.0
C      1  0.6169770000000  0.4933580000000  0.5071920000000 1.0
C      1  0.3969130000000  0.4294480000000  0.4466550000000 1.0
C      1  0.5012140000000  0.4118540000000  0.4879370000000 1.0
C      1  0.4516860000000  0.4979430000000  0.5746640000000 1.0
C      1  0.5540860000000  0.5413790000000  0.4772770000000 1.0
C      1  0.4719270000000  0.4411800000000  0.6811080000000 1.0
C      1  0.5427930000000  0.4562640000000  0.5211960000000 1.0
C      1  0.5802550000000  0.5014690000000  0.4721250000000 1.0
C      1  0.6077540000000  0.5412530000000  0.4595460000000 1.0
C      1  0.4279630000000  0.4994100000000  0.5041270000000 1.0
C      1  0.5847650000000  0.5783280000000  0.4784250000000 1.0
C      1  0.4866450000000  0.5671870000000  0.6102450000000 1.0
C      1  0.4623930000000  0.5842210000000  0.4444230000000 1.0
C      1  0.5178370000000  0.4984950000000  0.5566370000000 1.0
C      1  0.5486380000000  0.4034130000000  0.4947860000000 1.0
C      1  0.4499160000000  0.5210960000000  0.6503380000000 1.0
C      1  0.5756000000000  0.4229100000000  0.5300240000000 1.0
C      1  0.4827160000000  0.5913190000000  0.5637840000000 1.0
C      1  0.5043770000000  0.4474910000000  0.4547250000000 1.0
C      1  0.5957380000000  0.4795740000000  0.4149030000000 1.0
C      1  0.5042120000000  0.4354750000000  0.5953610000000 1.0
C      1  0.4587040000000  0.4390910000000  0.4074100000000 1.0
C      1  0.4820150000000  0.5216700000000  0.4761690000000 1.0
C      1  0.5755840000000  0.4403770000000  0.4810110000000 1.0
C      1  0.4692340000000  0.6267510000000  0.5161560000000 1.0
C      1  0.5059610000000  0.4325420000000  0.6236480000000 1.0
C      1  0.4981530000000  0.3378670000000  0.4062230000000 1.0
C      1  0.4274920000000  0.5701420000000  0.4003810000000 1.0
C      1  0.5220690000000  0.4039570000000  0.5068730000000 1.0
C      1  0.4528850000000  0.4740840000000  0.6482130000000 1.0
C      1  0.5448910000000  0.4068140000000  0.4651360000000 1.0
C      1  0.3839180000000  0.5181470000000  0.5858260000000 1.0
C      1  0.5593320000000  0.5672440000000  0.4868580000000 1.0
C      1  0.4488670000000  0.6182440000000  0.5008670000000 1.0
C      1  0.4682280000000  0.5134800000000  0.5227610000000 1.0
C      1  0.5641990000000  0.5494600000000  0.4124940000000 1.0
C      1  0.5959280000000  0.4123890000000  0.5445310000000 1.0
C      1  0.3954500000000  0.5084750000000  0.3979290000000 1.0
C      1  0.5908790000000  0.5195680000000  0.4503730000000 1.0
C      1  0.5115550000000  0.6108400000000  0.5011630000000 1.0
C      1  0.5299110000000  0.5037630000000  0.4678220000000 1.0
C      1  0.4963150000000  0.4541580000000  0.5747600000000 1.0
C      1  0.4226280000000  0.5451360000000  0.5869110000000 1.0
C      1  0.4543750000000  0.4275410000000  0.5055330000000 1.0
C      1  0.4915470000000  0.3135600000000  0.4145040000000 1.0
C      1  0.4650170000000  0.5371630000000  0.3981910000000 1.0
C      1  0.4114790000000  0.5826580000000  0.4182250000000 1.0
C      1  0.4721610000000  0.4947980000000  0.4653830000000 1.0
C      1  0.4670940000000  0.4735610000000  0.4881180000000 1.0
C      1  0.4606120000000  0.5816240000000  0.5490570000000 1.0
C      1  0.4471420000000  0.4866390000000  0.5994050000000 1.0
C      1  0.4930990000000  0.5295940000000  0.3954610000000 1.0
C      1  0.4390740000000  0.5934590000000  0.4584720000000 1.0
C      1  0.4861770000000  0.4826670000000  0.3894070000000 1.0
C      1  0.4420340000000  0.5036630000000  0.5292380000000 1.0
C      1  0.5329140000000  0.4587140000000  0.3932860000000 1.0
C      1  0.3811650000000  0.5058350000000  0.6094720000000 1.0
C      1  0.5104840000000  0.4797160000000  0.5774840000000 1.0
C      1  0.4488210000000  0.5132370000000  0.4022900000000 1.0
C      1  0.5903090000000  0.5106950000000  0.5467230000000 1.0
C      1  0.4436370000000  0.5700380000000  0.5023270000000 1.0
C      1  0.4961220000000  0.5070060000000  0.3776670000000 1.0
C      1  0.4551190000000  0.5637130000000  0.4014420000000 1.0
C      1  0.4366960000000  0.4716540000000  0.4937440000000 1.0
C      1  0.4199730000000  0.4455830000000  0.4457130000000 1.0
C      1  0.5053540000000  0.4223790000000  0.4414610000000 1.0
C      1  0.4722330000000  0.4455810000000  0.5594740000000 1.0
C      1  0.4679470000000  0.4173030000000  0.5608730000000 1.0
C      1  0.4962940000000  0.5171390000000  0.5581350000000 1.0
C      1  0.5395840000000  0.5614120000000  0.4242420000000 1.0
C      1  0.5958570000000  0.4592760000000  0.4349330000000 1.0
C      1  0.5491410000000  0.5042090000000  0.5123100000000 1.0
C      1  0.5548120000000  0.4393410000000  0.5399590000000 1.0
C      1  0.4407850000000  0.5458900000000  0.4861350000000 1.0
C      1  0.5268640000000  0.5381890000000  0.4344860000000 1.0
C      1  0.5162600000000  0.5598840000000  0.5761800000000 1.0
C      1  0.5575200000000  0.5637470000000  0.5158980000000 1.0
C      1  0.5364810000000  0.5300840000000  0.4591290000000 1.0
C      1  0.4207330000000  0.5268640000000  0.4967180000000 1.0
C      1  0.4212630000000  0.5117960000000  0.3992620000000 1.0
C      1  0.4704990000000  0.5826080000000  0.4166720000000 1.0
C      1  0.5393100000000  0.4696720000000  0.4367280000000 1.0
C      1  0.5651040000000  0.4269330000000  0.4564510000000 1.0
C      1  0.4660630000000  0.5444470000000  0.4709170000000 1.0
C      1  0.3899900000000  0.4985190000000  0.6336330000000 1.0
C      1  0.4027710000000  0.5377840000000  0.5166570000000 1.0
C      1  0.4731030000000  0.4553070000000  0.6579120000000 1.0
C      1  0.5074450000000  0.4839760000000  0.5101960000000 1.0
C      1  0.4012250000000  0.5351170000000  0.5712520000000 1.0
C      1  0.4508500000000  0.4594690000000  0.5441310000000 1.0
C      1  0.5639360000000  0.5004710000000  0.3823890000000 1.0
C      1  0.4155870000000  0.5932030000000  0.4428000000000 1.0
C      1  0.4863660000000  0.4363110000000  0.4012330000000 1.0
C      1  0.4599440000000  0.3980960000000  0.5438460000000 1.0
C      1  0.5162170000000  0.4520800000000  0.4788350000000 1.0
C      1  0.5292540000000  0.6016770000000  0.5546210000000 1.0
C      1  0.4939060000000  0.5749110000000  0.5844290000000 1.0
C      1  0.5645420000000  0.5490070000000  0.3837330000000 1.0
C      1  0.4648020000000  0.4900900000000  0.4097620000000 1.0
C      1  0.6027860000000  0.5672860000000  0.4996370000000 1.0
C      1  0.5031460000000  0.3901480000000  0.4048700000000 1.0
C      1  0.4386480000000  0.5427160000000  0.6082870000000 1.0
C      1  0.5188350000000  0.4588110000000  0.5062620000000 1.0
C      1  0.4532400000000  0.4022580000000  0.5180500000000 1.0
C      1  0.6164080000000  0.5227630000000  0.5074330000000 1.0
C      1  0.6040450000000  0.4875590000000  0.5336810000000 1.0
C      1  0.3986040000000  0.5394910000000  0.5433480000000 1.0
C      1  0.5485130000000  0.6205380000000  0.5586870000000 1.0
C      1  0.4909120000000  0.4779730000000  0.6214930000000 1.0
C      1  0.6168930000000  0.5432940000000  0.4874790000000 1.0
C      1  0.4622980000000  0.4799180000000  0.6213150000000 1.0
C      1  0.5561900000000  0.5343030000000  0.5782960000000 1.0
C      1  0.5064290000000  0.4931560000000  0.6036660000000 1.0
C      1  0.4409460000000  0.5947710000000  0.4875020000000 1.0
C      1  0.5781610000000  0.5244730000000  0.4241310000000 1.0
C      1  0.5991240000000  0.5328690000000  0.5301980000000 1.0
C      1  0.6200210000000  0.4769640000000  0.4830440000000 1.0
C      1  0.5024360000000  0.4586300000000  0.3923850000000 1.0
C      1  0.5046900000000  0.5278930000000  0.4948530000000 1.0
C      1  0.5607040000000  0.5615400000000  0.5677460000000 1.0
C      1  0.4240370000000  0.4622910000000  0.4682460000000 1.0
C      1  0.5085160000000  0.5222750000000  0.6071110000000 1.0
C      1  0.5489410000000  0.4514360000000  0.4174150000000 1.0
C      1  0.5048700000000  0.5465160000000  0.5169950000000 1.0
C      1  0.5024840000000  0.4992710000000  0.4315210000000 1.0
C      1  0.5172020000000  0.4107610000000  0.6355220000000 1.0
C      1  0.3793800000000  0.4197570000000  0.4643730000000 1.0
C      1  0.4383170000000  0.4428860000000  0.4244530000000 1.0
C      1  0.6126580000000  0.4650150000000  0.4588530000000 1.0
C      1  0.5230200000000  0.5049260000000  0.4967850000000 1.0
C      1  0.4839070000000  0.2909170000000  0.4249260000000 1.0
C      1  0.5715300000000  0.4196290000000  0.5021850000000 1.0
C      1  0.4760140000000  0.4364290000000  0.4911290000000 1.0
C      1  0.5426780000000  0.5048920000000  0.5429630000000 1.0
C      1  0.5665790000000  0.5190580000000  0.4914470000000 1.0
C      1  0.3871740000000  0.4284080000000  0.5131740000000 1.0
C      1  0.4756240000000  0.4912480000000  0.4368510000000 1.0
C      1  0.4090910000000  0.4952140000000  0.6521250000000 1.0
C      1  0.5344510000000  0.5722450000000  0.5560030000000 1.0
C      1  0.4804320000000  0.4889190000000  0.5110190000000 1.0
C      1  0.5280740000000  0.5366790000000  0.5902770000000 1.0
C      1  0.5468520000000  0.4784010000000  0.3776650000000 1.0
C      1  0.5023700000000  0.3637630000000  0.4024380000000 1.0
END
