TITL C-612601-4209-1186 0.00035743081470332 125000 -790.300215204303 0 0 128 (C1) n - 1
REM
REM in /home/nfs/bkarasulu/CARBON/AIRSS/Generating-Clusters/TERSOFF/Only-C1/FIRE-HFTN
REM
REM
REM
REM
REM
REM ./C.cell (11c1c37f851c82e70ff6c80c92926a4b)
REM AIRSS Version 0.9.1 bugfix July 2018 build 013d7b7c2542+ Fri, 06 Jul 2018 19:26:36 +0100
REM compiler GCC version 9.2.1 20190827 (Red Hat 9.2.1-1)
REM options -cpp -mtune=generic -march=x86-64 -g -O0 -fpre-include=/usr/include/finclude/math-vector-fortran.h
REM seed -94438064 -1775714310 -259190627 1016599386 -632871489 -596493190 -851803595 -2038663135 -1591645336 -165136869 -1661438343 781495816 1152048190 -1195799856 1269378935 765645755 177318083 -446732635 -1463747429 -457942960 1239456034 922788686 -534206308 -255232398 1501483540 -369072234 -1799376288 -557837172 -487012340 1433764221 1891676889 -159341030 1806022677
REM
CELL 1.54180   50.00000   50.00000   50.00000   90.00000   90.00000   90.00000
LATT -1
SFAC C  
C      1  0.5586250000000  0.5263240000000  0.6036970000000 1.0
C      1  0.4533980000000  0.5865910000000  0.4855340000000 1.0
C      1  0.4884720000000  0.5519350000000  0.4473850000000 1.0
C      1  0.4833750000000  0.4710330000000  0.4228990000000 1.0
C      1  0.4284200000000  0.4811080000000  0.5794800000000 1.0
C      1  0.4875510000000  0.5054330000000  0.5434580000000 1.0
C      1  0.5094150000000  0.4163630000000  0.4213570000000 1.0
C      1  0.5884570000000  0.5097980000000  0.5173780000000 1.0
C      1  0.5825500000000  0.5133910000000  0.5982740000000 1.0
C      1  0.4562190000000  0.4120590000000  0.5168770000000 1.0
C      1  0.5300990000000  0.4744750000000  0.4019930000000 1.0
C      1  0.5488490000000  0.4855630000000  0.5817240000000 1.0
C      1  0.5339290000000  0.4307820000000  0.4258870000000 1.0
C      1  0.5704830000000  0.5668600000000  0.5548810000000 1.0
C      1  0.5379340000000  0.4678530000000  0.4828780000000 1.0
C      1  0.5147350000000  0.5053100000000  0.4447990000000 1.0
C      1  0.4355790000000  0.4095930000000  0.5700440000000 1.0
C      1  0.4982500000000  0.4846410000000  0.6046200000000 1.0
C      1  0.3655300000000  0.4889650000000  0.5098600000000 1.0
C      1  0.4981150000000  0.4106160000000  0.4474550000000 1.0
C      1  0.5547560000000  0.5369330000000  0.4972100000000 1.0
C      1  0.5753430000000  0.4228970000000  0.4931640000000 1.0
C      1  0.4984510000000  0.5324280000000  0.5432500000000 1.0
C      1  0.4718710000000  0.5018110000000  0.4566370000000 1.0
C      1  0.5329280000000  0.5478740000000  0.5106740000000 1.0
C      1  0.4581640000000  0.4397230000000  0.4540060000000 1.0
C      1  0.5503590000000  0.4229840000000  0.5096150000000 1.0
C      1  0.4576900000000  0.5143970000000  0.4357420000000 1.0
C      1  0.5001970000000  0.3954220000000  0.5423490000000 1.0
C      1  0.5498470000000  0.4512260000000  0.4651190000000 1.0
C      1  0.4729510000000  0.5939200000000  0.4641740000000 1.0
C      1  0.4649480000000  0.4929440000000  0.5525590000000 1.0
C      1  0.4510780000000  0.4592660000000  0.5047480000000 1.0
C      1  0.5421240000000  0.5887560000000  0.4705100000000 1.0
C      1  0.4795000000000  0.4451540000000  0.5429170000000 1.0
C      1  0.4612440000000  0.5974300000000  0.5107940000000 1.0
C      1  0.4962590000000  0.5051970000000  0.3888020000000 1.0
C      1  0.5210340000000  0.6012660000000  0.4547800000000 1.0
C      1  0.5033480000000  0.5463760000000  0.5672050000000 1.0
C      1  0.5704840000000  0.4673740000000  0.4294560000000 1.0
C      1  0.5750230000000  0.4606490000000  0.5333180000000 1.0
C      1  0.5362790000000  0.5103390000000  0.5943990000000 1.0
C      1  0.4912280000000  0.4648750000000  0.4720510000000 1.0
C      1  0.5304090000000  0.4498900000000  0.5503320000000 1.0
C      1  0.5190970000000  0.4129340000000  0.4686320000000 1.0
C      1  0.3720980000000  0.5394020000000  0.5110110000000 1.0
C      1  0.3827900000000  0.4694100000000  0.5152340000000 1.0
C      1  0.5376630000000  0.5744010000000  0.5202860000000 1.0
C      1  0.4382100000000  0.5036460000000  0.5396630000000 1.0
C      1  0.5015450000000  0.3980560000000  0.5135300000000 1.0
C      1  0.5818520000000  0.5124310000000  0.4671930000000 1.0
C      1  0.5118820000000  0.4633520000000  0.4901060000000 1.0
C      1  0.5680180000000  0.4971150000000  0.4236680000000 1.0
C      1  0.5321990000000  0.4631260000000  0.5759630000000 1.0
C      1  0.5975450000000  0.5369610000000  0.5228180000000 1.0
C      1  0.5240410000000  0.4099160000000  0.4980280000000 1.0
C      1  0.6211340000000  0.5677860000000  0.4914970000000 1.0
C      1  0.4069020000000  0.4620320000000  0.5274320000000 1.0
C      1  0.5689350000000  0.5105990000000  0.4942390000000 1.0
C      1  0.4953120000000  0.5172760000000  0.4996250000000 1.0
C      1  0.4635410000000  0.5342380000000  0.5926750000000 1.0
C      1  0.5054380000000  0.4532690000000  0.5371850000000 1.0
C      1  0.5100000000000  0.4622950000000  0.5941120000000 1.0
C      1  0.4934620000000  0.6286830000000  0.5685390000000 1.0
C      1  0.5764850000000  0.4547440000000  0.4552990000000 1.0
C      1  0.4936980000000  0.4837210000000  0.4491710000000 1.0
C      1  0.5439340000000  0.5742500000000  0.5483520000000 1.0
C      1  0.4612240000000  0.4389330000000  0.5222650000000 1.0
C      1  0.4557470000000  0.4722470000000  0.5725590000000 1.0
C      1  0.5076390000000  0.5376620000000  0.5159820000000 1.0
C      1  0.4072650000000  0.4631500000000  0.5754690000000 1.0
C      1  0.5774290000000  0.4893790000000  0.5853590000000 1.0
C      1  0.5608430000000  0.5672720000000  0.4623680000000 1.0
C      1  0.4901210000000  0.6180160000000  0.5449970000000 1.0
C      1  0.5014710000000  0.4798820000000  0.4012680000000 1.0
C      1  0.4639230000000  0.4560050000000  0.4782070000000 1.0
C      1  0.5524010000000  0.4424620000000  0.5327140000000 1.0
C      1  0.4062250000000  0.4469770000000  0.5521070000000 1.0
C      1  0.5091150000000  0.5324200000000  0.4427380000000 1.0
C      1  0.3951420000000  0.5527900000000  0.5118150000000 1.0
C      1  0.4708760000000  0.4133390000000  0.4548760000000 1.0
C      1  0.4405410000000  0.5454370000000  0.4636570000000 1.0
C      1  0.5381450000000  0.4287620000000  0.4544020000000 1.0
C      1  0.5901160000000  0.5503530000000  0.5466430000000 1.0
C      1  0.4625740000000  0.4175900000000  0.5736720000000 1.0
C      1  0.5734610000000  0.5560460000000  0.4856510000000 1.0
C      1  0.4250540000000  0.5083530000000  0.5680040000000 1.0
C      1  0.5275780000000  0.5459990000000  0.3969460000000 1.0
C      1  0.5056920000000  0.4707420000000  0.5156710000000 1.0
C      1  0.5083230000000  0.5926150000000  0.4308960000000 1.0
C      1  0.3610230000000  0.5152190000000  0.5092720000000 1.0
C      1  0.5069030000000  0.6065170000000  0.4999970000000 1.0
C      1  0.5900430000000  0.4366070000000  0.4735650000000 1.0
C      1  0.4317540000000  0.5235290000000  0.4449680000000 1.0
C      1  0.4864110000000  0.6073610000000  0.5196230000000 1.0
C      1  0.4385770000000  0.5286320000000  0.5834360000000 1.0
C      1  0.4775400000000  0.5191300000000  0.4786750000000 1.0
C      1  0.5718950000000  0.5198260000000  0.4415680000000 1.0
C      1  0.5482980000000  0.4974700000000  0.4023350000000 1.0
C      1  0.4949420000000  0.4956820000000  0.5179030000000 1.0
C      1  0.4345370000000  0.5635840000000  0.4851620000000 1.0
C      1  0.4311160000000  0.4756530000000  0.5195170000000 1.0
C      1  0.5081350000000  0.5109110000000  0.5996250000000 1.0
C      1  0.4173160000000  0.4984710000000  0.4405650000000 1.0
C      1  0.4919980000000  0.5328470000000  0.5900200000000 1.0
C      1  0.4841560000000  0.4007090000000  0.5639490000000 1.0
C      1  0.5880850000000  0.4843250000000  0.5303220000000 1.0
C      1  0.4356550000000  0.5287730000000  0.5228060000000 1.0
C      1  0.4309280000000  0.4753250000000  0.4318690000000 1.0
C      1  0.4229390000000  0.5502400000000  0.5082030000000 1.0
C      1  0.4558330000000  0.4589800000000  0.4310530000000 1.0
C      1  0.5986010000000  0.5545870000000  0.4992690000000 1.0
C      1  0.4616540000000  0.5809010000000  0.4153880000000 1.0
C      1  0.5609610000000  0.5478670000000  0.4390320000000 1.0
C      1  0.5083590000000  0.5294050000000  0.3878180000000 1.0
C      1  0.4669630000000  0.4461530000000  0.5685760000000 1.0
C      1  0.4818320000000  0.5794200000000  0.4371520000000 1.0
C      1  0.5462920000000  0.4539850000000  0.4150720000000 1.0
C      1  0.5331540000000  0.5934530000000  0.4996640000000 1.0
C      1  0.4698850000000  0.5438270000000  0.4672240000000 1.0
C      1  0.4146860000000  0.4204200000000  0.5566370000000 1.0
C      1  0.4656280000000  0.3942440000000  0.4751740000000 1.0
C      1  0.5463910000000  0.5530240000000  0.4149680000000 1.0
C      1  0.4981490000000  0.6075630000000  0.4727430000000 1.0
C      1  0.5226850000000  0.5669680000000  0.5659400000000 1.0
C      1  0.4745840000000  0.3968920000000  0.5017580000000 1.0
C      1  0.5508020000000  0.4885690000000  0.4949750000000 1.0
C      1  0.4991050000000  0.4090340000000  0.3973610000000 1.0
END
