TITL C-612603-7354-1466 0.137873486520928 125000 -825.352873819878 0 0 137 (C1) n - 1
REM
REM in /home/nfs/bkarasulu/CARBON/AIRSS/Generating-Clusters/TERSOFF/Only-C1/FIRE-HFTN
REM
REM
REM
REM
REM
REM ./C.cell (11c1c37f851c82e70ff6c80c92926a4b)
REM AIRSS Version 0.9.1 bugfix July 2018 build 013d7b7c2542+ Fri, 06 Jul 2018 19:26:36 +0100
REM compiler GCC version 9.2.1 20190827 (Red Hat 9.2.1-1)
REM options -cpp -mtune=generic -march=x86-64 -g -O0 -fpre-include=/usr/include/finclude/math-vector-fortran.h
REM seed 1922773923 -60854885 2102215922 316637958 -837456508 357658644 -1197357067 416240451 970874193 -1956181602 -1994545171 -1710813747 883725971 1899616298 -504943117 -95225053 -2007825156 1438297679 -1153831504 1757634811 1121029740 1837435951 495765996 1847851270 -725535883 -478854050 -214976036 -790694245 1520793405 978384598 1235123125 -107545404 2111870725
REM
CELL 1.54180   50.00000   50.00000   50.00000   90.00000   90.00000   90.00000
LATT -1
SFAC C  
C      1  0.5409380000000  0.6011680000000  0.4559160000000 1.0
C      1  0.4761140000000  0.4541690000000  0.5787820000000 1.0
C      1  0.4254700000000  0.5379800000000  0.5823420000000 1.0
C      1  0.5532460000000  0.5364160000000  0.4918750000000 1.0
C      1  0.5302060000000  0.5274750000000  0.5368820000000 1.0
C      1  0.5314910000000  0.5559630000000  0.5414340000000 1.0
C      1  0.4280010000000  0.5480960000000  0.4963180000000 1.0
C      1  0.5164800000000  0.5471620000000  0.4508540000000 1.0
C      1  0.5198180000000  0.5307130000000  0.5959370000000 1.0
C      1  0.6467720000000  0.5571970000000  0.4793490000000 1.0
C      1  0.5117320000000  0.4513980000000  0.5256640000000 1.0
C      1  0.4856260000000  0.6051120000000  0.4481380000000 1.0
C      1  0.5147700000000  0.4658400000000  0.5503610000000 1.0
C      1  0.4200310000000  0.5281960000000  0.4512000000000 1.0
C      1  0.4534690000000  0.4413170000000  0.3519220000000 1.0
C      1  0.5852300000000  0.6088840000000  0.4747660000000 1.0
C      1  0.6070940000000  0.4799380000000  0.4965560000000 1.0
C      1  0.5607310000000  0.5567090000000  0.6054490000000 1.0
C      1  0.5656790000000  0.4534310000000  0.4692110000000 1.0
C      1  0.4710640000000  0.6112530000000  0.4239420000000 1.0
C      1  0.5572850000000  0.4300160000000  0.4547730000000 1.0
C      1  0.5272340000000  0.4710410000000  0.3991920000000 1.0
C      1  0.5120140000000  0.3795200000000  0.5817340000000 1.0
C      1  0.5808320000000  0.4735590000000  0.4549870000000 1.0
C      1  0.5125110000000  0.5941090000000  0.5158760000000 1.0
C      1  0.5299220000000  0.5719340000000  0.5176290000000 1.0
C      1  0.5391730000000  0.4778120000000  0.5566120000000 1.0
C      1  0.4535270000000  0.5659130000000  0.4248240000000 1.0
C      1  0.4566130000000  0.4610820000000  0.4018730000000 1.0
C      1  0.5143560000000  0.5831880000000  0.4206850000000 1.0
C      1  0.5921150000000  0.4479850000000  0.5425190000000 1.0
C      1  0.4271750000000  0.5077060000000  0.4314110000000 1.0
C      1  0.4708660000000  0.4723910000000  0.5218330000000 1.0
C      1  0.5412730000000  0.4361290000000  0.4322930000000 1.0
C      1  0.4923030000000  0.5384290000000  0.4106370000000 1.0
C      1  0.4902390000000  0.5453850000000  0.4969650000000 1.0
C      1  0.5743450000000  0.4735340000000  0.5862800000000 1.0
C      1  0.4241430000000  0.4780630000000  0.4347110000000 1.0
C      1  0.4788430000000  0.5010890000000  0.5629500000000 1.0
C      1  0.4401710000000  0.4573550000000  0.4745350000000 1.0
C      1  0.5905980000000  0.4600460000000  0.5687800000000 1.0
C      1  0.4347160000000  0.4342310000000  0.5675280000000 1.0
C      1  0.5567300000000  0.4047660000000  0.4675530000000 1.0
C      1  0.4186590000000  0.4675460000000  0.4608360000000 1.0
C      1  0.4317470000000  0.5123390000000  0.5710320000000 1.0
C      1  0.5107900000000  0.5865410000000  0.5713360000000 1.0
C      1  0.5001960000000  0.4337520000000  0.4641360000000 1.0
C      1  0.4783870000000  0.5278040000000  0.5470610000000 1.0
C      1  0.4435820000000  0.5048810000000  0.4910430000000 1.0
C      1  0.5791120000000  0.5666730000000  0.4509660000000 1.0
C      1  0.4039070000000  0.5577840000000  0.5401020000000 1.0
C      1  0.4075070000000  0.4501270000000  0.6072030000000 1.0
C      1  0.5698140000000  0.5288390000000  0.5134850000000 1.0
C      1  0.5967350000000  0.5459330000000  0.4625890000000 1.0
C      1  0.5256880000000  0.4582490000000  0.4246860000000 1.0
C      1  0.5386190000000  0.5520080000000  0.5901950000000 1.0
C      1  0.4630580000000  0.4127730000000  0.4853700000000 1.0
C      1  0.5289360000000  0.4470770000000  0.5029060000000 1.0
C      1  0.5738740000000  0.4845960000000  0.4291520000000 1.0
C      1  0.4519530000000  0.4162080000000  0.4602890000000 1.0
C      1  0.5045330000000  0.4012710000000  0.5145240000000 1.0
C      1  0.4566300000000  0.5912840000000  0.4120170000000 1.0
C      1  0.4909340000000  0.4596260000000  0.4601080000000 1.0
C      1  0.4104960000000  0.5555470000000  0.5661980000000 1.0
C      1  0.5961260000000  0.4916740000000  0.4720620000000 1.0
C      1  0.4915160000000  0.4743470000000  0.5650590000000 1.0
C      1  0.5942150000000  0.4662000000000  0.5189740000000 1.0
C      1  0.4078880000000  0.4477750000000  0.5236110000000 1.0
C      1  0.5334280000000  0.4943170000000  0.4629500000000 1.0
C      1  0.5588750000000  0.5003730000000  0.4124550000000 1.0
C      1  0.4691240000000  0.5417630000000  0.6106430000000 1.0
C      1  0.5561180000000  0.5159540000000  0.5340890000000 1.0
C      1  0.4630860000000  0.5412290000000  0.4123360000000 1.0
C      1  0.4296810000000  0.5512180000000  0.4670390000000 1.0
C      1  0.4305440000000  0.4480600000000  0.5930880000000 1.0
C      1  0.5352430000000  0.3794180000000  0.5935510000000 1.0
C      1  0.5320100000000  0.4997420000000  0.4012800000000 1.0
C      1  0.5343490000000  0.5570250000000  0.4938370000000 1.0
C      1  0.5058040000000  0.5573010000000  0.4265240000000 1.0
C      1  0.5480520000000  0.4846050000000  0.5829420000000 1.0
C      1  0.5856760000000  0.5183110000000  0.4652700000000 1.0
C      1  0.4175380000000  0.4354920000000  0.5454270000000 1.0
C      1  0.4088940000000  0.5414790000000  0.5176080000000 1.0
C      1  0.4638150000000  0.4307580000000  0.5655830000000 1.0
C      1  0.4765020000000  0.4786080000000  0.4102460000000 1.0
C      1  0.5533980000000  0.4589100000000  0.4952280000000 1.0
C      1  0.5664140000000  0.4730130000000  0.5154030000000 1.0
C      1  0.5075880000000  0.5136000000000  0.4096900000000 1.0
C      1  0.5148700000000  0.6009630000000  0.4434630000000 1.0
C      1  0.4761360000000  0.4060000000000  0.5633940000000 1.0
C      1  0.4661580000000  0.4683810000000  0.4708650000000 1.0
C      1  0.5340240000000  0.3982530000000  0.5140900000000 1.0
C      1  0.4926920000000  0.4953770000000  0.4291860000000 1.0
C      1  0.4175300000000  0.4946680000000  0.5014350000000 1.0
C      1  0.4681900000000  0.5892790000000  0.4660960000000 1.0
C      1  0.4853000000000  0.5770630000000  0.5627180000000 1.0
C      1  0.4743320000000  0.3580950000000  0.5610750000000 1.0
C      1  0.4561550000000  0.5022520000000  0.5807910000000 1.0
C      1  0.4266610000000  0.5014230000000  0.5452290000000 1.0
C      1  0.4467340000000  0.4813760000000  0.5353500000000 1.0
C      1  0.5460180000000  0.3918980000000  0.4887770000000 1.0
C      1  0.4431550000000  0.4301850000000  0.4380860000000 1.0
C      1  0.4835580000000  0.5488330000000  0.5664340000000 1.0
C      1  0.4832130000000  0.4456310000000  0.5190900000000 1.0
C      1  0.5183190000000  0.4302540000000  0.4831420000000 1.0
C      1  0.4842380000000  0.5969540000000  0.5169140000000 1.0
C      1  0.6227530000000  0.5518370000000  0.4707840000000 1.0
C      1  0.4548640000000  0.4509200000000  0.3761080000000 1.0
C      1  0.5321180000000  0.5045550000000  0.5962050000000 1.0
C      1  0.4445100000000  0.5194570000000  0.4115970000000 1.0
C      1  0.4494770000000  0.5298830000000  0.5035400000000 1.0
C      1  0.5685180000000  0.5922590000000  0.4605490000000 1.0
C      1  0.4381840000000  0.4546930000000  0.4223220000000 1.0
C      1  0.4628930000000  0.4965460000000  0.4720040000000 1.0
C      1  0.4728140000000  0.5912980000000  0.5420760000000 1.0
C      1  0.4075320000000  0.4684880000000  0.5064240000000 1.0
C      1  0.5541570000000  0.5190010000000  0.4669410000000 1.0
C      1  0.4693730000000  0.5959200000000  0.4933140000000 1.0
C      1  0.5552870000000  0.4881750000000  0.5358490000000 1.0
C      1  0.4767530000000  0.5091360000000  0.4509610000000 1.0
C      1  0.5318130000000  0.5677300000000  0.5674900000000 1.0
C      1  0.4107880000000  0.5128750000000  0.5237540000000 1.0
C      1  0.5106890000000  0.5514640000000  0.4786030000000 1.0
C      1  0.5106730000000  0.5106870000000  0.5237640000000 1.0
C      1  0.4427160000000  0.5451690000000  0.6041300000000 1.0
C      1  0.5531930000000  0.4096410000000  0.5326210000000 1.0
C      1  0.4873430000000  0.3809280000000  0.5686440000000 1.0
C      1  0.5613610000000  0.5539740000000  0.4328870000000 1.0
C      1  0.4565120000000  0.4590780000000  0.5998470000000 1.0
C      1  0.4911040000000  0.4931590000000  0.5166170000000 1.0
C      1  0.5118480000000  0.4769700000000  0.4457370000000 1.0
C      1  0.5753880000000  0.4243310000000  0.5386840000000 1.0
C      1  0.4730310000000  0.5355590000000  0.5180750000000 1.0
C      1  0.4499370000000  0.5686550000000  0.4541140000000 1.0
C      1  0.4916310000000  0.5391420000000  0.5931870000000 1.0
C      1  0.5428010000000  0.5374170000000  0.4458170000000 1.0
C      1  0.4806670000000  0.4184310000000  0.5080100000000 1.0
END
