TITL C-612607-4507-455 -0.0208765431330122 125000 -746.687682018937 0 0 122 (C1) n - 1
REM
REM in /home/nfs/bkarasulu/CARBON/AIRSS/Generating-Clusters/TERSOFF/Only-C1/FIRE-HFTN
REM
REM
REM
REM
REM
REM ./C.cell (11c1c37f851c82e70ff6c80c92926a4b)
REM AIRSS Version 0.9.1 bugfix July 2018 build 013d7b7c2542+ Fri, 06 Jul 2018 19:26:36 +0100
REM compiler GCC version 9.2.1 20190827 (Red Hat 9.2.1-1)
REM options -cpp -mtune=generic -march=x86-64 -g -O0 -fpre-include=/usr/include/finclude/math-vector-fortran.h
REM seed -1732126529 -1305309665 1746861272 677723923 381884472 -376884150 1216188712 1259274537 -2016178711 1563371317 689392700 809450914 -716116527 1476351219 -2009210277 -1850781941 1167600286 -1909266713 -1966188947 1248898774 637651893 -1272565393 1134062108 611446404 2048153622 1788721341 2099995168 -567346709 344269817 -1520714165 -2142706234 -1747032752 -1877711687
REM
CELL 1.54180   50.00000   50.00000   50.00000   90.00000   90.00000   90.00000
LATT -1
SFAC C  
C      1  0.5039890000000  0.5374910000000  0.4492600000000 1.0
C      1  0.4732930000000  0.5684260000000  0.5689190000000 1.0
C      1  0.4830670000000  0.5300210000000  0.5138900000000 1.0
C      1  0.4410990000000  0.5326890000000  0.5848820000000 1.0
C      1  0.5378890000000  0.5465240000000  0.5029050000000 1.0
C      1  0.4647000000000  0.4156730000000  0.5233520000000 1.0
C      1  0.4446510000000  0.5515320000000  0.5326330000000 1.0
C      1  0.5126580000000  0.4770280000000  0.5236110000000 1.0
C      1  0.5197630000000  0.4076310000000  0.4406390000000 1.0
C      1  0.4378050000000  0.5045680000000  0.5857840000000 1.0
C      1  0.4584780000000  0.5275900000000  0.5280500000000 1.0
C      1  0.5211400000000  0.4369640000000  0.5556680000000 1.0
C      1  0.5672100000000  0.4451880000000  0.5636400000000 1.0
C      1  0.4526330000000  0.5552560000000  0.4267880000000 1.0
C      1  0.5871710000000  0.5432700000000  0.4462150000000 1.0
C      1  0.5304430000000  0.4972660000000  0.4079030000000 1.0
C      1  0.4991820000000  0.4630910000000  0.4051150000000 1.0
C      1  0.6560100000000  0.4519180000000  0.4517560000000 1.0
C      1  0.4209510000000  0.4505240000000  0.5111190000000 1.0
C      1  0.3991150000000  0.5640620000000  0.5356020000000 1.0
C      1  0.5066630000000  0.4002600000000  0.4626670000000 1.0
C      1  0.5102090000000  0.5102980000000  0.5789200000000 1.0
C      1  0.5239690000000  0.5532880000000  0.4567180000000 1.0
C      1  0.5452130000000  0.4998230000000  0.5408230000000 1.0
C      1  0.5227780000000  0.4045900000000  0.5081170000000 1.0
C      1  0.4926590000000  0.5761270000000  0.4919520000000 1.0
C      1  0.4550240000000  0.4313650000000  0.4498470000000 1.0
C      1  0.4232330000000  0.5196520000000  0.4427560000000 1.0
C      1  0.4843080000000  0.5917600000000  0.4694790000000 1.0
C      1  0.5365300000000  0.6105830000000  0.5752400000000 1.0
C      1  0.4420360000000  0.5402330000000  0.4497740000000 1.0
C      1  0.4419230000000  0.4571570000000  0.5613510000000 1.0
C      1  0.5627780000000  0.4712250000000  0.5777700000000 1.0
C      1  0.5614750000000  0.4721480000000  0.4422830000000 1.0
C      1  0.5811610000000  0.5201270000000  0.5561440000000 1.0
C      1  0.5026720000000  0.4154510000000  0.5500150000000 1.0
C      1  0.4437900000000  0.4566920000000  0.4433660000000 1.0
C      1  0.4919160000000  0.4669990000000  0.5695140000000 1.0
C      1  0.3879200000000  0.4855700000000  0.4566920000000 1.0
C      1  0.4977740000000  0.5820890000000  0.5711640000000 1.0
C      1  0.4346340000000  0.5901120000000  0.5081070000000 1.0
C      1  0.5434400000000  0.4741030000000  0.4201040000000 1.0
C      1  0.5832690000000  0.4687980000000  0.5263590000000 1.0
C      1  0.5204340000000  0.3969310000000  0.5358780000000 1.0
C      1  0.5772790000000  0.4966830000000  0.5712160000000 1.0
C      1  0.5695730000000  0.4237750000000  0.5189140000000 1.0
C      1  0.5636360000000  0.4880970000000  0.5218970000000 1.0
C      1  0.4903420000000  0.5277960000000  0.5873870000000 1.0
C      1  0.5649870000000  0.5938820000000  0.4998240000000 1.0
C      1  0.5850380000000  0.4886530000000  0.4423430000000 1.0
C      1  0.4950720000000  0.4630470000000  0.4844930000000 1.0
C      1  0.4577070000000  0.5736400000000  0.5462420000000 1.0
C      1  0.5268050000000  0.5213020000000  0.5007780000000 1.0
C      1  0.4536380000000  0.5829640000000  0.4335100000000 1.0
C      1  0.3991110000000  0.5100640000000  0.4539200000000 1.0
C      1  0.6108420000000  0.5276300000000  0.4959700000000 1.0
C      1  0.5460450000000  0.4221340000000  0.5025290000000 1.0
C      1  0.4677560000000  0.5439590000000  0.5829250000000 1.0
C      1  0.5791520000000  0.4436890000000  0.5374020000000 1.0
C      1  0.5827240000000  0.5668710000000  0.4585960000000 1.0
C      1  0.5418780000000  0.5047920000000  0.4830160000000 1.0
C      1  0.4994850000000  0.4048010000000  0.4896750000000 1.0
C      1  0.4175840000000  0.5477890000000  0.5798800000000 1.0
C      1  0.3998570000000  0.5571530000000  0.5618630000000 1.0
C      1  0.5444930000000  0.3987350000000  0.5534010000000 1.0
C      1  0.5252600000000  0.4525310000000  0.4141470000000 1.0
C      1  0.4507030000000  0.4231620000000  0.4773380000000 1.0
C      1  0.4144310000000  0.4773020000000  0.5025430000000 1.0
C      1  0.5544060000000  0.4558070000000  0.4653770000000 1.0
C      1  0.4245320000000  0.4329050000000  0.4882250000000 1.0
C      1  0.4347620000000  0.5003910000000  0.4251470000000 1.0
C      1  0.4265910000000  0.4479840000000  0.5388930000000 1.0
C      1  0.5463010000000  0.4260840000000  0.5644560000000 1.0
C      1  0.5292790000000  0.5138040000000  0.5580560000000 1.0
C      1  0.4381840000000  0.5964410000000  0.4805430000000 1.0
C      1  0.4842170000000  0.5159920000000  0.4115320000000 1.0
C      1  0.4530440000000  0.4819060000000  0.4358090000000 1.0
C      1  0.5018660000000  0.5924540000000  0.5142980000000 1.0
C      1  0.5671090000000  0.5028460000000  0.4974000000000 1.0
C      1  0.4474100000000  0.5024230000000  0.5244590000000 1.0
C      1  0.4718960000000  0.4713910000000  0.4979210000000 1.0
C      1  0.5250730000000  0.4931190000000  0.4632890000000 1.0
C      1  0.5859110000000  0.5234790000000  0.5061920000000 1.0
C      1  0.5012240000000  0.4935960000000  0.4025910000000 1.0
C      1  0.4338240000000  0.4975250000000  0.4987350000000 1.0
C      1  0.4667380000000  0.5392200000000  0.4063880000000 1.0
C      1  0.4570480000000  0.4911180000000  0.4810050000000 1.0
C      1  0.5552200000000  0.5549520000000  0.5249860000000 1.0
C      1  0.5277920000000  0.4262460000000  0.4232980000000 1.0
C      1  0.4347120000000  0.4795490000000  0.5768690000000 1.0
C      1  0.4221990000000  0.5654280000000  0.5192850000000 1.0
C      1  0.4031910000000  0.4372840000000  0.4693310000000 1.0
C      1  0.5517600000000  0.5838280000000  0.5235930000000 1.0
C      1  0.4864330000000  0.5176600000000  0.4404840000000 1.0
C      1  0.5251810000000  0.5920650000000  0.5316020000000 1.0
C      1  0.6331920000000  0.4638160000000  0.4475860000000 1.0
C      1  0.4653230000000  0.4796760000000  0.5245890000000 1.0
C      1  0.4576100000000  0.5439960000000  0.4740000000000 1.0
C      1  0.5109000000000  0.4621940000000  0.5476350000000 1.0
C      1  0.4577530000000  0.5942260000000  0.4595510000000 1.0
C      1  0.5180160000000  0.4607470000000  0.5003930000000 1.0
C      1  0.3899210000000  0.4588540000000  0.4596990000000 1.0
C      1  0.5401270000000  0.4466450000000  0.4887440000000 1.0
C      1  0.5050120000000  0.5108620000000  0.5147950000000 1.0
C      1  0.6099420000000  0.4759320000000  0.4437920000000 1.0
C      1  0.4799170000000  0.5496670000000  0.4925580000000 1.0
C      1  0.4800340000000  0.6090060000000  0.5230960000000 1.0
C      1  0.5634200000000  0.5774100000000  0.4762860000000 1.0
C      1  0.5094300000000  0.4827830000000  0.5872250000000 1.0
C      1  0.4691920000000  0.4482490000000  0.5632710000000 1.0
C      1  0.4790990000000  0.4432430000000  0.4077480000000 1.0
C      1  0.4699620000000  0.4252700000000  0.4262660000000 1.0
C      1  0.4996580000000  0.4795130000000  0.4619670000000 1.0
C      1  0.4737770000000  0.4941150000000  0.4542050000000 1.0
C      1  0.4553200000000  0.5966800000000  0.5285840000000 1.0
C      1  0.5369090000000  0.4731930000000  0.5918360000000 1.0
C      1  0.4760780000000  0.4239750000000  0.5477900000000 1.0
C      1  0.5844750000000  0.5169970000000  0.4412890000000 1.0
C      1  0.5765350000000  0.5361110000000  0.5312760000000 1.0
C      1  0.5404040000000  0.5605770000000  0.4779540000000 1.0
C      1  0.4715220000000  0.4131720000000  0.4957080000000 1.0
C      1  0.5201140000000  0.5950500000000  0.5598100000000 1.0
END
