TITL C-612604-1799-63 9.76696427243197e-05 125000 -538.621202071591 0 0 89 (C1) n - 1
REM
REM in /home/nfs/bkarasulu/CARBON/AIRSS/Generating-Clusters/TERSOFF/Only-C1/FIRE-HFTN
REM
REM
REM
REM
REM
REM ./C.cell (11c1c37f851c82e70ff6c80c92926a4b)
REM AIRSS Version 0.9.1 bugfix July 2018 build 013d7b7c2542+ Fri, 06 Jul 2018 19:26:36 +0100
REM compiler GCC version 9.2.1 20190827 (Red Hat 9.2.1-1)
REM options -cpp -mtune=generic -march=x86-64 -g -O0 -fpre-include=/usr/include/finclude/math-vector-fortran.h
REM seed 27660301 1583077498 2018421539 594330039 1868576072 -1928748790 -1929824043 1111286213 -940019555 -821064493 -75973354 1936856202 1098866030 1646959320 293140290 -1005831396 1347421680 -1804233841 -702743357 -390866862 -646664263 -403608579 -2145117571 521610264 1870076795 -2052809371 -1121946709 -1763130587 -356068037 662657520 -1953459115 -53708805 1283099332
REM
CELL 1.54180   50.00000   50.00000   50.00000   90.00000   90.00000   90.00000
LATT -1
SFAC C  
C      1  0.4833240000000  0.4485460000000  0.4443200000000 1.0
C      1  0.5425710000000  0.4807980000000  0.4151680000000 1.0
C      1  0.4309600000000  0.5283410000000  0.5564190000000 1.0
C      1  0.4227330000000  0.4168610000000  0.5337830000000 1.0
C      1  0.4895130000000  0.5380460000000  0.5633420000000 1.0
C      1  0.4447350000000  0.4002390000000  0.5341300000000 1.0
C      1  0.4678090000000  0.4146590000000  0.5436420000000 1.0
C      1  0.4463150000000  0.5711310000000  0.5089620000000 1.0
C      1  0.5163060000000  0.4690080000000  0.5744470000000 1.0
C      1  0.4935690000000  0.5113760000000  0.5784840000000 1.0
C      1  0.4347450000000  0.4796090000000  0.4812060000000 1.0
C      1  0.3995610000000  0.5792650000000  0.4997900000000 1.0
C      1  0.5608500000000  0.4729140000000  0.4622900000000 1.0
C      1  0.4820890000000  0.4614790000000  0.4692320000000 1.0
C      1  0.6207960000000  0.4970510000000  0.4126350000000 1.0
C      1  0.4939670000000  0.4119410000000  0.5337230000000 1.0
C      1  0.4097670000000  0.5217840000000  0.5387680000000 1.0
C      1  0.5901370000000  0.5594170000000  0.4880880000000 1.0
C      1  0.5057640000000  0.4331240000000  0.5195800000000 1.0
C      1  0.4567090000000  0.4619730000000  0.4815450000000 1.0
C      1  0.4707270000000  0.4506300000000  0.5786290000000 1.0
C      1  0.5135330000000  0.5042910000000  0.5162840000000 1.0
C      1  0.4126410000000  0.5124420000000  0.5119740000000 1.0
C      1  0.4867240000000  0.5260960000000  0.4840160000000 1.0
C      1  0.5617460000000  0.4793010000000  0.5323540000000 1.0
C      1  0.5223710000000  0.5021620000000  0.5420800000000 1.0
C      1  0.5385150000000  0.4871830000000  0.5839010000000 1.0
C      1  0.4519960000000  0.5959260000000  0.4951010000000 1.0
C      1  0.5137460000000  0.4788950000000  0.5024350000000 1.0
C      1  0.4240950000000  0.4903180000000  0.4152580000000 1.0
C      1  0.5025920000000  0.4896170000000  0.5586150000000 1.0
C      1  0.5086940000000  0.5344820000000  0.4276360000000 1.0
C      1  0.5191030000000  0.5205840000000  0.4486040000000 1.0
C      1  0.5586540000000  0.4882240000000  0.4377230000000 1.0
C      1  0.4432630000000  0.4991020000000  0.4329500000000 1.0
C      1  0.4806620000000  0.4597860000000  0.4200230000000 1.0
C      1  0.4690120000000  0.5514600000000  0.4463910000000 1.0
C      1  0.4676690000000  0.5543580000000  0.5746090000000 1.0
C      1  0.4701930000000  0.5792890000000  0.4496640000000 1.0
C      1  0.4953130000000  0.5260400000000  0.5110960000000 1.0
C      1  0.4598560000000  0.5577770000000  0.5298010000000 1.0
C      1  0.5801810000000  0.4775430000000  0.4834970000000 1.0
C      1  0.5017780000000  0.4807140000000  0.4769570000000 1.0
C      1  0.5082220000000  0.3883300000000  0.5380620000000 1.0
C      1  0.5662070000000  0.5220240000000  0.5590460000000 1.0
C      1  0.4564070000000  0.4926880000000  0.5384670000000 1.0
C      1  0.4198330000000  0.4848500000000  0.5057820000000 1.0
C      1  0.4048600000000  0.6059880000000  0.4986200000000 1.0
C      1  0.4386960000000  0.5256980000000  0.4733300000000 1.0
C      1  0.5788390000000  0.5093550000000  0.4356220000000 1.0
C      1  0.5203530000000  0.5097640000000  0.5961320000000 1.0
C      1  0.4668630000000  0.5950910000000  0.4712010000000 1.0
C      1  0.4199950000000  0.4651900000000  0.5264570000000 1.0
C      1  0.5965200000000  0.5091240000000  0.4134140000000 1.0
C      1  0.5825680000000  0.5331870000000  0.4817850000000 1.0
C      1  0.5603270000000  0.4307330000000  0.5362760000000 1.0
C      1  0.4567650000000  0.4394230000000  0.5562080000000 1.0
C      1  0.4992770000000  0.4475950000000  0.5806230000000 1.0
C      1  0.4482620000000  0.5061280000000  0.5612390000000 1.0
C      1  0.4879390000000  0.4864510000000  0.4138480000000 1.0
C      1  0.5862210000000  0.5648660000000  0.5376170000000 1.0
C      1  0.4455460000000  0.5531750000000  0.5556950000000 1.0
C      1  0.5914490000000  0.5714210000000  0.5121560000000 1.0
C      1  0.5660180000000  0.4471340000000  0.3798800000000 1.0
C      1  0.4204670000000  0.5329630000000  0.4935660000000 1.0
C      1  0.4306570000000  0.6148380000000  0.4973450000000 1.0
C      1  0.5771350000000  0.5457960000000  0.5539730000000 1.0
C      1  0.4649870000000  0.5005280000000  0.5840410000000 1.0
C      1  0.5217620000000  0.3664930000000  0.5424160000000 1.0
C      1  0.4301990000000  0.4439170000000  0.5419430000000 1.0
C      1  0.6263190000000  0.4810720000000  0.4585470000000 1.0
C      1  0.4616430000000  0.4736160000000  0.5929630000000 1.0
C      1  0.5914570000000  0.5158290000000  0.4610110000000 1.0
C      1  0.6337170000000  0.4842530000000  0.4327020000000 1.0
C      1  0.4801560000000  0.5343940000000  0.4262120000000 1.0
C      1  0.5027330000000  0.5079060000000  0.4678080000000 1.0
C      1  0.6035320000000  0.4907850000000  0.4717410000000 1.0
C      1  0.5485420000000  0.4541190000000  0.5284610000000 1.0
C      1  0.4850980000000  0.5418740000000  0.5329030000000 1.0
C      1  0.5717100000000  0.4908400000000  0.5079260000000 1.0
C      1  0.4642100000000  0.5372420000000  0.4707910000000 1.0
C      1  0.4203240000000  0.5600380000000  0.5014620000000 1.0
C      1  0.5159870000000  0.4893640000000  0.4100960000000 1.0
C      1  0.5228560000000  0.4549940000000  0.5154640000000 1.0
C      1  0.5540550000000  0.4631400000000  0.3966080000000 1.0
C      1  0.4691810000000  0.5074460000000  0.4221780000000 1.0
C      1  0.4364150000000  0.5002590000000  0.4610710000000 1.0
C      1  0.5501230000000  0.4974750000000  0.5548460000000 1.0
C      1  0.5702840000000  0.5188210000000  0.5033150000000 1.0
END
