TITL C-612607-4507-1207 0.000112284510038701 125000 -481.092835345416 0 0 77 (C1) n - 1
REM
REM in /home/nfs/bkarasulu/CARBON/AIRSS/Generating-Clusters/TERSOFF/Only-C1/FIRE-HFTN
REM
REM
REM
REM
REM
REM ./C.cell (11c1c37f851c82e70ff6c80c92926a4b)
REM AIRSS Version 0.9.1 bugfix July 2018 build 013d7b7c2542+ Fri, 06 Jul 2018 19:26:36 +0100
REM compiler GCC version 9.2.1 20190827 (Red Hat 9.2.1-1)
REM options -cpp -mtune=generic -march=x86-64 -g -O0 -fpre-include=/usr/include/finclude/math-vector-fortran.h
REM seed 1756743085 1950081275 -1928383979 280389086 -549127730 -872735582 -587369 78472554 -293362246 -265911694 -773108476 1418298582 -33794 1375902978 -1029430117 1920374456 -83698062 -1606820645 1256747463 -929123867 937497198 1021739219 76983656 1809795263 1822943733 -536231428 60454175 990107470 653425633 1890004480 -1185672325 -873653223 1510734652
REM
CELL 1.54180   50.00000   50.00000   50.00000   90.00000   90.00000   90.00000
LATT -1
SFAC C  
C      1  0.5743190000000  0.3996550000000  0.5205060000000 1.0
C      1  0.6018870000000  0.4166400000000  0.4864450000000 1.0
C      1  0.4451090000000  0.5666910000000  0.5933590000000 1.0
C      1  0.4758440000000  0.5001520000000  0.5267140000000 1.0
C      1  0.5241660000000  0.5501700000000  0.4216280000000 1.0
C      1  0.4271500000000  0.5480770000000  0.6013180000000 1.0
C      1  0.4979560000000  0.4910490000000  0.4502860000000 1.0
C      1  0.4400400000000  0.4771110000000  0.5016340000000 1.0
C      1  0.5526420000000  0.4160650000000  0.5130310000000 1.0
C      1  0.5863030000000  0.4783050000000  0.4458850000000 1.0
C      1  0.5204160000000  0.5186320000000  0.4865340000000 1.0
C      1  0.5312400000000  0.4719280000000  0.4843380000000 1.0
C      1  0.5671790000000  0.4975060000000  0.6000600000000 1.0
C      1  0.4770400000000  0.5856580000000  0.5619410000000 1.0
C      1  0.4566750000000  0.5718520000000  0.4830770000000 1.0
C      1  0.6200110000000  0.3824160000000  0.5164680000000 1.0
C      1  0.4007400000000  0.4993290000000  0.5381920000000 1.0
C      1  0.5072120000000  0.4376860000000  0.5318460000000 1.0
C      1  0.4809710000000  0.5821830000000  0.4929540000000 1.0
C      1  0.5159510000000  0.4933690000000  0.4725460000000 1.0
C      1  0.5998380000000  0.3986850000000  0.5082530000000 1.0
C      1  0.4190550000000  0.5270270000000  0.5845450000000 1.0
C      1  0.5702610000000  0.5261120000000  0.4298800000000 1.0
C      1  0.4104350000000  0.5141120000000  0.4916030000000 1.0
C      1  0.4706530000000  0.4956320000000  0.4548260000000 1.0
C      1  0.4413540000000  0.5555570000000  0.5016770000000 1.0
C      1  0.5039290000000  0.4856720000000  0.4226540000000 1.0
C      1  0.5484680000000  0.5248540000000  0.4918350000000 1.0
C      1  0.5332560000000  0.4444040000000  0.4780210000000 1.0
C      1  0.5819540000000  0.4342460000000  0.4768120000000 1.0
C      1  0.5080680000000  0.5632360000000  0.4411610000000 1.0
C      1  0.4460540000000  0.5065000000000  0.4613460000000 1.0
C      1  0.5060960000000  0.5071030000000  0.4048380000000 1.0
C      1  0.5021560000000  0.4216300000000  0.4422790000000 1.0
C      1  0.4352650000000  0.5237990000000  0.5606960000000 1.0
C      1  0.4990020000000  0.4971260000000  0.5696100000000 1.0
C      1  0.5515270000000  0.5445860000000  0.4253440000000 1.0
C      1  0.3943270000000  0.5133750000000  0.5839520000000 1.0
C      1  0.5810650000000  0.5027000000000  0.4365780000000 1.0
C      1  0.4235830000000  0.5388930000000  0.4854700000000 1.0
C      1  0.4504790000000  0.5459360000000  0.5504510000000 1.0
C      1  0.5534930000000  0.4806890000000  0.5564210000000 1.0
C      1  0.4818500000000  0.4280950000000  0.5252840000000 1.0
C      1  0.5474820000000  0.4805160000000  0.5069460000000 1.0
C      1  0.5119750000000  0.4655280000000  0.5360330000000 1.0
C      1  0.4437410000000  0.4495640000000  0.5002530000000 1.0
C      1  0.5296420000000  0.4208490000000  0.5283470000000 1.0
C      1  0.5466260000000  0.5702300000000  0.4726620000000 1.0
C      1  0.5591370000000  0.5498810000000  0.4850850000000 1.0
C      1  0.5559860000000  0.4309020000000  0.4885260000000 1.0
C      1  0.4403430000000  0.5350550000000  0.4603340000000 1.0
C      1  0.4795900000000  0.5620800000000  0.4401650000000 1.0
C      1  0.5141590000000  0.4290080000000  0.4648680000000 1.0
C      1  0.5635140000000  0.5034820000000  0.5025960000000 1.0
C      1  0.4573500000000  0.5581530000000  0.4569340000000 1.0
C      1  0.4573760000000  0.5447220000000  0.5229230000000 1.0
C      1  0.5871650000000  0.4550870000000  0.4588910000000 1.0
C      1  0.5901470000000  0.5045720000000  0.5080420000000 1.0
C      1  0.3930410000000  0.5069500000000  0.5122610000000 1.0
C      1  0.4796090000000  0.5269090000000  0.5159280000000 1.0
C      1  0.4291750000000  0.5020280000000  0.5430520000000 1.0
C      1  0.4594460000000  0.4310590000000  0.5112630000000 1.0
C      1  0.4978100000000  0.4342410000000  0.4191060000000 1.0
C      1  0.4839490000000  0.6069180000000  0.5038020000000 1.0
C      1  0.5393160000000  0.4739830000000  0.5331140000000 1.0
C      1  0.5480130000000  0.4928940000000  0.5812840000000 1.0
C      1  0.5020880000000  0.5636700000000  0.4891170000000 1.0
C      1  0.5209060000000  0.4999070000000  0.5849360000000 1.0
C      1  0.5112850000000  0.5332040000000  0.4033050000000 1.0
C      1  0.5005110000000  0.5359540000000  0.4980800000000 1.0
C      1  0.5192050000000  0.5693890000000  0.4667700000000 1.0
C      1  0.4486520000000  0.4907500000000  0.5254280000000 1.0
C      1  0.4940060000000  0.4865170000000  0.5438280000000 1.0
C      1  0.4293880000000  0.4940370000000  0.4815430000000 1.0
C      1  0.5010380000000  0.4598380000000  0.4123510000000 1.0
C      1  0.3851530000000  0.5006500000000  0.5617360000000 1.0
C      1  0.4581540000000  0.5670320000000  0.5681940000000 1.0
END
