TITL C-612601-4209-447 -0.000378995041314272 125000 -736.060298816933 0 0 122 (C1) n - 1
REM
REM in /home/nfs/bkarasulu/CARBON/AIRSS/Generating-Clusters/TERSOFF/Only-C1/FIRE-HFTN
REM
REM
REM
REM
REM
REM ./C.cell (11c1c37f851c82e70ff6c80c92926a4b)
REM AIRSS Version 0.9.1 bugfix July 2018 build 013d7b7c2542+ Fri, 06 Jul 2018 19:26:36 +0100
REM compiler GCC version 9.2.1 20190827 (Red Hat 9.2.1-1)
REM options -cpp -mtune=generic -march=x86-64 -g -O0 -fpre-include=/usr/include/finclude/math-vector-fortran.h
REM seed -1068120748 919529098 1791697921 -1669430538 -1661340549 1211908739 1959379101 -1572325524 1304926422 -1077911359 -1878212082 -1006875208 192557780 -2061018452 445669343 -983012348 -396747109 2018576791 1770316129 447709194 1749848494 -894092881 56417376 148559088 -10647406 1541550429 1644837008 -457469499 1855990351 -750099108 724152162 -676803318 1480550557
REM
CELL 1.54180   50.00000   50.00000   50.00000   90.00000   90.00000   90.00000
LATT -1
SFAC C  
C      1  0.5799530000000  0.5035130000000  0.5517090000000 1.0
C      1  0.5570180000000  0.5919380000000  0.5039880000000 1.0
C      1  0.5346930000000  0.5142580000000  0.4929220000000 1.0
C      1  0.5792970000000  0.5032820000000  0.4820360000000 1.0
C      1  0.4459700000000  0.4233890000000  0.4379210000000 1.0
C      1  0.4635550000000  0.4226850000000  0.5770110000000 1.0
C      1  0.4238010000000  0.4276840000000  0.4943440000000 1.0
C      1  0.5950630000000  0.4596890000000  0.5383250000000 1.0
C      1  0.3642740000000  0.4950110000000  0.5082940000000 1.0
C      1  0.4493400000000  0.4941060000000  0.4547810000000 1.0
C      1  0.5231240000000  0.4748960000000  0.4517890000000 1.0
C      1  0.4768850000000  0.5379910000000  0.6292970000000 1.0
C      1  0.4249650000000  0.5778610000000  0.5655460000000 1.0
C      1  0.4752750000000  0.4736630000000  0.4983170000000 1.0
C      1  0.5128280000000  0.4771760000000  0.5764810000000 1.0
C      1  0.5822620000000  0.5268750000000  0.5371140000000 1.0
C      1  0.5274950000000  0.5828210000000  0.5588320000000 1.0
C      1  0.4106900000000  0.4533320000000  0.4961200000000 1.0
C      1  0.5528360000000  0.4495560000000  0.5152050000000 1.0
C      1  0.4662580000000  0.5378310000000  0.4490700000000 1.0
C      1  0.4414040000000  0.4959190000000  0.4812980000000 1.0
C      1  0.5369340000000  0.4303660000000  0.4503420000000 1.0
C      1  0.5363430000000  0.6110570000000  0.5096040000000 1.0
C      1  0.5041940000000  0.4455220000000  0.5263180000000 1.0
C      1  0.4935180000000  0.4195620000000  0.5216300000000 1.0
C      1  0.3951800000000  0.4717240000000  0.4786080000000 1.0
C      1  0.4208440000000  0.4689790000000  0.5425920000000 1.0
C      1  0.5495380000000  0.4530850000000  0.4876300000000 1.0
C      1  0.5795670000000  0.4442990000000  0.5224560000000 1.0
C      1  0.4542550000000  0.4485700000000  0.4281850000000 1.0
C      1  0.5250400000000  0.4503710000000  0.4335230000000 1.0
C      1  0.6045680000000  0.5030100000000  0.4366350000000 1.0
C      1  0.4464420000000  0.5601310000000  0.5643930000000 1.0
C      1  0.4936930000000  0.4786240000000  0.4520130000000 1.0
C      1  0.5814580000000  0.4566310000000  0.4488890000000 1.0
C      1  0.4093630000000  0.5454590000000  0.4805600000000 1.0
C      1  0.5529800000000  0.5080750000000  0.4724010000000 1.0
C      1  0.5160580000000  0.4024550000000  0.5308370000000 1.0
C      1  0.3854330000000  0.4964340000000  0.4908370000000 1.0
C      1  0.5294670000000  0.4572980000000  0.5316810000000 1.0
C      1  0.5229380000000  0.5377210000000  0.5031340000000 1.0
C      1  0.4139560000000  0.4828350000000  0.4304520000000 1.0
C      1  0.4812430000000  0.5214680000000  0.5084460000000 1.0
C      1  0.5008670000000  0.5873990000000  0.5594330000000 1.0
C      1  0.3969280000000  0.5219270000000  0.4849250000000 1.0
C      1  0.5636210000000  0.5727930000000  0.5245260000000 1.0
C      1  0.4475270000000  0.5138500000000  0.5804600000000 1.0
C      1  0.5872800000000  0.5484530000000  0.4911640000000 1.0
C      1  0.4456850000000  0.4859270000000  0.5804080000000 1.0
C      1  0.4964730000000  0.4928900000000  0.6198370000000 1.0
C      1  0.5808430000000  0.4750140000000  0.5580290000000 1.0
C      1  0.5269200000000  0.5436870000000  0.5310250000000 1.0
C      1  0.5279200000000  0.4699910000000  0.4816000000000 1.0
C      1  0.4050530000000  0.5946620000000  0.5661670000000 1.0
C      1  0.5846890000000  0.5521070000000  0.4443410000000 1.0
C      1  0.4663490000000  0.5359050000000  0.5273270000000 1.0
C      1  0.4482100000000  0.4794660000000  0.5027250000000 1.0
C      1  0.4409130000000  0.4722290000000  0.4371640000000 1.0
C      1  0.4478280000000  0.4076370000000  0.4596190000000 1.0
C      1  0.5388350000000  0.5586590000000  0.3852590000000 1.0
C      1  0.5544750000000  0.4972340000000  0.3992350000000 1.0
C      1  0.5778320000000  0.5611330000000  0.4189560000000 1.0
C      1  0.4442030000000  0.5838050000000  0.4667540000000 1.0
C      1  0.5411080000000  0.5667510000000  0.5402060000000 1.0
C      1  0.4925160000000  0.4322110000000  0.4761160000000 1.0
C      1  0.4925510000000  0.4790790000000  0.5957050000000 1.0
C      1  0.4265890000000  0.4676700000000  0.5156190000000 1.0
C      1  0.5161010000000  0.5451460000000  0.3826300000000 1.0
C      1  0.5188230000000  0.5855980000000  0.4745650000000 1.0
C      1  0.4893020000000  0.5084950000000  0.4075610000000 1.0
C      1  0.4609130000000  0.4417850000000  0.5964440000000 1.0
C      1  0.4486140000000  0.4148040000000  0.4872970000000 1.0
C      1  0.4219340000000  0.4742010000000  0.5699670000000 1.0
C      1  0.5074330000000  0.4462080000000  0.4114440000000 1.0
C      1  0.5806550000000  0.5500560000000  0.5189280000000 1.0
C      1  0.4762260000000  0.4185610000000  0.4974400000000 1.0
C      1  0.4641540000000  0.5601090000000  0.5420100000000 1.0
C      1  0.4944910000000  0.5758320000000  0.4618420000000 1.0
C      1  0.5181260000000  0.4402800000000  0.3863400000000 1.0
C      1  0.6014880000000  0.5282330000000  0.4500640000000 1.0
C      1  0.5387100000000  0.5305540000000  0.6009940000000 1.0
C      1  0.5190610000000  0.4912950000000  0.4983660000000 1.0
C      1  0.4821860000000  0.5823000000000  0.5385750000000 1.0
C      1  0.5194510000000  0.5272370000000  0.5525010000000 1.0
C      1  0.5543370000000  0.5351820000000  0.6213390000000 1.0
C      1  0.4921590000000  0.4945720000000  0.5069480000000 1.0
C      1  0.5171050000000  0.4176450000000  0.4675890000000 1.0
C      1  0.5610960000000  0.4417490000000  0.4635150000000 1.0
C      1  0.5723830000000  0.5627560000000  0.4690170000000 1.0
C      1  0.4697840000000  0.5905210000000  0.4602420000000 1.0
C      1  0.5271600000000  0.4743690000000  0.5540290000000 1.0
C      1  0.4007520000000  0.4686000000000  0.5863130000000 1.0
C      1  0.5853040000000  0.4816910000000  0.4343230000000 1.0
C      1  0.5640480000000  0.4539270000000  0.5712420000000 1.0
C      1  0.4888450000000  0.5955620000000  0.5143520000000 1.0
C      1  0.4962780000000  0.5387210000000  0.4911350000000 1.0
C      1  0.5267610000000  0.3878850000000  0.5088870000000 1.0
C      1  0.4864020000000  0.4944890000000  0.4299990000000 1.0
C      1  0.5114160000000  0.6022240000000  0.4985470000000 1.0
C      1  0.3953730000000  0.4728210000000  0.4498220000000 1.0
C      1  0.4617890000000  0.5487420000000  0.6099930000000 1.0
C      1  0.5429310000000  0.4968490000000  0.4473310000000 1.0
C      1  0.5250670000000  0.3949830000000  0.4828070000000 1.0
C      1  0.4792070000000  0.4482070000000  0.4145060000000 1.0
C      1  0.4510260000000  0.5412970000000  0.5851480000000 1.0
C      1  0.5250460000000  0.5264730000000  0.5786090000000 1.0
C      1  0.4841710000000  0.4604680000000  0.4735800000000 1.0
C      1  0.4987260000000  0.5267810000000  0.3907880000000 1.0
C      1  0.5333550000000  0.4124430000000  0.5527600000000 1.0
C      1  0.4530520000000  0.4350550000000  0.6218120000000 1.0
C      1  0.4459240000000  0.5194580000000  0.4409400000000 1.0
C      1  0.5496010000000  0.4303780000000  0.5664900000000 1.0
C      1  0.5288970000000  0.4356740000000  0.3630610000000 1.0
C      1  0.5975220000000  0.5245340000000  0.4789100000000 1.0
C      1  0.4209950000000  0.5123470000000  0.4260380000000 1.0
C      1  0.4664300000000  0.4690540000000  0.5903220000000 1.0
C      1  0.4902910000000  0.5151700000000  0.6332240000000 1.0
C      1  0.4246140000000  0.5668420000000  0.4743990000000 1.0
C      1  0.4876810000000  0.5481440000000  0.4658150000000 1.0
C      1  0.5613210000000  0.5640280000000  0.3983630000000 1.0
C      1  0.5602600000000  0.4926080000000  0.4253740000000 1.0
C      1  0.5500100000000  0.5794280000000  0.4772930000000 1.0
END
