TITL C-612602-9376-613 0.158255549214828 125000 -271.559887395102 0 0 46 (C1) n - 1
REM
REM in /home/nfs/bkarasulu/CARBON/AIRSS/Generating-Clusters/TERSOFF/Only-C1/FIRE-HFTN
REM
REM
REM
REM
REM
REM ./C.cell (11c1c37f851c82e70ff6c80c92926a4b)
REM AIRSS Version 0.9.1 bugfix July 2018 build 013d7b7c2542+ Fri, 06 Jul 2018 19:26:36 +0100
REM compiler GCC version 9.2.1 20190827 (Red Hat 9.2.1-1)
REM options -cpp -mtune=generic -march=x86-64 -g -O0 -fpre-include=/usr/include/finclude/math-vector-fortran.h
REM seed -1008245973 788865997 -38932720 -388728740 963864485 251570063 -819887240 1154161095 -782382353 -1845272526 -1445787805 1970538169 683964202 579283620 1070127767 107886115 -1916995487 -2046354982 -89099547 1981643018 -1185281938 -904284379 -71447568 -143100580 -1020905223 745010812 1842472026 -657735315 -1623767186 -1127337683 -1594088674 -1338040219 -998714862
REM
CELL 1.54180   50.00000   50.00000   50.00000   90.00000   90.00000   90.00000
LATT -1
SFAC C  
C      1  0.4220880000000  0.5623150000000  0.4824390000000 1.0
C      1  0.4384510000000  0.5514880000000  0.5289080000000 1.0
C      1  0.4647470000000  0.5612320000000  0.5202520000000 1.0
C      1  0.5691380000000  0.4536670000000  0.4419420000000 1.0
C      1  0.5691720000000  0.4720890000000  0.4221590000000 1.0
C      1  0.4907480000000  0.5283070000000  0.4990220000000 1.0
C      1  0.4637750000000  0.4929960000000  0.5632030000000 1.0
C      1  0.5695960000000  0.4990840000000  0.4232950000000 1.0
C      1  0.5371460000000  0.4510650000000  0.5055710000000 1.0
C      1  0.4645400000000  0.4308070000000  0.4904870000000 1.0
C      1  0.5847650000000  0.4036240000000  0.5029590000000 1.0
C      1  0.3891690000000  0.4847230000000  0.5586350000000 1.0
C      1  0.4745870000000  0.5368770000000  0.5573370000000 1.0
C      1  0.5772670000000  0.4829890000000  0.4785550000000 1.0
C      1  0.5698900000000  0.5156860000000  0.4446350000000 1.0
C      1  0.5535290000000  0.5228150000000  0.4914860000000 1.0
C      1  0.4700810000000  0.5609810000000  0.4696340000000 1.0
C      1  0.4387340000000  0.5063970000000  0.5577280000000 1.0
C      1  0.4450390000000  0.5338000000000  0.5510420000000 1.0
C      1  0.4852590000000  0.5581860000000  0.5412620000000 1.0
C      1  0.5694000000000  0.4571820000000  0.4700140000000 1.0
C      1  0.5334160000000  0.5425470000000  0.4863290000000 1.0
C      1  0.5198770000000  0.4714420000000  0.5138300000000 1.0
C      1  0.5116370000000  0.5566580000000  0.5312000000000 1.0
C      1  0.5690750000000  0.5094320000000  0.4721860000000 1.0
C      1  0.4778000000000  0.4530460000000  0.4961000000000 1.0
C      1  0.4945020000000  0.5635530000000  0.4540480000000 1.0
C      1  0.5122920000000  0.5024650000000  0.5507650000000 1.0
C      1  0.4425170000000  0.5662820000000  0.4647040000000 1.0
C      1  0.4869510000000  0.5103630000000  0.5603960000000 1.0
C      1  0.4191070000000  0.5551870000000  0.5086040000000 1.0
C      1  0.5150240000000  0.5412740000000  0.5078000000000 1.0
C      1  0.5457210000000  0.3941690000000  0.4765550000000 1.0
C      1  0.4931830000000  0.5750280000000  0.4291070000000 1.0
C      1  0.4865030000000  0.5011450000000  0.4960590000000 1.0
C      1  0.4942490000000  0.4747750000000  0.5017060000000 1.0
C      1  0.4135570000000  0.4950750000000  0.5585700000000 1.0
C      1  0.4523300000000  0.4084820000000  0.4848180000000 1.0
C      1  0.5203850000000  0.5544940000000  0.4637120000000 1.0
C      1  0.5495230000000  0.5092780000000  0.5168690000000 1.0
C      1  0.5626190000000  0.4123250000000  0.4894650000000 1.0
C      1  0.5292480000000  0.4936460000000  0.5295770000000 1.0
C      1  0.5564360000000  0.4399690000000  0.4884380000000 1.0
C      1  0.5287260000000  0.3784750000000  0.4645530000000 1.0
C      1  0.4730540000000  0.5499870000000  0.4953990000000 1.0
C      1  0.3651470000000  0.4745950000000  0.5586420000000 1.0
END
