TITL C-612602-9376-816 -2924.10901392469 125000 -1237.73441262454 0 0 199 (C1) n - 1
REM
REM in /home/nfs/bkarasulu/CARBON/AIRSS/Generating-Clusters/TERSOFF/Only-C1/FIRE-HFTN
REM
REM
REM
REM
REM
REM ./C.cell (11c1c37f851c82e70ff6c80c92926a4b)
REM AIRSS Version 0.9.1 bugfix July 2018 build 013d7b7c2542+ Fri, 06 Jul 2018 19:26:36 +0100
REM compiler GCC version 9.2.1 20190827 (Red Hat 9.2.1-1)
REM options -cpp -mtune=generic -march=x86-64 -g -O0 -fpre-include=/usr/include/finclude/math-vector-fortran.h
REM seed -168689414 444855291 1897065779 960677961 -813588603 -622715904 222495793 -448867759 847286299 -1646553685 -1742088955 -2031017279 1023747652 -1165626778 2003659288 -1712049782 -2120016771 1092636480 1007747935 -1195744235 1966902735 -1308261190 -937743681 -1413949390 -108609268 -782269119 -931322333 273177839 -173870175 1248019533 -1997259706 -61903020 -842550599
REM
CELL 1.54180   50.00000   50.00000   50.00000   90.00000   90.00000   90.00000
LATT -1
SFAC C  
C      1  0.5097140000000  0.4675410000000  0.5591250000000 1.0
C      1  0.4500240000000  0.5849560000000  0.5405080000000 1.0
C      1  0.4305600000000  0.5278430000000  0.4770390000000 1.0
C      1  0.5279250000000  0.5157670000000  0.5606820000000 1.0
C      1  0.4598370000000  0.5286000000000  0.6100960000000 1.0
C      1  0.5987080000000  0.4521220000000  0.5401580000000 1.0
C      1  0.4277400000000  0.5071260000000  0.5356960000000 1.0
C      1  0.4426320000000  0.5988540000000  0.5162430000000 1.0
C      1  0.4209650000000  0.5550150000000  0.4003330000000 1.0
C      1  0.5184090000000  0.3707480000000  0.4692870000000 1.0
C      1  0.4373590000000  0.4763070000000  0.4910480000000 1.0
C      1  0.5299840000000  0.4611090000000  0.4872540000000 1.0
C      1  0.4250530000000  0.4956320000000  0.4272930000000 1.0
C      1  0.3819950000000  0.5088620000000  0.4475430000000 1.0
C      1  0.6165240000000  0.4404350000000  0.4499190000000 1.0
C      1  0.5057920000000  0.4248240000000  0.6039860000000 1.0
C      1  0.5120150000000  0.4921220000000  0.4394460000000 1.0
C      1  0.5280420000000  0.5258650000000  0.3758670000000 1.0
C      1  0.6177690000000  0.4894700000000  0.4485390000000 1.0
C      1  0.5079290000000  0.6233730000000  0.4864990000000 1.0
C      1  0.4320740000000  0.4481820000000  0.5833290000000 1.0
C      1  0.4897990000000  0.3913600000000  0.5000550000000 1.0
C      1  0.4105410000000  0.4648830000000  0.5740340000000 1.0
C      1  0.4896150000000  0.5122200000000  0.4720550000000 1.0
C      1  0.3869100000000  0.4935640000000  0.5118020000000 1.0
C      1  0.5648350000000  0.4684690000000  0.4275420000000 1.0
C      1  0.4291030000000  0.4134040000000  0.4959970000000 1.0
C      1  0.4714260000000  0.4704730000000  0.6451280000000 1.0
C      1  0.5435930000000  0.3643260000000  0.4810320000000 1.0
C      1  0.4454260000000  0.5557420000000  0.5397040000000 1.0
C      1  0.5647770000000  0.5194770000000  0.4254210000000 1.0
C      1  0.5534580000000  0.4577340000000  0.5441630000000 1.0
C      1  0.3818320000000  0.4766840000000  0.4893280000000 1.0
C      1  0.5292760000000  0.4346430000000  0.6126070000000 1.0
C      1  0.5185900000000  0.5814820000000  0.4899550000000 1.0
C      1  0.5490660000000  0.5430230000000  0.4290270000000 1.0
C      1  0.3845120000000  0.4832550000000  0.4607290000000 1.0
C      1  0.5712410000000  0.5779930000000  0.5272340000000 1.0
C      1  0.4654560000000  0.4077270000000  0.4288280000000 1.0
C      1  0.4282630000000  0.5339260000000  0.5479000000000 1.0
C      1  0.5195440000000  0.4303280000000  0.5234840000000 1.0
C      1  0.5886910000000  0.4373400000000  0.4910870000000 1.0
C      1  0.4411400000000  0.5462020000000  0.6181350000000 1.0
C      1  0.5912400000000  0.5287680000000  0.5657010000000 1.0
C      1  0.5391990000000  0.4375940000000  0.5030610000000 1.0
C      1  0.3887190000000  0.5767790000000  0.5157220000000 1.0
C      1  0.5699820000000  0.4662610000000  0.6028220000000 1.0
C      1  0.5645640000000  0.4249950000000  0.5006790000000 1.0
C      1  0.5183180000000  0.5719820000000  0.5348340000000 1.0
C      1  0.4781050000000  0.5613660000000  0.5045840000000 1.0
C      1  0.4880910000000  0.4744270000000  0.5996060000000 1.0
C      1  0.4343050000000  0.4294340000000  0.4751570000000 1.0
C      1  0.4367290000000  0.4512120000000  0.4134930000000 1.0
C      1  0.5914480000000  0.5037550000000  0.4892740000000 1.0
C      1  0.4465350000000  0.5533340000000  0.3856880000000 1.0
C      1  0.4058140000000  0.5844000000000  0.4417620000000 1.0
C      1  0.5065460000000  0.5584370000000  0.5558420000000 1.0
C      1  0.5549100000000  0.5411790000000  0.6009510000000 1.0
C      1  0.5741540000000  0.4932460000000  0.5948780000000 1.0
C      1  0.3907600000000  0.4321880000000  0.5152830000000 1.0
C      1  0.4654710000000  0.4084870000000  0.5780050000000 1.0
C      1  0.6098140000000  0.5593600000000  0.4991800000000 1.0
C      1  0.3796250000000  0.4390370000000  0.4392290000000 1.0
C      1  0.4011530000000  0.4955960000000  0.5360310000000 1.0
C      1  0.4661880000000  0.6060730000000  0.4697650000000 1.0
C      1  0.4626130000000  0.4671390000000  0.4544510000000 1.0
C      1  0.4548870000000  0.4720330000000  0.5131580000000 1.0
C      1  0.4674510000000  0.5458480000000  0.5251430000000 1.0
C      1  0.4664240000000  0.4959610000000  0.4050930000000 1.0
C      1  0.5843730000000  0.5277820000000  0.4765940000000 1.0
C      1  0.4805310000000  0.4611490000000  0.5060660000000 1.0
C      1  0.3979970000000  0.5812300000000  0.5671400000000 1.0
C      1  0.4572760000000  0.4685080000000  0.4007410000000 1.0
C      1  0.4006080000000  0.5341830000000  0.4019550000000 1.0
C      1  0.3795100000000  0.4495740000000  0.4979660000000 1.0
C      1  0.5291980000000  0.5189600000000  0.5324000000000 1.0
C      1  0.4438350000000  0.4261640000000  0.5681660000000 1.0
C      1  0.4974820000000  0.5309550000000  0.3822060000000 1.0
C      1  0.5642410000000  0.4097140000000  0.5444490000000 1.0
C      1  0.4126350000000  0.5628930000000  0.5829330000000 1.0
C      1  0.4879690000000  0.6159450000000  0.5377660000000 1.0
C      1  0.5180370000000  0.4657760000000  0.4376810000000 1.0
C      1  0.4415220000000  0.5019290000000  0.4786480000000 1.0
C      1  0.5804780000000  0.5152700000000  0.4039110000000 1.0
C      1  0.5448000000000  0.5383010000000  0.5190760000000 1.0
C      1  0.4919100000000  0.5403400000000  0.4648350000000 1.0
C      1  0.5153000000000  0.3997690000000  0.5657060000000 1.0
C      1  0.5500580000000  0.4994570000000  0.4641410000000 1.0
C      1  0.3893780000000  0.5834390000000  0.5417010000000 1.0
C      1  0.4738510000000  0.5969810000000  0.5546110000000 1.0
C      1  0.5489480000000  0.4646620000000  0.4027460000000 1.0
C      1  0.4161250000000  0.5765220000000  0.4182960000000 1.0
C      1  0.5417730000000  0.3999850000000  0.5594570000000 1.0
C      1  0.5687310000000  0.4445340000000  0.4451030000000 1.0
C      1  0.4477930000000  0.5451870000000  0.4623890000000 1.0
C      1  0.4755150000000  0.5530050000000  0.4216430000000 1.0
C      1  0.5208790000000  0.5386240000000  0.4278230000000 1.0
C      1  0.6026020000000  0.5385930000000  0.5418320000000 1.0
C      1  0.4916050000000  0.5081470000000  0.4002600000000 1.0
C      1  0.4414610000000  0.4226410000000  0.4194740000000 1.0
C      1  0.4478570000000  0.5114140000000  0.4218400000000 1.0
C      1  0.6278240000000  0.4633650000000  0.4412940000000 1.0
C      1  0.6115340000000  0.5067920000000  0.4228780000000 1.0
C      1  0.5357980000000  0.6287760000000  0.4868270000000 1.0
C      1  0.4721870000000  0.5240890000000  0.5868490000000 1.0
C      1  0.5016420000000  0.5027780000000  0.4960650000000 1.0
C      1  0.3971800000000  0.5809950000000  0.4668970000000 1.0
C      1  0.4925430000000  0.3822530000000  0.4727040000000 1.0
C      1  0.6142100000000  0.4899600000000  0.4790540000000 1.0
C      1  0.3982960000000  0.4890500000000  0.5643730000000 1.0
C      1  0.6049460000000  0.4807380000000  0.5512310000000 1.0
C      1  0.4337370000000  0.5682760000000  0.6019090000000 1.0
C      1  0.5741430000000  0.4376110000000  0.5479810000000 1.0
C      1  0.3920320000000  0.5225400000000  0.3785450000000 1.0
C      1  0.4741080000000  0.3893830000000  0.4504820000000 1.0
C      1  0.5625210000000  0.4806240000000  0.5295000000000 1.0
C      1  0.4944570000000  0.4118470000000  0.5813880000000 1.0
C      1  0.5823380000000  0.5698350000000  0.4548160000000 1.0
C      1  0.5556690000000  0.5127440000000  0.6084420000000 1.0
C      1  0.4847470000000  0.4358360000000  0.4943160000000 1.0
C      1  0.5651390000000  0.4010360000000  0.5164730000000 1.0
C      1  0.5131330000000  0.4890910000000  0.6006070000000 1.0
C      1  0.5190670000000  0.5399580000000  0.5727650000000 1.0
C      1  0.4858660000000  0.4277640000000  0.4241880000000 1.0
C      1  0.5374970000000  0.5891130000000  0.4393960000000 1.0
C      1  0.4405580000000  0.4561720000000  0.4707130000000 1.0
C      1  0.5230490000000  0.4474530000000  0.4615680000000 1.0
C      1  0.5433500000000  0.5408050000000  0.4909740000000 1.0
C      1  0.6062150000000  0.4509800000000  0.5106850000000 1.0
C      1  0.4659670000000  0.4868500000000  0.5578490000000 1.0
C      1  0.5024230000000  0.5750380000000  0.5112720000000 1.0
C      1  0.5537890000000  0.5090520000000  0.3806230000000 1.0
C      1  0.5463460000000  0.5646440000000  0.5311540000000 1.0
C      1  0.5529160000000  0.4469790000000  0.6102440000000 1.0
C      1  0.4803990000000  0.5885380000000  0.5828350000000 1.0
C      1  0.6228220000000  0.5220990000000  0.5276620000000 1.0
C      1  0.5583690000000  0.5689540000000  0.4385890000000 1.0
C      1  0.4449860000000  0.4557410000000  0.6072340000000 1.0
C      1  0.6219060000000  0.4754750000000  0.5038920000000 1.0
C      1  0.5704230000000  0.4882160000000  0.5034760000000 1.0
C      1  0.5508850000000  0.4807760000000  0.4842700000000 1.0
C      1  0.5702620000000  0.6040690000000  0.5164770000000 1.0
C      1  0.4123520000000  0.5362000000000  0.5717750000000 1.0
C      1  0.4298370000000  0.4191670000000  0.5443390000000 1.0
C      1  0.4955120000000  0.4371490000000  0.4679920000000 1.0
C      1  0.5223480000000  0.4906080000000  0.5724640000000 1.0
C      1  0.4087380000000  0.5404410000000  0.4892730000000 1.0
C      1  0.5947850000000  0.5540630000000  0.4753680000000 1.0
C      1  0.3830190000000  0.5135880000000  0.6041060000000 1.0
C      1  0.5909650000000  0.4996980000000  0.5713110000000 1.0
C      1  0.4706060000000  0.5544250000000  0.4781740000000 1.0
C      1  0.4746650000000  0.5137890000000  0.5610890000000 1.0
C      1  0.3967700000000  0.5660630000000  0.4909190000000 1.0
C      1  0.3936900000000  0.4622740000000  0.4424900000000 1.0
C      1  0.5604250000000  0.4947890000000  0.4389850000000 1.0
C      1  0.3885600000000  0.5254030000000  0.4268020000000 1.0
C      1  0.6213550000000  0.4933590000000  0.5288700000000 1.0
C      1  0.4488540000000  0.6049220000000  0.4906080000000 1.0
C      1  0.5325820000000  0.4130450000000  0.4287600000000 1.0
C      1  0.6325630000000  0.5191790000000  0.4112980000000 1.0
C      1  0.4800020000000  0.4466670000000  0.4459720000000 1.0
C      1  0.5578910000000  0.6214910000000  0.5002910000000 1.0
C      1  0.5947140000000  0.5616040000000  0.5250190000000 1.0
C      1  0.5443750000000  0.4293320000000  0.4494440000000 1.0
C      1  0.5769880000000  0.5462650000000  0.5833820000000 1.0
C      1  0.4831840000000  0.4686160000000  0.5707500000000 1.0
C      1  0.4945720000000  0.6073370000000  0.4646590000000 1.0
C      1  0.4168920000000  0.4681810000000  0.4268020000000 1.0
C      1  0.4556370000000  0.5859230000000  0.5975860000000 1.0
C      1  0.5096620000000  0.5128580000000  0.4219470000000 1.0
C      1  0.4482270000000  0.4864100000000  0.5362180000000 1.0
C      1  0.3975250000000  0.5130440000000  0.5808980000000 1.0
C      1  0.5377980000000  0.5659500000000  0.4812370000000 1.0
C      1  0.4967320000000  0.4164480000000  0.5116040000000 1.0
C      1  0.5282360000000  0.5544840000000  0.5961590000000 1.0
C      1  0.4156150000000  0.4194600000000  0.5200240000000 1.0
C      1  0.5123280000000  0.4274200000000  0.4134890000000 1.0
C      1  0.4682920000000  0.4670410000000  0.6182690000000 1.0
C      1  0.5037580000000  0.5156000000000  0.5205790000000 1.0
C      1  0.5312520000000  0.5013320000000  0.6181840000000 1.0
C      1  0.4563050000000  0.3834380000000  0.5860750000000 1.0
C      1  0.5579720000000  0.3435790000000  0.4702120000000 1.0
C      1  0.5541830000000  0.4677930000000  0.3544340000000 1.0
C      1  0.6306840000000  0.5396290000000  0.5058180000000 1.0
C      1  0.5048400000000  0.4751200000000  0.4985150000000 1.0
C      1  0.5256200000000  0.4499030000000  0.5445360000000 1.0
C      1  0.4669280000000  0.4958930000000  0.4633540000000 1.0
C      1  0.5548200000000  0.3782780000000  0.5032440000000 1.0
C      1  0.5088100000000  0.5868570000000  0.4461730000000 1.0
C      1  0.5565150000000  0.5248130000000  0.4736690000000 1.0
C      1  0.4755140000000  0.5504700000000  0.3919340000000 1.0
C      1  0.4954780000000  0.6248110000000  0.5130070000000 1.0
C      1  0.4819790000000  0.5248420000000  0.5359010000000 1.0
C      1  0.5000350000000  0.5570120000000  0.4398750000000 1.0
C      1  0.5069570000000  0.5773810000000  0.5965020000000 1.0
C      1  0.4541730000000  0.5373820000000  0.4345710000000 1.0
C      1  0.5912430000000  0.4389580000000  0.4622360000000 1.0
C      1  0.5236310000000  0.4542680000000  0.4114170000000 1.0
C      1  0.5522560000000  0.4801240000000  0.3788080000000 1.0
END
