TITL C-612604-1799-98 2.84303759307798 125000 -1196.69700240208 0 0 195 (C1) n - 1
REM
REM in /home/nfs/bkarasulu/CARBON/AIRSS/Generating-Clusters/TERSOFF/Only-C1/FIRE-HFTN
REM
REM
REM
REM
REM
REM ./C.cell (11c1c37f851c82e70ff6c80c92926a4b)
REM AIRSS Version 0.9.1 bugfix July 2018 build 013d7b7c2542+ Fri, 06 Jul 2018 19:26:36 +0100
REM compiler GCC version 9.2.1 20190827 (Red Hat 9.2.1-1)
REM options -cpp -mtune=generic -march=x86-64 -g -O0 -fpre-include=/usr/include/finclude/math-vector-fortran.h
REM seed -1238699393 -1439528219 2076022419 -1720718643 1782508726 1955591952 543448071 -1606667509 979975215 -948002462 567221040 1661769542 -129786081 -677412987 1523505245 423069551 1499332040 -1237336019 1187826799 2034440740 -33572897 548116166 -288246042 900431062 1300487126 -911577164 123288722 1133157007 -941343419 572555316 623100388 2058227067 1509431787
REM
CELL 1.54180   50.00000   50.00000   50.00000   90.00000   90.00000   90.00000
LATT -1
SFAC C  
C      1  0.4191220000000  0.5808150000000  0.5276520000000 1.0
C      1  0.5813360000000  0.6017210000000  0.5115190000000 1.0
C      1  0.4908690000000  0.4425660000000  0.4227380000000 1.0
C      1  0.4741320000000  0.6184170000000  0.4756910000000 1.0
C      1  0.4983820000000  0.5735400000000  0.4740750000000 1.0
C      1  0.4669320000000  0.5117930000000  0.5821540000000 1.0
C      1  0.5348240000000  0.5905060000000  0.5563550000000 1.0
C      1  0.4117600000000  0.5601320000000  0.5460210000000 1.0
C      1  0.6293700000000  0.4922030000000  0.4581560000000 1.0
C      1  0.4333300000000  0.4568020000000  0.4641840000000 1.0
C      1  0.4937870000000  0.4091760000000  0.4731840000000 1.0
C      1  0.4032760000000  0.5553210000000  0.4636320000000 1.0
C      1  0.5804900000000  0.5902990000000  0.4573410000000 1.0
C      1  0.4887730000000  0.5588750000000  0.6144900000000 1.0
C      1  0.6106690000000  0.5456610000000  0.4512500000000 1.0
C      1  0.5093460000000  0.3334940000000  0.4572990000000 1.0
C      1  0.4035160000000  0.5054860000000  0.3748740000000 1.0
C      1  0.4511550000000  0.5675900000000  0.4061110000000 1.0
C      1  0.5385330000000  0.5882960000000  0.4922940000000 1.0
C      1  0.4484860000000  0.5198120000000  0.3968890000000 1.0
C      1  0.5481910000000  0.4354780000000  0.3953780000000 1.0
C      1  0.5324650000000  0.3769160000000  0.4793020000000 1.0
C      1  0.5075040000000  0.5914740000000  0.4542350000000 1.0
C      1  0.6040140000000  0.5090800000000  0.5759950000000 1.0
C      1  0.5881610000000  0.4171630000000  0.4927140000000 1.0
C      1  0.4986670000000  0.5611090000000  0.5628040000000 1.0
C      1  0.5521360000000  0.4465880000000  0.4786760000000 1.0
C      1  0.5146860000000  0.5741120000000  0.5436170000000 1.0
C      1  0.6274000000000  0.5063700000000  0.4832120000000 1.0
C      1  0.3911960000000  0.5020290000000  0.5688210000000 1.0
C      1  0.4163510000000  0.4753590000000  0.4762610000000 1.0
C      1  0.4137000000000  0.4917240000000  0.5258950000000 1.0
C      1  0.4243520000000  0.4438050000000  0.3911100000000 1.0
C      1  0.4546500000000  0.5176410000000  0.4500240000000 1.0
C      1  0.3679910000000  0.4825340000000  0.4804880000000 1.0
C      1  0.4094180000000  0.5573650000000  0.4348450000000 1.0
C      1  0.5434530000000  0.5809690000000  0.5820520000000 1.0
C      1  0.4274470000000  0.4116500000000  0.4808610000000 1.0
C      1  0.4329770000000  0.5467470000000  0.5602740000000 1.0
C      1  0.4230560000000  0.5199280000000  0.3858350000000 1.0
C      1  0.4348910000000  0.4148690000000  0.5493530000000 1.0
C      1  0.4372360000000  0.4536330000000  0.4368200000000 1.0
C      1  0.4717910000000  0.4493160000000  0.4031700000000 1.0
C      1  0.5024220000000  0.5022580000000  0.4446270000000 1.0
C      1  0.5702130000000  0.4792330000000  0.5508830000000 1.0
C      1  0.4516430000000  0.4314940000000  0.5895930000000 1.0
C      1  0.4782270000000  0.5653340000000  0.3966210000000 1.0
C      1  0.5787630000000  0.4438460000000  0.4889260000000 1.0
C      1  0.4998550000000  0.3703940000000  0.5653190000000 1.0
C      1  0.4642570000000  0.6031430000000  0.4525640000000 1.0
C      1  0.4848690000000  0.6196260000000  0.5474250000000 1.0
C      1  0.5408810000000  0.4360610000000  0.3696190000000 1.0
C      1  0.5201530000000  0.4355990000000  0.5645140000000 1.0
C      1  0.5325180000000  0.6047030000000  0.4505900000000 1.0
C      1  0.4422530000000  0.5239080000000  0.5447790000000 1.0
C      1  0.5099760000000  0.5620250000000  0.5184810000000 1.0
C      1  0.4870900000000  0.5211700000000  0.5153900000000 1.0
C      1  0.5859160000000  0.4598550000000  0.5106880000000 1.0
C      1  0.6082370000000  0.5277240000000  0.4284750000000 1.0
C      1  0.5164450000000  0.5566010000000  0.6143910000000 1.0
C      1  0.5854290000000  0.5243830000000  0.5896680000000 1.0
C      1  0.4729620000000  0.4219410000000  0.5734700000000 1.0
C      1  0.4438250000000  0.4429230000000  0.5124310000000 1.0
C      1  0.4335510000000  0.5757420000000  0.5029860000000 1.0
C      1  0.4835710000000  0.4831860000000  0.6662110000000 1.0
C      1  0.4727040000000  0.5205740000000  0.4923960000000 1.0
C      1  0.6227180000000  0.4776500000000  0.5332820000000 1.0
C      1  0.5762760000000  0.4833300000000  0.5234350000000 1.0
C      1  0.5286640000000  0.4398310000000  0.5921440000000 1.0
C      1  0.6006380000000  0.4237140000000  0.5381920000000 1.0
C      1  0.5280620000000  0.4843120000000  0.5962500000000 1.0
C      1  0.5461150000000  0.4627660000000  0.5932340000000 1.0
C      1  0.4617450000000  0.5723670000000  0.5062250000000 1.0
C      1  0.3965270000000  0.4800970000000  0.3703490000000 1.0
C      1  0.6078200000000  0.4507610000000  0.5285530000000 1.0
C      1  0.3865060000000  0.5478470000000  0.5476510000000 1.0
C      1  0.4844790000000  0.3858830000000  0.5453470000000 1.0
C      1  0.5653480000000  0.6198350000000  0.5262970000000 1.0
C      1  0.5756280000000  0.4850230000000  0.4303610000000 1.0
C      1  0.4868480000000  0.5957960000000  0.4346930000000 1.0
C      1  0.4807920000000  0.5149040000000  0.4645580000000 1.0
C      1  0.4663060000000  0.5645420000000  0.5961640000000 1.0
C      1  0.4878040000000  0.6286440000000  0.5224150000000 1.0
C      1  0.5400060000000  0.5439270000000  0.4410170000000 1.0
C      1  0.5332450000000  0.5158400000000  0.5087090000000 1.0
C      1  0.5647810000000  0.5399290000000  0.5996700000000 1.0
C      1  0.3783660000000  0.5236350000000  0.5561350000000 1.0
C      1  0.5858040000000  0.5778350000000  0.5260770000000 1.0
C      1  0.4907730000000  0.5424390000000  0.3823440000000 1.0
C      1  0.4574840000000  0.5037710000000  0.5567330000000 1.0
C      1  0.4557690000000  0.4543630000000  0.6063830000000 1.0
C      1  0.4240590000000  0.5742210000000  0.4756650000000 1.0
C      1  0.4458340000000  0.5208120000000  0.5988860000000 1.0
C      1  0.4431900000000  0.5206290000000  0.4959900000000 1.0
C      1  0.5114640000000  0.4757820000000  0.5079990000000 1.0
C      1  0.4776240000000  0.5773230000000  0.5733290000000 1.0
C      1  0.4411540000000  0.5857770000000  0.4530970000000 1.0
C      1  0.5588870000000  0.3882530000000  0.5203610000000 1.0
C      1  0.4339590000000  0.5201560000000  0.4689520000000 1.0
C      1  0.5409310000000  0.4754010000000  0.4692000000000 1.0
C      1  0.5559610000000  0.5439260000000  0.5511380000000 1.0
C      1  0.5319470000000  0.5051170000000  0.5365740000000 1.0
C      1  0.5170370000000  0.4750090000000  0.4495700000000 1.0
C      1  0.4922350000000  0.4406290000000  0.5660490000000 1.0
C      1  0.4812290000000  0.4541370000000  0.6206960000000 1.0
C      1  0.4288530000000  0.4341820000000  0.5709070000000 1.0
C      1  0.4070760000000  0.4160230000000  0.5021830000000 1.0
C      1  0.4265710000000  0.5003440000000  0.6037590000000 1.0
C      1  0.4072140000000  0.4827030000000  0.5536480000000 1.0
C      1  0.3861910000000  0.5336860000000  0.4725980000000 1.0
C      1  0.5212500000000  0.6094670000000  0.4945440000000 1.0
C      1  0.4873960000000  0.4685650000000  0.5653830000000 1.0
C      1  0.5765650000000  0.5524230000000  0.5335360000000 1.0
C      1  0.5299180000000  0.4469900000000  0.5398840000000 1.0
C      1  0.5295580000000  0.5441090000000  0.5069820000000 1.0
C      1  0.5018220000000  0.4498660000000  0.5024270000000 1.0
C      1  0.4664240000000  0.4780290000000  0.5478880000000 1.0
C      1  0.5517850000000  0.5456560000000  0.4662890000000 1.0
C      1  0.4947810000000  0.6210440000000  0.4962040000000 1.0
C      1  0.4630910000000  0.4034950000000  0.5531580000000 1.0
C      1  0.5154560000000  0.4522770000000  0.4320910000000 1.0
C      1  0.5914350000000  0.5338280000000  0.4058510000000 1.0
C      1  0.5558810000000  0.5903730000000  0.4423630000000 1.0
C      1  0.5043260000000  0.4874010000000  0.5814040000000 1.0
C      1  0.5946260000000  0.3961860000000  0.4750940000000 1.0
C      1  0.4084510000000  0.4789210000000  0.5017630000000 1.0
C      1  0.5195470000000  0.4442280000000  0.3556080000000 1.0
C      1  0.4429750000000  0.5481030000000  0.5889090000000 1.0
C      1  0.3713020000000  0.4558890000000  0.4873740000000 1.0
C      1  0.5666230000000  0.4674520000000  0.5747550000000 1.0
C      1  0.6182090000000  0.4922090000000  0.5591030000000 1.0
C      1  0.5344020000000  0.3851260000000  0.5359190000000 1.0
C      1  0.5249590000000  0.5175130000000  0.4048660000000 1.0
C      1  0.5233010000000  0.5219640000000  0.4327940000000 1.0
C      1  0.4890400000000  0.5692470000000  0.5003880000000 1.0
C      1  0.5359630000000  0.4252210000000  0.4895610000000 1.0
C      1  0.4944230000000  0.5139020000000  0.5819550000000 1.0
C      1  0.4688670000000  0.6026070000000  0.5631150000000 1.0
C      1  0.3997220000000  0.5054590000000  0.5958470000000 1.0
C      1  0.5383780000000  0.4419910000000  0.4193860000000 1.0
C      1  0.5467030000000  0.6130750000000  0.5446000000000 1.0
C      1  0.5204210000000  0.3546490000000  0.4677350000000 1.0
C      1  0.6100100000000  0.4136820000000  0.5618660000000 1.0
C      1  0.5217280000000  0.4031440000000  0.4770300000000 1.0
C      1  0.6216240000000  0.5340480000000  0.4752950000000 1.0
C      1  0.4851410000000  0.4933360000000  0.3907690000000 1.0
C      1  0.5569050000000  0.3744540000000  0.4940500000000 1.0
C      1  0.5290520000000  0.4923150000000  0.4916750000000 1.0
C      1  0.5915030000000  0.5054250000000  0.5146010000000 1.0
C      1  0.4671980000000  0.4788520000000  0.5002530000000 1.0
C      1  0.3841200000000  0.4328380000000  0.4956330000000 1.0
C      1  0.5248250000000  0.4767470000000  0.5349420000000 1.0
C      1  0.4736750000000  0.5188490000000  0.3809900000000 1.0
C      1  0.4819480000000  0.4665570000000  0.3823830000000 1.0
C      1  0.5424030000000  0.5591310000000  0.6009130000000 1.0
C      1  0.4414310000000  0.6090100000000  0.5610740000000 1.0
C      1  0.5837490000000  0.6024180000000  0.4831350000000 1.0
C      1  0.4443600000000  0.4476450000000  0.4102600000000 1.0
C      1  0.5823870000000  0.4080570000000  0.5205500000000 1.0
C      1  0.4054830000000  0.4556720000000  0.3764610000000 1.0
C      1  0.4303490000000  0.5150860000000  0.5210410000000 1.0
C      1  0.4960250000000  0.4559930000000  0.3606430000000 1.0
C      1  0.5437980000000  0.5687090000000  0.4262400000000 1.0
C      1  0.6215000000000  0.5027210000000  0.4339510000000 1.0
C      1  0.4570640000000  0.5110300000000  0.4231050000000 1.0
C      1  0.5199700000000  0.5360330000000  0.3836180000000 1.0
C      1  0.4831520000000  0.4973150000000  0.4198010000000 1.0
C      1  0.4253860000000  0.4236740000000  0.5244980000000 1.0
C      1  0.4236220000000  0.6052220000000  0.5411960000000 1.0
C      1  0.4413620000000  0.4374200000000  0.4830060000000 1.0
C      1  0.5442820000000  0.5600830000000  0.4889070000000 1.0
C      1  0.4586280000000  0.4653290000000  0.5227330000000 1.0
C      1  0.4717020000000  0.3923260000000  0.4680560000000 1.0
C      1  0.5059430000000  0.4409450000000  0.6114760000000 1.0
C      1  0.4206630000000  0.4625670000000  0.5715240000000 1.0
C      1  0.5719010000000  0.5401990000000  0.3878270000000 1.0
C      1  0.5806300000000  0.3731090000000  0.4783770000000 1.0
C      1  0.4880540000000  0.4355870000000  0.4826160000000 1.0
C      1  0.3743460000000  0.5090660000000  0.4760610000000 1.0
C      1  0.5863730000000  0.5319940000000  0.5176300000000 1.0
C      1  0.4346960000000  0.4733140000000  0.5970640000000 1.0
C      1  0.4955680000000  0.5833300000000  0.4101550000000 1.0
C      1  0.4824780000000  0.4680340000000  0.6450390000000 1.0
C      1  0.5335120000000  0.5264890000000  0.5554220000000 1.0
C      1  0.4336620000000  0.5716350000000  0.4280670000000 1.0
C      1  0.5275370000000  0.3710970000000  0.5606340000000 1.0
C      1  0.5063960000000  0.3917920000000  0.5262610000000 1.0
C      1  0.5086790000000  0.5344400000000  0.5686560000000 1.0
C      1  0.6002570000000  0.5715360000000  0.4503180000000 1.0
C      1  0.5636900000000  0.4868150000000  0.4535010000000 1.0
C      1  0.4447580000000  0.3916070000000  0.4713340000000 1.0
C      1  0.6189500000000  0.4967420000000  0.5091640000000 1.0
C      1  0.5470900000000  0.5439340000000  0.3763170000000 1.0
C      1  0.5237610000000  0.4340370000000  0.5141510000000 1.0
C      1  0.5235690000000  0.5781080000000  0.4084320000000 1.0
END
