TITL C-612604-1799-891 136.8596937065 125000 -1189.53352081641 0 0 196 (C1) n - 1
REM
REM in /home/nfs/bkarasulu/CARBON/AIRSS/Generating-Clusters/TERSOFF/Only-C1/FIRE-HFTN
REM
REM
REM
REM
REM
REM ./C.cell (11c1c37f851c82e70ff6c80c92926a4b)
REM AIRSS Version 0.9.1 bugfix July 2018 build 013d7b7c2542+ Fri, 06 Jul 2018 19:26:36 +0100
REM compiler GCC version 9.2.1 20190827 (Red Hat 9.2.1-1)
REM options -cpp -mtune=generic -march=x86-64 -g -O0 -fpre-include=/usr/include/finclude/math-vector-fortran.h
REM seed 2124741074 509316175 -1615040513 -362421247 720077710 23893851 -517795863 955709888 -303738988 -1896636750 -1429168520 722381003 -1975790206 -62079247 712197750 -417952019 -1282136134 1640268540 -578007930 -1070814602 -1766630572 -162747309 -1619131387 -1963831847 -600479333 -1056828544 333628294 1501061511 852193180 1896833460 -1899479781 -1880350306 -217705903
REM
CELL 1.54180   50.00000   50.00000   50.00000   90.00000   90.00000   90.00000
LATT -1
SFAC C  
C      1  0.4524970000000  0.4299410000000  0.4097740000000 1.0
C      1  0.5776650000000  0.4880950000000  0.5330810000000 1.0
C      1  0.5550090000000  0.5838100000000  0.4217070000000 1.0
C      1  0.5145040000000  0.5081250000000  0.3848160000000 1.0
C      1  0.4580210000000  0.4308260000000  0.5734100000000 1.0
C      1  0.4386330000000  0.4159210000000  0.3654200000000 1.0
C      1  0.4454810000000  0.4201390000000  0.5502170000000 1.0
C      1  0.4785610000000  0.5397620000000  0.3750560000000 1.0
C      1  0.4632740000000  0.5086270000000  0.4990900000000 1.0
C      1  0.4657760000000  0.5808420000000  0.5918030000000 1.0
C      1  0.5945120000000  0.4424780000000  0.4880510000000 1.0
C      1  0.5373270000000  0.4689540000000  0.6153930000000 1.0
C      1  0.4511130000000  0.4922880000000  0.4075070000000 1.0
C      1  0.5577690000000  0.6470000000000  0.5259990000000 1.0
C      1  0.5321890000000  0.6125160000000  0.4581670000000 1.0
C      1  0.4858250000000  0.5118890000000  0.6094420000000 1.0
C      1  0.4005270000000  0.5153440000000  0.5759560000000 1.0
C      1  0.3978620000000  0.4328660000000  0.4905050000000 1.0
C      1  0.3903180000000  0.4938600000000  0.5181350000000 1.0
C      1  0.5242540000000  0.4763580000000  0.4429580000000 1.0
C      1  0.4770210000000  0.4193070000000  0.4188000000000 1.0
C      1  0.4981420000000  0.5696850000000  0.5260290000000 1.0
C      1  0.4702120000000  0.4823950000000  0.4277550000000 1.0
C      1  0.3927670000000  0.5282260000000  0.4382100000000 1.0
C      1  0.5910510000000  0.5022950000000  0.5135510000000 1.0
C      1  0.4302810000000  0.5598530000000  0.5007450000000 1.0
C      1  0.4660790000000  0.5357670000000  0.6092080000000 1.0
C      1  0.5722450000000  0.5167450000000  0.4356050000000 1.0
C      1  0.4400440000000  0.6070500000000  0.4426830000000 1.0
C      1  0.5511940000000  0.4176280000000  0.4354330000000 1.0
C      1  0.5696880000000  0.4648240000000  0.4260900000000 1.0
C      1  0.4314840000000  0.4290150000000  0.4291970000000 1.0
C      1  0.4087650000000  0.5419670000000  0.5636360000000 1.0
C      1  0.4277450000000  0.4706510000000  0.5854380000000 1.0
C      1  0.4102360000000  0.4941950000000  0.4977010000000 1.0
C      1  0.4669240000000  0.4866140000000  0.4558870000000 1.0
C      1  0.4353180000000  0.5490210000000  0.5722730000000 1.0
C      1  0.4733160000000  0.5744450000000  0.4255450000000 1.0
C      1  0.4720210000000  0.4617430000000  0.5004190000000 1.0
C      1  0.3858380000000  0.5796870000000  0.3574890000000 1.0
C      1  0.5123760000000  0.4269990000000  0.5900250000000 1.0
C      1  0.4071920000000  0.5510100000000  0.3977940000000 1.0
C      1  0.5746740000000  0.4414940000000  0.5996900000000 1.0
C      1  0.5791080000000  0.5811860000000  0.4362440000000 1.0
C      1  0.5464720000000  0.4714390000000  0.4053790000000 1.0
C      1  0.5768980000000  0.5380790000000  0.4557880000000 1.0
C      1  0.6160440000000  0.6244910000000  0.5623940000000 1.0
C      1  0.4578040000000  0.4855390000000  0.5430960000000 1.0
C      1  0.5872010000000  0.5651100000000  0.4580840000000 1.0
C      1  0.4662100000000  0.6010340000000  0.4355960000000 1.0
C      1  0.3804670000000  0.4739620000000  0.4588700000000 1.0
C      1  0.4055030000000  0.5044970000000  0.4262870000000 1.0
C      1  0.6201510000000  0.5043720000000  0.5696990000000 1.0
C      1  0.6282290000000  0.5063350000000  0.5411400000000 1.0
C      1  0.3971150000000  0.5528430000000  0.4245940000000 1.0
C      1  0.5463200000000  0.5145950000000  0.4228570000000 1.0
C      1  0.3690300000000  0.4987020000000  0.4686110000000 1.0
C      1  0.4547480000000  0.5521390000000  0.4887850000000 1.0
C      1  0.5094640000000  0.5240170000000  0.4528600000000 1.0
C      1  0.5538010000000  0.4373820000000  0.5247520000000 1.0
C      1  0.4332380000000  0.4557980000000  0.4762640000000 1.0
C      1  0.5042970000000  0.6065800000000  0.5760550000000 1.0
C      1  0.4637280000000  0.4855810000000  0.3813170000000 1.0
C      1  0.5855960000000  0.4280310000000  0.4652720000000 1.0
C      1  0.3840440000000  0.4497810000000  0.4738830000000 1.0
C      1  0.4528070000000  0.5318690000000  0.5568520000000 1.0
C      1  0.6337680000000  0.4792650000000  0.5306080000000 1.0
C      1  0.5248790000000  0.5143140000000  0.5581450000000 1.0
C      1  0.4771360000000  0.4783390000000  0.5634280000000 1.0
C      1  0.4362600000000  0.4337430000000  0.4586170000000 1.0
C      1  0.5458060000000  0.3250130000000  0.4964990000000 1.0
C      1  0.4711070000000  0.4352780000000  0.5109270000000 1.0
C      1  0.5826190000000  0.4376180000000  0.5144200000000 1.0
C      1  0.3797970000000  0.5253210000000  0.4641680000000 1.0
C      1  0.4984160000000  0.5762700000000  0.4111400000000 1.0
C      1  0.5669820000000  0.5300580000000  0.4813810000000 1.0
C      1  0.4992550000000  0.5450430000000  0.5110760000000 1.0
C      1  0.4513930000000  0.5566780000000  0.5953960000000 1.0
C      1  0.4521080000000  0.5397170000000  0.3792820000000 1.0
C      1  0.6093780000000  0.5205430000000  0.5253660000000 1.0
C      1  0.5891850000000  0.5697120000000  0.5675400000000 1.0
C      1  0.5099360000000  0.4048670000000  0.4591570000000 1.0
C      1  0.3981870000000  0.5408290000000  0.5344400000000 1.0
C      1  0.4365650000000  0.4252260000000  0.6412050000000 1.0
C      1  0.5442920000000  0.5343400000000  0.5546630000000 1.0
C      1  0.6352910000000  0.4713270000000  0.5036090000000 1.0
C      1  0.5454370000000  0.3790410000000  0.5019710000000 1.0
C      1  0.4864770000000  0.5854500000000  0.5730080000000 1.0
C      1  0.3988270000000  0.5775680000000  0.4375720000000 1.0
C      1  0.5577450000000  0.4498330000000  0.5515900000000 1.0
C      1  0.4441490000000  0.4264270000000  0.5221850000000 1.0
C      1  0.4929560000000  0.4085530000000  0.4372440000000 1.0
C      1  0.5229820000000  0.4407120000000  0.5206340000000 1.0
C      1  0.5949420000000  0.5800160000000  0.5129120000000 1.0
C      1  0.6187620000000  0.4571970000000  0.4876850000000 1.0
C      1  0.4940550000000  0.4570910000000  0.5575020000000 1.0
C      1  0.5662940000000  0.5421490000000  0.5418570000000 1.0
C      1  0.3998870000000  0.4453150000000  0.5342430000000 1.0
C      1  0.5950090000000  0.6146850000000  0.5478970000000 1.0
C      1  0.5947360000000  0.5748060000000  0.4854330000000 1.0
C      1  0.3866970000000  0.5428670000000  0.4860090000000 1.0
C      1  0.3953580000000  0.3999970000000  0.4074690000000 1.0
C      1  0.4985230000000  0.5196220000000  0.5652630000000 1.0
C      1  0.4223680000000  0.4963810000000  0.5743020000000 1.0
C      1  0.5164610000000  0.5577350000000  0.3988150000000 1.0
C      1  0.6199860000000  0.4600170000000  0.5486120000000 1.0
C      1  0.4627330000000  0.5521570000000  0.4385270000000 1.0
C      1  0.4803390000000  0.5392700000000  0.5570600000000 1.0
C      1  0.4985380000000  0.5953340000000  0.5153370000000 1.0
C      1  0.4511070000000  0.5097210000000  0.4688660000000 1.0
C      1  0.4822000000000  0.4719010000000  0.4759870000000 1.0
C      1  0.5200330000000  0.4649660000000  0.4174210000000 1.0
C      1  0.4950380000000  0.4063770000000  0.5509520000000 1.0
C      1  0.5352380000000  0.4591000000000  0.4605190000000 1.0
C      1  0.5376960000000  0.4022240000000  0.4556180000000 1.0
C      1  0.5796080000000  0.5061760000000  0.4890220000000 1.0
C      1  0.5096290000000  0.6021170000000  0.4186930000000 1.0
C      1  0.3763100000000  0.5090730000000  0.5615830000000 1.0
C      1  0.5198880000000  0.4482400000000  0.6072740000000 1.0
C      1  0.5567430000000  0.4781290000000  0.5479610000000 1.0
C      1  0.5260170000000  0.5055160000000  0.4416890000000 1.0
C      1  0.4281630000000  0.5086030000000  0.4091420000000 1.0
C      1  0.5291320000000  0.5037330000000  0.5145950000000 1.0
C      1  0.5225140000000  0.3965800000000  0.5517970000000 1.0
C      1  0.4993140000000  0.4260130000000  0.5078930000000 1.0
C      1  0.4542130000000  0.4610600000000  0.3711350000000 1.0
C      1  0.5631110000000  0.5367830000000  0.6023410000000 1.0
C      1  0.4552520000000  0.4821260000000  0.5134890000000 1.0
C      1  0.4153240000000  0.4312240000000  0.5142560000000 1.0
C      1  0.5371860000000  0.6439170000000  0.5928120000000 1.0
C      1  0.5752670000000  0.6316970000000  0.5377830000000 1.0
C      1  0.4780310000000  0.4925810000000  0.6305760000000 1.0
C      1  0.5139060000000  0.4629510000000  0.5384720000000 1.0
C      1  0.4481030000000  0.4356150000000  0.3819630000000 1.0
C      1  0.5455100000000  0.3508970000000  0.4995000000000 1.0
C      1  0.6072150000000  0.5259190000000  0.5828000000000 1.0
C      1  0.5304490000000  0.4857210000000  0.4942630000000 1.0
C      1  0.4552440000000  0.5396290000000  0.4620760000000 1.0
C      1  0.4332320000000  0.4064030000000  0.4688640000000 1.0
C      1  0.5661850000000  0.4625580000000  0.6159360000000 1.0
C      1  0.4737460000000  0.5351190000000  0.5036870000000 1.0
C      1  0.5863080000000  0.5460130000000  0.5858840000000 1.0
C      1  0.5541940000000  0.3931580000000  0.4777180000000 1.0
C      1  0.4294640000000  0.4734440000000  0.4996850000000 1.0
C      1  0.4398290000000  0.4367510000000  0.6180590000000 1.0
C      1  0.4940630000000  0.4735520000000  0.4113190000000 1.0
C      1  0.3956650000000  0.4792740000000  0.4351490000000 1.0
C      1  0.5921850000000  0.5406940000000  0.5345650000000 1.0
C      1  0.5365380000000  0.3886460000000  0.5280100000000 1.0
C      1  0.5241420000000  0.5310400000000  0.5072730000000 1.0
C      1  0.3818690000000  0.5158780000000  0.5339550000000 1.0
C      1  0.5930750000000  0.5864380000000  0.5424610000000 1.0
C      1  0.5439140000000  0.5643530000000  0.4037370000000 1.0
C      1  0.5358570000000  0.6025430000000  0.4309400000000 1.0
C      1  0.4420750000000  0.5055140000000  0.5550180000000 1.0
C      1  0.3867280000000  0.4685760000000  0.5308100000000 1.0
C      1  0.5507160000000  0.4709530000000  0.4802250000000 1.0
C      1  0.5356720000000  0.4981430000000  0.6160160000000 1.0
C      1  0.4899740000000  0.6169860000000  0.4358870000000 1.0
C      1  0.4938430000000  0.6208420000000  0.5125820000000 1.0
C      1  0.5300130000000  0.4060850000000  0.5785190000000 1.0
C      1  0.5452670000000  0.5444520000000  0.4931860000000 1.0
C      1  0.5339290000000  0.5431010000000  0.6054700000000 1.0
C      1  0.5022000000000  0.4090270000000  0.4856500000000 1.0
C      1  0.5410010000000  0.5967230000000  0.4793880000000 1.0
C      1  0.5637060000000  0.5098260000000  0.6139620000000 1.0
C      1  0.4213100000000  0.5088260000000  0.4756680000000 1.0
C      1  0.5815510000000  0.4000070000000  0.4723990000000 1.0
C      1  0.5162540000000  0.5198900000000  0.6125900000000 1.0
C      1  0.5298930000000  0.4900080000000  0.5415210000000 1.0
C      1  0.5212520000000  0.6256020000000  0.5833090000000 1.0
C      1  0.6020440000000  0.3820100000000  0.4733340000000 1.0
C      1  0.6028190000000  0.4410960000000  0.5358090000000 1.0
C      1  0.5433460000000  0.5723710000000  0.4900010000000 1.0
C      1  0.5064250000000  0.6258890000000  0.4577560000000 1.0
C      1  0.4186280000000  0.3909070000000  0.4512290000000 1.0
C      1  0.5052500000000  0.5357200000000  0.3842460000000 1.0
C      1  0.3959670000000  0.5655490000000  0.3768950000000 1.0
C      1  0.5806290000000  0.4872120000000  0.6183750000000 1.0
C      1  0.4042430000000  0.5507510000000  0.5078950000000 1.0
C      1  0.5781400000000  0.4882320000000  0.4434070000000 1.0
C      1  0.4738330000000  0.4789920000000  0.6523950000000 1.0
C      1  0.5409780000000  0.5006760000000  0.3973220000000 1.0
C      1  0.4859700000000  0.4991210000000  0.5811950000000 1.0
C      1  0.4421880000000  0.4465570000000  0.5918910000000 1.0
C      1  0.4926390000000  0.4884050000000  0.3862740000000 1.0
C      1  0.4884130000000  0.4302790000000  0.5700620000000 1.0
C      1  0.5738950000000  0.4846240000000  0.4719630000000 1.0
C      1  0.6171540000000  0.4754650000000  0.5732440000000 1.0
C      1  0.5688580000000  0.4374010000000  0.5738980000000 1.0
C      1  0.5720920000000  0.4374860000000  0.4399230000000 1.0
C      1  0.4134120000000  0.4055000000000  0.4268640000000 1.0
C      1  0.5073020000000  0.4806550000000  0.4814950000000 1.0
C      1  0.4289360000000  0.5330690000000  0.3938540000000 1.0
C      1  0.4890750000000  0.5658500000000  0.5525020000000 1.0
C      1  0.4150490000000  0.5978250000000  0.4436880000000 1.0
END
