TITL C-612607-4507-1363 215.301620041251 125000 -933.06569175637 0 0 154 (C1) n - 1
REM
REM in /home/nfs/bkarasulu/CARBON/AIRSS/Generating-Clusters/TERSOFF/Only-C1/FIRE-HFTN
REM
REM
REM
REM
REM
REM ./C.cell (11c1c37f851c82e70ff6c80c92926a4b)
REM AIRSS Version 0.9.1 bugfix July 2018 build 013d7b7c2542+ Fri, 06 Jul 2018 19:26:36 +0100
REM compiler GCC version 9.2.1 20190827 (Red Hat 9.2.1-1)
REM options -cpp -mtune=generic -march=x86-64 -g -O0 -fpre-include=/usr/include/finclude/math-vector-fortran.h
REM seed -1609824878 719647439 1128038887 -1383527514 584734050 -276470244 1967067998 -1128416482 123622153 -1749515341 -1563404093 -1162044775 -1697771184 -1347568160 892071983 -1824158899 -1542615853 -1994898321 887073406 -512917768 33133881 2058537057 723775615 -1186876278 439242352 -1350045924 164945023 189080340 -1461092977 514463339 -808441584 -1011029403 -1902303177
REM
CELL 1.54180   50.00000   50.00000   50.00000   90.00000   90.00000   90.00000
LATT -1
SFAC C  
C      1  0.5336840000000  0.4721420000000  0.5433660000000 1.0
C      1  0.4959100000000  0.5427610000000  0.4888480000000 1.0
C      1  0.5470070000000  0.4565360000000  0.5660890000000 1.0
C      1  0.4421260000000  0.4939140000000  0.5463870000000 1.0
C      1  0.5226340000000  0.5508200000000  0.4772600000000 1.0
C      1  0.5076990000000  0.5276730000000  0.4368360000000 1.0
C      1  0.5705870000000  0.5896280000000  0.5745270000000 1.0
C      1  0.5918760000000  0.4866180000000  0.5194830000000 1.0
C      1  0.4729790000000  0.5013450000000  0.4980270000000 1.0
C      1  0.4864760000000  0.5101820000000  0.3957340000000 1.0
C      1  0.4991360000000  0.4515540000000  0.5831530000000 1.0
C      1  0.4519180000000  0.4960630000000  0.4520650000000 1.0
C      1  0.5768150000000  0.5789550000000  0.5060730000000 1.0
C      1  0.5076910000000  0.4248330000000  0.4167190000000 1.0
C      1  0.5689600000000  0.5002400000000  0.5097940000000 1.0
C      1  0.4821550000000  0.5572580000000  0.5910420000000 1.0
C      1  0.5197950000000  0.5496910000000  0.4492670000000 1.0
C      1  0.4312260000000  0.4602830000000  0.5895700000000 1.0
C      1  0.4576420000000  0.5175000000000  0.5425010000000 1.0
C      1  0.5954490000000  0.5321500000000  0.5525570000000 1.0
C      1  0.6175410000000  0.4476540000000  0.5094900000000 1.0
C      1  0.5906640000000  0.5659860000000  0.4820200000000 1.0
C      1  0.5917620000000  0.5755490000000  0.5312450000000 1.0
C      1  0.4188340000000  0.4928870000000  0.5286130000000 1.0
C      1  0.6175510000000  0.5576100000000  0.4890700000000 1.0
C      1  0.5317980000000  0.5063580000000  0.6151120000000 1.0
C      1  0.4458400000000  0.5084050000000  0.4258330000000 1.0
C      1  0.5707900000000  0.4460600000000  0.4375690000000 1.0
C      1  0.4556550000000  0.5475780000000  0.5412910000000 1.0
C      1  0.5608780000000  0.4116760000000  0.5265800000000 1.0
C      1  0.5547220000000  0.5107380000000  0.4000610000000 1.0
C      1  0.3838890000000  0.5401620000000  0.4324670000000 1.0
C      1  0.4910500000000  0.6000300000000  0.5668400000000 1.0
C      1  0.4857000000000  0.5887480000000  0.5077130000000 1.0
C      1  0.5496870000000  0.5736870000000  0.5794350000000 1.0
C      1  0.5659300000000  0.5203230000000  0.4896540000000 1.0
C      1  0.3992540000000  0.5589260000000  0.4213680000000 1.0
C      1  0.4033930000000  0.4452100000000  0.4508000000000 1.0
C      1  0.5453790000000  0.5403380000000  0.4906270000000 1.0
C      1  0.3993080000000  0.4759340000000  0.4866720000000 1.0
C      1  0.4727730000000  0.4720660000000  0.5009230000000 1.0
C      1  0.5291110000000  0.5580680000000  0.4005910000000 1.0
C      1  0.5328560000000  0.4056300000000  0.5334690000000 1.0
C      1  0.5874320000000  0.5917210000000  0.5537730000000 1.0
C      1  0.4704470000000  0.5529870000000  0.4049380000000 1.0
C      1  0.4435640000000  0.5912020000000  0.5596550000000 1.0
C      1  0.4381050000000  0.4109360000000  0.4722480000000 1.0
C      1  0.4246400000000  0.4207630000000  0.5246290000000 1.0
C      1  0.5149750000000  0.4481280000000  0.4959220000000 1.0
C      1  0.5009960000000  0.4691370000000  0.3661070000000 1.0
C      1  0.4795970000000  0.5109290000000  0.5257390000000 1.0
C      1  0.6238670000000  0.5465940000000  0.5131860000000 1.0
C      1  0.6084190000000  0.4729000000000  0.5009240000000 1.0
C      1  0.4988340000000  0.5634240000000  0.4009750000000 1.0
C      1  0.5075270000000  0.5108290000000  0.5296210000000 1.0
C      1  0.4766830000000  0.4611310000000  0.4741090000000 1.0
C      1  0.5218170000000  0.5117860000000  0.5537400000000 1.0
C      1  0.4474310000000  0.5694470000000  0.4049570000000 1.0
C      1  0.4317720000000  0.4048970000000  0.5003290000000 1.0
C      1  0.4586400000000  0.5670290000000  0.4614690000000 1.0
C      1  0.4701860000000  0.4291900000000  0.5231760000000 1.0
C      1  0.4866840000000  0.4639270000000  0.5602190000000 1.0
C      1  0.4977150000000  0.4426800000000  0.4745720000000 1.0
C      1  0.6060840000000  0.4301120000000  0.5265040000000 1.0
C      1  0.5065190000000  0.4835250000000  0.4353240000000 1.0
C      1  0.4856260000000  0.4918130000000  0.6096070000000 1.0
C      1  0.4186770000000  0.5004560000000  0.4213400000000 1.0
C      1  0.3988110000000  0.4721150000000  0.4584440000000 1.0
C      1  0.5095740000000  0.5196290000000  0.4091890000000 1.0
C      1  0.4721290000000  0.6065450000000  0.5230270000000 1.0
C      1  0.5059660000000  0.4666820000000  0.5398350000000 1.0
C      1  0.5502880000000  0.5693840000000  0.4164240000000 1.0
C      1  0.5365410000000  0.4869860000000  0.4797060000000 1.0
C      1  0.5904030000000  0.4939880000000  0.4544990000000 1.0
C      1  0.5850060000000  0.4815860000000  0.5474380000000 1.0
C      1  0.3772360000000  0.5142890000000  0.4414750000000 1.0
C      1  0.4952750000000  0.4148880000000  0.4653870000000 1.0
C      1  0.4553840000000  0.4515600000000  0.5130530000000 1.0
C      1  0.5785910000000  0.4759130000000  0.4334150000000 1.0
C      1  0.4391020000000  0.4851680000000  0.5989940000000 1.0
C      1  0.4117430000000  0.4710950000000  0.5117490000000 1.0
C      1  0.4272710000000  0.4484220000000  0.5155180000000 1.0
C      1  0.4840040000000  0.4413630000000  0.4205790000000 1.0
C      1  0.4891000000000  0.4915220000000  0.3749900000000 1.0
C      1  0.5235040000000  0.4369060000000  0.5735630000000 1.0
C      1  0.4213560000000  0.5696620000000  0.4109630000000 1.0
C      1  0.5175760000000  0.4270490000000  0.3902820000000 1.0
C      1  0.4930270000000  0.5615750000000  0.5136340000000 1.0
C      1  0.5023850000000  0.5484170000000  0.5694220000000 1.0
C      1  0.4904110000000  0.4686730000000  0.4185150000000 1.0
C      1  0.6073040000000  0.4811230000000  0.4738600000000 1.0
C      1  0.5687010000000  0.5630650000000  0.4355460000000 1.0
C      1  0.5538900000000  0.4692280000000  0.5925120000000 1.0
C      1  0.5745240000000  0.4544680000000  0.5534220000000 1.0
C      1  0.5512080000000  0.5911570000000  0.5118300000000 1.0
C      1  0.4372840000000  0.4189250000000  0.5523670000000 1.0
C      1  0.3974730000000  0.4941210000000  0.4396080000000 1.0
C      1  0.4901140000000  0.4047950000000  0.5587390000000 1.0
C      1  0.4584070000000  0.4661260000000  0.4530720000000 1.0
C      1  0.5469680000000  0.5263660000000  0.5586230000000 1.0
C      1  0.5669310000000  0.4056230000000  0.4982750000000 1.0
C      1  0.4672170000000  0.6042210000000  0.5509020000000 1.0
C      1  0.5130320000000  0.4456660000000  0.3712400000000 1.0
C      1  0.3518860000000  0.5085600000000  0.4514950000000 1.0
C      1  0.4637070000000  0.4156220000000  0.4577530000000 1.0
C      1  0.5741120000000  0.5140460000000  0.5572330000000 1.0
C      1  0.5224850000000  0.5000060000000  0.5023460000000 1.0
C      1  0.4311540000000  0.5286070000000  0.4987110000000 1.0
C      1  0.5072900000000  0.5082600000000  0.6017840000000 1.0
C      1  0.5346970000000  0.5533890000000  0.5679400000000 1.0
C      1  0.5810990000000  0.5506210000000  0.4581740000000 1.0
C      1  0.4864080000000  0.5543530000000  0.5415840000000 1.0
C      1  0.4439120000000  0.5510750000000  0.5125730000000 1.0
C      1  0.5332010000000  0.5993100000000  0.5308320000000 1.0
C      1  0.4158540000000  0.4225160000000  0.4581140000000 1.0
C      1  0.4357570000000  0.5641750000000  0.5565410000000 1.0
C      1  0.5802900000000  0.5207700000000  0.4638040000000 1.0
C      1  0.4640990000000  0.5347340000000  0.6003990000000 1.0
C      1  0.5226300000000  0.4180290000000  0.4399990000000 1.0
C      1  0.4615930000000  0.4395620000000  0.4386320000000 1.0
C      1  0.5158690000000  0.6024960000000  0.5518490000000 1.0
C      1  0.5414290000000  0.4420360000000  0.4932500000000 1.0
C      1  0.5333360000000  0.5291520000000  0.3971120000000 1.0
C      1  0.5570580000000  0.4885120000000  0.4174670000000 1.0
C      1  0.5447100000000  0.4895700000000  0.5225500000000 1.0
C      1  0.5050430000000  0.5187560000000  0.5757840000000 1.0
C      1  0.5420770000000  0.4729910000000  0.4584840000000 1.0
C      1  0.4689280000000  0.5441070000000  0.4729250000000 1.0
C      1  0.5342620000000  0.4794690000000  0.4323870000000 1.0
C      1  0.5177750000000  0.4134160000000  0.5572010000000 1.0
C      1  0.5555160000000  0.4225160000000  0.4781600000000 1.0
C      1  0.4303790000000  0.4373520000000  0.5741120000000 1.0
C      1  0.3287100000000  0.5024690000000  0.4617360000000 1.0
C      1  0.4116600000000  0.5183350000000  0.5176680000000 1.0
C      1  0.5042980000000  0.3963070000000  0.4871160000000 1.0
C      1  0.5169830000000  0.3951110000000  0.5112360000000 1.0
C      1  0.5802850000000  0.4301500000000  0.5386360000000 1.0
C      1  0.5010760000000  0.5053850000000  0.4537080000000 1.0
C      1  0.4660970000000  0.4141510000000  0.5472190000000 1.0
C      1  0.4092050000000  0.5545170000000  0.5533990000000 1.0
C      1  0.4600850000000  0.5048150000000  0.6046310000000 1.0
C      1  0.5509360000000  0.4258650000000  0.4493760000000 1.0
C      1  0.4521870000000  0.5162290000000  0.4790540000000 1.0
C      1  0.4850650000000  0.5998310000000  0.6159620000000 1.0
C      1  0.5511080000000  0.4882690000000  0.6109200000000 1.0
C      1  0.4859470000000  0.5862420000000  0.5922230000000 1.0
C      1  0.4601070000000  0.4735620000000  0.5563650000000 1.0
C      1  0.4993690000000  0.5109480000000  0.4844380000000 1.0
C      1  0.4505040000000  0.5915840000000  0.4580860000000 1.0
C      1  0.4911910000000  0.4638730000000  0.6073620000000 1.0
C      1  0.3991750000000  0.5368560000000  0.5353580000000 1.0
C      1  0.4639410000000  0.5236280000000  0.4079310000000 1.0
C      1  0.6062050000000  0.5510650000000  0.5348000000000 1.0
C      1  0.4992120000000  0.4631970000000  0.5136770000000 1.0
END
