TITL C-612601-4209-1460 0.000229829989280381 125000 -752.52779959957 0 0 125 (C1) n - 1
REM
REM in /home/nfs/bkarasulu/CARBON/AIRSS/Generating-Clusters/TERSOFF/Only-C1/FIRE-HFTN
REM
REM
REM
REM
REM
REM ./C.cell (11c1c37f851c82e70ff6c80c92926a4b)
REM AIRSS Version 0.9.1 bugfix July 2018 build 013d7b7c2542+ Fri, 06 Jul 2018 19:26:36 +0100
REM compiler GCC version 9.2.1 20190827 (Red Hat 9.2.1-1)
REM options -cpp -mtune=generic -march=x86-64 -g -O0 -fpre-include=/usr/include/finclude/math-vector-fortran.h
REM seed 1205654001 1022415660 -828297540 -1348355138 -1757886838 1714132935 -1065042211 -797490243 1015567775 -583278831 -53496105 -696401202 -1264573583 2002356435 1913448127 305355173 363526717 1924688581 -657816914 1163823385 1834161353 -1268355369 1791296074 1785210747 -293053931 -43116236 509577379 -582529460 1102983957 1731622764 171053955 1362999956 -60058082
REM
CELL 1.54180   50.00000   50.00000   50.00000   90.00000   90.00000   90.00000
LATT -1
SFAC C  
C      1  0.4706780000000  0.4594690000000  0.5886910000000 1.0
C      1  0.5228550000000  0.6000730000000  0.4859460000000 1.0
C      1  0.4663680000000  0.5103530000000  0.3563890000000 1.0
C      1  0.4479610000000  0.4517290000000  0.4499950000000 1.0
C      1  0.4925990000000  0.5953890000000  0.4482280000000 1.0
C      1  0.5347680000000  0.5712450000000  0.4480650000000 1.0
C      1  0.5654780000000  0.5088180000000  0.5688890000000 1.0
C      1  0.4493950000000  0.5260900000000  0.4444840000000 1.0
C      1  0.4309810000000  0.4614140000000  0.5466350000000 1.0
C      1  0.4484440000000  0.4996250000000  0.4293600000000 1.0
C      1  0.4922650000000  0.4728580000000  0.4346670000000 1.0
C      1  0.5400950000000  0.5234720000000  0.4633070000000 1.0
C      1  0.4738470000000  0.3883010000000  0.4881910000000 1.0
C      1  0.4989670000000  0.4482870000000  0.5437520000000 1.0
C      1  0.5704480000000  0.4108290000000  0.4190360000000 1.0
C      1  0.4497110000000  0.4806190000000  0.5369760000000 1.0
C      1  0.4234330000000  0.5309220000000  0.4885600000000 1.0
C      1  0.5653100000000  0.5561030000000  0.5543230000000 1.0
C      1  0.5303870000000  0.5314600000000  0.4181470000000 1.0
C      1  0.4760390000000  0.6183450000000  0.4978470000000 1.0
C      1  0.4015030000000  0.4488510000000  0.5115410000000 1.0
C      1  0.5460080000000  0.4988710000000  0.4472680000000 1.0
C      1  0.5158070000000  0.5583120000000  0.5121520000000 1.0
C      1  0.6136230000000  0.4883350000000  0.4591560000000 1.0
C      1  0.5362740000000  0.5824140000000  0.5070360000000 1.0
C      1  0.5184590000000  0.5909350000000  0.4591080000000 1.0
C      1  0.5210000000000  0.4896910000000  0.6103030000000 1.0
C      1  0.5430830000000  0.4195750000000  0.5032540000000 1.0
C      1  0.4227780000000  0.5021460000000  0.4922340000000 1.0
C      1  0.4706960000000  0.5260070000000  0.5123490000000 1.0
C      1  0.5100440000000  0.4626030000000  0.4551690000000 1.0
C      1  0.5374510000000  0.5610930000000  0.5557890000000 1.0
C      1  0.4305600000000  0.4129200000000  0.4955510000000 1.0
C      1  0.4567890000000  0.6044120000000  0.4822540000000 1.0
C      1  0.5762630000000  0.5544280000000  0.4800430000000 1.0
C      1  0.4995630000000  0.3919800000000  0.5024180000000 1.0
C      1  0.4230050000000  0.5020750000000  0.6267120000000 1.0
C      1  0.6103500000000  0.5438080000000  0.4481340000000 1.0
C      1  0.5197720000000  0.4077700000000  0.4893040000000 1.0
C      1  0.4931660000000  0.5081250000000  0.5131710000000 1.0
C      1  0.5242180000000  0.4583270000000  0.5366380000000 1.0
C      1  0.4749570000000  0.4853400000000  0.5499130000000 1.0
C      1  0.4778900000000  0.4981360000000  0.4715780000000 1.0
C      1  0.4711430000000  0.4756190000000  0.4848460000000 1.0
C      1  0.4620140000000  0.4744140000000  0.4377170000000 1.0
C      1  0.6000560000000  0.4438530000000  0.4385260000000 1.0
C      1  0.4508790000000  0.3958360000000  0.5043530000000 1.0
C      1  0.4905670000000  0.5172010000000  0.4564920000000 1.0
C      1  0.4856800000000  0.5471140000000  0.4152910000000 1.0
C      1  0.4458940000000  0.5379470000000  0.4718930000000 1.0
C      1  0.5119960000000  0.4163200000000  0.4625150000000 1.0
C      1  0.4310980000000  0.4944050000000  0.6016410000000 1.0
C      1  0.4048140000000  0.4643960000000  0.5351650000000 1.0
C      1  0.4621100000000  0.4270370000000  0.4484360000000 1.0
C      1  0.5316280000000  0.5991120000000  0.5333400000000 1.0
C      1  0.4738880000000  0.4534850000000  0.4996400000000 1.0
C      1  0.4670270000000  0.5979260000000  0.4565680000000 1.0
C      1  0.4944520000000  0.5611580000000  0.5888680000000 1.0
C      1  0.5492950000000  0.4489410000000  0.5906620000000 1.0
C      1  0.4502210000000  0.5814770000000  0.5362430000000 1.0
C      1  0.5643520000000  0.5681910000000  0.5035170000000 1.0
C      1  0.5665660000000  0.4863630000000  0.4634060000000 1.0
C      1  0.4543130000000  0.5297760000000  0.5355680000000 1.0
C      1  0.4503530000000  0.4736880000000  0.5993990000000 1.0
C      1  0.4954670000000  0.5803280000000  0.5674490000000 1.0
C      1  0.4163960000000  0.4826610000000  0.4727200000000 1.0
C      1  0.4854530000000  0.4139910000000  0.4521750000000 1.0
C      1  0.6152650000000  0.4641280000000  0.4473180000000 1.0
C      1  0.5256430000000  0.4387010000000  0.4519510000000 1.0
C      1  0.5789400000000  0.4859850000000  0.5592280000000 1.0
C      1  0.5213700000000  0.5439210000000  0.5380810000000 1.0
C      1  0.4106880000000  0.5128210000000  0.5526620000000 1.0
C      1  0.5000110000000  0.5381870000000  0.6018780000000 1.0
C      1  0.5098920000000  0.5441780000000  0.4037270000000 1.0
C      1  0.3952660000000  0.4910960000000  0.5408390000000 1.0
C      1  0.4834300000000  0.4410280000000  0.5212700000000 1.0
C      1  0.4179190000000  0.4377630000000  0.4905080000000 1.0
C      1  0.4202720000000  0.5479720000000  0.5127370000000 1.0
C      1  0.5538670000000  0.4414790000000  0.4529150000000 1.0
C      1  0.5370430000000  0.5161810000000  0.4906970000000 1.0
C      1  0.5913780000000  0.5334140000000  0.4657620000000 1.0
C      1  0.5691210000000  0.4618310000000  0.5484400000000 1.0
C      1  0.4395220000000  0.4925090000000  0.5132690000000 1.0
C      1  0.5518530000000  0.4077890000000  0.5281720000000 1.0
C      1  0.5221180000000  0.5854900000000  0.5570300000000 1.0
C      1  0.4254420000000  0.5320920000000  0.5369250000000 1.0
C      1  0.4911130000000  0.3889690000000  0.5304800000000 1.0
C      1  0.4323000000000  0.5937870000000  0.4925390000000 1.0
C      1  0.4938070000000  0.5581540000000  0.4933810000000 1.0
C      1  0.4694930000000  0.5437110000000  0.4896330000000 1.0
C      1  0.5099100000000  0.4750880000000  0.3676260000000 1.0
C      1  0.4717570000000  0.5848570000000  0.5522070000000 1.0
C      1  0.5753500000000  0.5353480000000  0.5713250000000 1.0
C      1  0.5347500000000  0.4673090000000  0.6040960000000 1.0
C      1  0.4767970000000  0.5342960000000  0.4383370000000 1.0
C      1  0.4958980000000  0.4876340000000  0.3876480000000 1.0
C      1  0.5030700000000  0.6181200000000  0.4962510000000 1.0
C      1  0.5374150000000  0.5078050000000  0.5658880000000 1.0
C      1  0.4083670000000  0.6018660000000  0.4819200000000 1.0
C      1  0.5305340000000  0.5021060000000  0.4221820000000 1.0
C      1  0.4706720000000  0.5000560000000  0.3814370000000 1.0
C      1  0.5067450000000  0.4872570000000  0.4140820000000 1.0
C      1  0.4956440000000  0.5023900000000  0.5407860000000 1.0
C      1  0.5142810000000  0.4762050000000  0.4799040000000 1.0
C      1  0.5145120000000  0.4996910000000  0.4960530000000 1.0
C      1  0.5746600000000  0.4315220000000  0.4363520000000 1.0
C      1  0.4198860000000  0.5076150000000  0.5791860000000 1.0
C      1  0.5745640000000  0.5541070000000  0.5273150000000 1.0
C      1  0.5062690000000  0.3816590000000  0.5517880000000 1.0
C      1  0.4326630000000  0.5749680000000  0.5142580000000 1.0
C      1  0.4841570000000  0.4620940000000  0.5642710000000 1.0
C      1  0.5789710000000  0.5268690000000  0.5199330000000 1.0
C      1  0.5539720000000  0.4477780000000  0.5005130000000 1.0
C      1  0.4621370000000  0.3925640000000  0.5310420000000 1.0
C      1  0.5595300000000  0.5132800000000  0.5072970000000 1.0
C      1  0.5903580000000  0.5034310000000  0.4657700000000 1.0
C      1  0.5614740000000  0.4594100000000  0.4744540000000 1.0
C      1  0.5090970000000  0.5139000000000  0.6093050000000 1.0
C      1  0.4258280000000  0.4558200000000  0.4688530000000 1.0
C      1  0.5372280000000  0.5440220000000  0.4435280000000 1.0
C      1  0.5587380000000  0.4154090000000  0.5533980000000 1.0
C      1  0.5166750000000  0.5181690000000  0.5503870000000 1.0
C      1  0.4503130000000  0.5022780000000  0.4009500000000 1.0
C      1  0.5624360000000  0.4402800000000  0.5669400000000 1.0
C      1  0.5506380000000  0.4608140000000  0.5262860000000 1.0
END
