TITL C-612602-9376-444 0.00584742794030968 125000 -840.264033329791 0 0 136 (C1) n - 1
REM
REM in /home/nfs/bkarasulu/CARBON/AIRSS/Generating-Clusters/TERSOFF/Only-C1/FIRE-HFTN
REM
REM
REM
REM
REM
REM ./C.cell (11c1c37f851c82e70ff6c80c92926a4b)
REM AIRSS Version 0.9.1 bugfix July 2018 build 013d7b7c2542+ Fri, 06 Jul 2018 19:26:36 +0100
REM compiler GCC version 9.2.1 20190827 (Red Hat 9.2.1-1)
REM options -cpp -mtune=generic -march=x86-64 -g -O0 -fpre-include=/usr/include/finclude/math-vector-fortran.h
REM seed -1281952220 -1889437675 -3615079 -1993775591 1782211116 -1699866139 171277339 942678311 -77768995 1477941700 -1088069803 1916340633 504732367 1825747914 1395104322 884624046 -2107967001 -1840614891 289930559 589890132 -1532876179 -58961778 -411715962 915518057 -1880971234 -739352091 856262558 -92525653 443583260 709332793 1705028949 -1789611177 -855653382
REM
CELL 1.54180   50.00000   50.00000   50.00000   90.00000   90.00000   90.00000
LATT -1
SFAC C  
C      1  0.4731340000000  0.4011110000000  0.5256710000000 1.0
C      1  0.4539410000000  0.5111330000000  0.4251400000000 1.0
C      1  0.4255630000000  0.4712080000000  0.5942320000000 1.0
C      1  0.5225780000000  0.4870260000000  0.6072430000000 1.0
C      1  0.4000070000000  0.4589110000000  0.5115720000000 1.0
C      1  0.5409410000000  0.5260620000000  0.5819680000000 1.0
C      1  0.5052290000000  0.4295270000000  0.5636340000000 1.0
C      1  0.5465850000000  0.5336140000000  0.4819570000000 1.0
C      1  0.5214840000000  0.5158150000000  0.6011540000000 1.0
C      1  0.5458990000000  0.4066510000000  0.5450930000000 1.0
C      1  0.5840590000000  0.4813060000000  0.5493010000000 1.0
C      1  0.4956750000000  0.5431940000000  0.5499300000000 1.0
C      1  0.5253070000000  0.4986270000000  0.5440810000000 1.0
C      1  0.5519590000000  0.5240550000000  0.4331700000000 1.0
C      1  0.4660250000000  0.4688940000000  0.5548480000000 1.0
C      1  0.4669300000000  0.4597060000000  0.5085050000000 1.0
C      1  0.5789100000000  0.5516640000000  0.5359060000000 1.0
C      1  0.4766850000000  0.4953160000000  0.5536740000000 1.0
C      1  0.4106620000000  0.5187760000000  0.5514960000000 1.0
C      1  0.4474570000000  0.4389490000000  0.4279690000000 1.0
C      1  0.5722650000000  0.5069960000000  0.5488510000000 1.0
C      1  0.5798030000000  0.4069130000000  0.5066840000000 1.0
C      1  0.4742260000000  0.4736930000000  0.6180280000000 1.0
C      1  0.6459320000000  0.4216800000000  0.4537160000000 1.0
C      1  0.4238210000000  0.4418620000000  0.4438620000000 1.0
C      1  0.4109650000000  0.4901080000000  0.4242450000000 1.0
C      1  0.5102830000000  0.6185060000000  0.5632940000000 1.0
C      1  0.4860360000000  0.4538590000000  0.4648440000000 1.0
C      1  0.5317320000000  0.4297380000000  0.5528720000000 1.0
C      1  0.4137530000000  0.5369010000000  0.5271230000000 1.0
C      1  0.5586600000000  0.4685550000000  0.4324600000000 1.0
C      1  0.4466460000000  0.6086160000000  0.5102930000000 1.0
C      1  0.4352830000000  0.4139950000000  0.4876220000000 1.0
C      1  0.4417890000000  0.6293790000000  0.5252750000000 1.0
C      1  0.5991800000000  0.4399070000000  0.4744950000000 1.0
C      1  0.5803040000000  0.4756590000000  0.5004990000000 1.0
C      1  0.4953110000000  0.4476430000000  0.5844480000000 1.0
C      1  0.5846400000000  0.4763250000000  0.4316220000000 1.0
C      1  0.5421280000000  0.4731790000000  0.4532270000000 1.0
C      1  0.5450940000000  0.4540630000000  0.5462550000000 1.0
C      1  0.4134630000000  0.5197170000000  0.5028690000000 1.0
C      1  0.4699400000000  0.5452100000000  0.4585880000000 1.0
C      1  0.4901210000000  0.4754110000000  0.5103550000000 1.0
C      1  0.4540200000000  0.4570340000000  0.5325910000000 1.0
C      1  0.4741500000000  0.5220210000000  0.4427040000000 1.0
C      1  0.4992790000000  0.5677650000000  0.4056360000000 1.0
C      1  0.5648130000000  0.4629020000000  0.5904420000000 1.0
C      1  0.5540110000000  0.5866480000000  0.4838000000000 1.0
C      1  0.4513820000000  0.4941940000000  0.4007840000000 1.0
C      1  0.4285920000000  0.5600490000000  0.5391630000000 1.0
C      1  0.5530610000000  0.4240410000000  0.4713600000000 1.0
C      1  0.4365290000000  0.5046160000000  0.4905130000000 1.0
C      1  0.4537610000000  0.5864050000000  0.4950560000000 1.0
C      1  0.5953130000000  0.4867930000000  0.4558320000000 1.0
C      1  0.4979000000000  0.6217390000000  0.4593510000000 1.0
C      1  0.4730940000000  0.5512030000000  0.5691930000000 1.0
C      1  0.4998490000000  0.5334850000000  0.6067160000000 1.0
C      1  0.4908920000000  0.6108370000000  0.4360510000000 1.0
C      1  0.5188490000000  0.5456960000000  0.4803810000000 1.0
C      1  0.5408380000000  0.5908540000000  0.5085970000000 1.0
C      1  0.4962540000000  0.5844700000000  0.5170600000000 1.0
C      1  0.4881250000000  0.4614060000000  0.3522890000000 1.0
C      1  0.5146710000000  0.3961170000000  0.4759420000000 1.0
C      1  0.4628310000000  0.5132100000000  0.4990410000000 1.0
C      1  0.4883880000000  0.3800550000000  0.5145380000000 1.0
C      1  0.6231610000000  0.4303050000000  0.4641530000000 1.0
C      1  0.4870270000000  0.5556490000000  0.5943500000000 1.0
C      1  0.4074470000000  0.4645650000000  0.4361500000000 1.0
C      1  0.5086830000000  0.5717520000000  0.5419710000000 1.0
C      1  0.4789730000000  0.5731650000000  0.4980970000000 1.0
C      1  0.4230380000000  0.4890450000000  0.3977100000000 1.0
C      1  0.4676400000000  0.4546820000000  0.5784610000000 1.0
C      1  0.4899500000000  0.4616540000000  0.4368850000000 1.0
C      1  0.4357650000000  0.4771870000000  0.4812030000000 1.0
C      1  0.5784820000000  0.4222990000000  0.4831560000000 1.0
C      1  0.5293270000000  0.5272470000000  0.4166220000000 1.0
C      1  0.4446170000000  0.5521920000000  0.5629600000000 1.0
C      1  0.4870120000000  0.5573290000000  0.3836000000000 1.0
C      1  0.5582350000000  0.5641630000000  0.5507030000000 1.0
C      1  0.4153220000000  0.4573470000000  0.4878580000000 1.0
C      1  0.4903320000000  0.5917490000000  0.4174480000000 1.0
C      1  0.5005730000000  0.5120480000000  0.5485340000000 1.0
C      1  0.5378050000000  0.5720600000000  0.4352500000000 1.0
C      1  0.4960040000000  0.5060920000000  0.4500900000000 1.0
C      1  0.5674850000000  0.4623190000000  0.5625100000000 1.0
C      1  0.5008620000000  0.4682740000000  0.6061800000000 1.0
C      1  0.3920320000000  0.4824220000000  0.5251320000000 1.0
C      1  0.4606040000000  0.5265180000000  0.5232710000000 1.0
C      1  0.5565290000000  0.5187490000000  0.5050890000000 1.0
C      1  0.4261130000000  0.5125200000000  0.4359260000000 1.0
C      1  0.5136780000000  0.4600390000000  0.5070040000000 1.0
C      1  0.4006560000000  0.4916670000000  0.5513550000000 1.0
C      1  0.5657170000000  0.3999410000000  0.5283510000000 1.0
C      1  0.5335040000000  0.4875140000000  0.4761320000000 1.0
C      1  0.5098480000000  0.4923040000000  0.3832630000000 1.0
C      1  0.5497120000000  0.5820930000000  0.4573810000000 1.0
C      1  0.4077320000000  0.4765960000000  0.5744990000000 1.0
C      1  0.5065390000000  0.5917190000000  0.5666960000000 1.0
C      1  0.6683350000000  0.4132500000000  0.4433890000000 1.0
C      1  0.4698590000000  0.4536580000000  0.4180450000000 1.0
C      1  0.5522170000000  0.4881270000000  0.5018050000000 1.0
C      1  0.5002130000000  0.5806120000000  0.5920800000000 1.0
C      1  0.5218140000000  0.5553620000000  0.4176550000000 1.0
C      1  0.4900460000000  0.5546600000000  0.4782330000000 1.0
C      1  0.4524750000000  0.4655120000000  0.6005890000000 1.0
C      1  0.4370250000000  0.5764460000000  0.4750540000000 1.0
C      1  0.5387420000000  0.5756030000000  0.5339430000000 1.0
C      1  0.5741500000000  0.5254520000000  0.5270410000000 1.0
C      1  0.5633640000000  0.5273040000000  0.4585710000000 1.0
C      1  0.5465110000000  0.5082950000000  0.5606380000000 1.0
C      1  0.5505330000000  0.5524270000000  0.5759810000000 1.0
C      1  0.4888020000000  0.4746930000000  0.3760620000000 1.0
C      1  0.5885980000000  0.5140220000000  0.4613740000000 1.0
C      1  0.4560280000000  0.5128220000000  0.5475660000000 1.0
C      1  0.5073380000000  0.5012300000000  0.4753400000000 1.0
C      1  0.5093360000000  0.4444480000000  0.4820220000000 1.0
C      1  0.4854460000000  0.4148860000000  0.5477510000000 1.0
C      1  0.5346540000000  0.4737400000000  0.5246440000000 1.0
C      1  0.4683860000000  0.4720330000000  0.3957930000000 1.0
C      1  0.5073060000000  0.6203400000000  0.4843010000000 1.0
C      1  0.5031910000000  0.4871590000000  0.4304860000000 1.0
C      1  0.5160190000000  0.5021600000000  0.4088550000000 1.0
C      1  0.5482000000000  0.4749180000000  0.6077400000000 1.0
C      1  0.5147720000000  0.6033880000000  0.5051210000000 1.0
C      1  0.5940840000000  0.4678910000000  0.4771600000000 1.0
C      1  0.4361230000000  0.5237630000000  0.5644490000000 1.0
C      1  0.3895990000000  0.5038320000000  0.5060440000000 1.0
C      1  0.4216440000000  0.4338510000000  0.4720760000000 1.0
C      1  0.4613720000000  0.4615650000000  0.4801700000000 1.0
C      1  0.4220590000000  0.5366580000000  0.4496690000000 1.0
C      1  0.4503590000000  0.4080840000000  0.5095290000000 1.0
C      1  0.5253520000000  0.4219910000000  0.4747840000000 1.0
C      1  0.4422390000000  0.5539360000000  0.4595680000000 1.0
C      1  0.5034600000000  0.3784850000000  0.4924990000000 1.0
C      1  0.5947550000000  0.4734080000000  0.5247700000000 1.0
C      1  0.4881790000000  0.4997840000000  0.4960960000000 1.0
END
