TITL C-612601-4209-591 32865.4637607864 125000 -481.5327211849 0 0 81 (C1) n - 1
REM
REM in /home/nfs/bkarasulu/CARBON/AIRSS/Generating-Clusters/TERSOFF/Only-C1/FIRE-HFTN
REM
REM
REM
REM
REM
REM ./C.cell (11c1c37f851c82e70ff6c80c92926a4b)
REM AIRSS Version 0.9.1 bugfix July 2018 build 013d7b7c2542+ Fri, 06 Jul 2018 19:26:36 +0100
REM compiler GCC version 9.2.1 20190827 (Red Hat 9.2.1-1)
REM options -cpp -mtune=generic -march=x86-64 -g -O0 -fpre-include=/usr/include/finclude/math-vector-fortran.h
REM seed 620995248 268063257 1066055533 1944883909 -1931483030 -340260388 554504246 596535008 1889448626 -1259902151 -502664732 -334715143 -1679746523 -943344071 1167954618 1817321560 -1349631318 -1258584560 -69939177 1406504813 -599338198 -1897211083 1217518209 1853791939 -1328136243 1383486345 -554665451 -658543266 -265853228 -97468513 -837494130 -1615141396 338135608
REM
CELL 1.54180   50.00000   50.00000   50.00000   90.00000   90.00000   90.00000
LATT -1
SFAC C  
C      1  0.4006040000000  0.5105380000000  0.5674810000000 1.0
C      1  0.4693190000000  0.4235870000000  0.5289920000000 1.0
C      1  0.4966730000000  0.4665770000000  0.4794360000000 1.0
C      1  0.4243400000000  0.5087820000000  0.5542750000000 1.0
C      1  0.4518390000000  0.5566900000000  0.5039090000000 1.0
C      1  0.5702410000000  0.4868510000000  0.5308550000000 1.0
C      1  0.4832020000000  0.4456110000000  0.4926190000000 1.0
C      1  0.5218930000000  0.4648830000000  0.4121520000000 1.0
C      1  0.5266570000000  0.4964900000000  0.5066840000000 1.0
C      1  0.4286110000000  0.4672010000000  0.4874030000000 1.0
C      1  0.4780770000000  0.3919390000000  0.4681650000000 1.0
C      1  0.4378730000000  0.4448910000000  0.4692290000000 1.0
C      1  0.4171450000000  0.5048640000000  0.4596770000000 1.0
C      1  0.4820880000000  0.5059190000000  0.4382750000000 1.0
C      1  0.4937190000000  0.4635500000000  0.4169070000000 1.0
C      1  0.5373420000000  0.5712550000000  0.5220500000000 1.0
C      1  0.4996680000000  0.4045190000000  0.4580440000000 1.0
C      1  0.4232460000000  0.5161210000000  0.5040200000000 1.0
C      1  0.5046930000000  0.4313410000000  0.4508290000000 1.0
C      1  0.5775210000000  0.5327410000000  0.5322650000000 1.0
C      1  0.4905980000000  0.4742730000000  0.5633300000000 1.0
C      1  0.5798250000000  0.5953780000000  0.5160440000000 1.0
C      1  0.5396620000000  0.5206620000000  0.5617010000000 1.0
C      1  0.5578730000000  0.4610100000000  0.5364770000000 1.0
C      1  0.5825620000000  0.4957700000000  0.5053790000000 1.0
C      1  0.5150120000000  0.5215930000000  0.5121520000000 1.0
C      1  0.5432740000000  0.4448910000000  0.4840070000000 1.0
C      1  0.4834420000000  0.4442440000000  0.4355160000000 1.0
C      1  0.4362450000000  0.5376940000000  0.4873150000000 1.0
C      1  0.5613820000000  0.5647750000000  0.4818510000000 1.0
C      1  0.5395900000000  0.5733570000000  0.4654340000000 1.0
C      1  0.5764080000000  0.5400970000000  0.4805520000000 1.0
C      1  0.4659500000000  0.5496060000000  0.5557520000000 1.0
C      1  0.5627660000000  0.5120140000000  0.5468070000000 1.0
C      1  0.4929840000000  0.4335510000000  0.5168840000000 1.0
C      1  0.5151610000000  0.5848510000000  0.4690110000000 1.0
C      1  0.4411500000000  0.4215920000000  0.4878460000000 1.0
C      1  0.4871430000000  0.5429800000000  0.4810850000000 1.0
C      1  0.5172970000000  0.4470300000000  0.5205990000000 1.0
C      1  0.4795600000000  0.4879590000000  0.4167620000000 1.0
C      1  0.4505130000000  0.5456510000000  0.5314910000000 1.0
C      1  0.5082210000000  0.5158480000000  0.4421550000000 1.0
C      1  0.5285580000000  0.5446160000000  0.5190190000000 1.0
C      1  0.5674500000000  0.4821340000000  0.4334820000000 1.0
C      1  0.4564780000000  0.4456700000000  0.4469290000000 1.0
C      1  0.5606770000000  0.5780480000000  0.5074710000000 1.0
C      1  0.5160800000000  0.4762970000000  0.5229930000000 1.0
C      1  0.5193400000000  0.4507430000000  0.4677730000000 1.0
C      1  0.5391700000000  0.4627270000000  0.5603680000000 1.0
C      1  0.4753130000000  0.5669280000000  0.4904610000000 1.0
C      1  0.4168310000000  0.4930030000000  0.4861410000000 1.0
C      1  0.4455360000000  0.4320600000000  0.5153210000000 1.0
C      1  0.5803380000000  0.4959490000000  0.4546110000000 1.0
C      1  0.4402770000000  0.5247640000000  0.4593040000000 1.0
C      1  0.5829170000000  0.5256960000000  0.5048970000000 1.0
C      1  0.4452110000000  0.4917650000000  0.5622820000000 1.0
C      1  0.4302630000000  0.5237440000000  0.5310770000000 1.0
C      1  0.5469650000000  0.4718800000000  0.4192620000000 1.0
C      1  0.4425820000000  0.4613080000000  0.5122310000000 1.0
C      1  0.5152290000000  0.5327100000000  0.5650200000000 1.0
C      1  0.5802090000000  0.5246190000000  0.4567790000000 1.0
C      1  0.4511490000000  0.5535630000000  0.5788350000000 1.0
C      1  0.4541360000000  0.3982390000000  0.4787580000000 1.0
C      1  0.5043380000000  0.5787510000000  0.5550800000000 1.0
C      1  0.4912710000000  0.5206300000000  0.4972840000000 1.0
C      1  0.4781650000000  0.4948720000000  0.4897510000000 1.0
C      1  0.5016150000000  0.6015890000000  0.5122340000000 1.0
C      1  0.4398350000000  0.5443000000000  0.4369000000000 1.0
C      1  0.4676740000000  0.4821810000000  0.5480330000000 1.0
C      1  0.4946490000000  0.5522500000000  0.5592690000000 1.0
C      1  0.5171620000000  0.5887490000000  0.5321250000000 1.0
C      1  0.5287920000000  0.5087950000000  0.4576500000000 1.0
C      1  0.4648350000000  0.5057900000000  0.4597660000000 1.0
C      1  0.5361650000000  0.4963390000000  0.4802640000000 1.0
C      1  0.5160620000000  0.4799560000000  0.5509600000000 1.0
C      1  0.4986660000000  0.4548460000000  0.5836020000000 1.0
C      1  0.4939040000000  0.5885420000000  0.4882640000000 1.0
C      1  0.5259560000000  0.4484260000000  0.5819140000000 1.0
C      1  0.5455980000000  0.4445630000000  0.5134440000000 1.0
C      1  0.5862340000000  0.4836860000000  0.4799190000000 1.0
C      1  0.4630020000000  0.4800950000000  0.5191100000000 1.0
END
