TITL C-612603-7354-1476 183091.938014074 125000 -717.360951899999 0 0 116 (C1) n - 1
REM
REM in /home/nfs/bkarasulu/CARBON/AIRSS/Generating-Clusters/TERSOFF/Only-C1/FIRE-HFTN
REM
REM
REM
REM
REM
REM ./C.cell (11c1c37f851c82e70ff6c80c92926a4b)
REM AIRSS Version 0.9.1 bugfix July 2018 build 013d7b7c2542+ Fri, 06 Jul 2018 19:26:36 +0100
REM compiler GCC version 9.2.1 20190827 (Red Hat 9.2.1-1)
REM options -cpp -mtune=generic -march=x86-64 -g -O0 -fpre-include=/usr/include/finclude/math-vector-fortran.h
REM seed 1675759913 1357063095 1838641017 78937986 1280009981 -819057787 -561063615 -761417878 -1281846490 1905710595 -578140770 2014658579 1109913926 -1590417294 -2053765106 1596209469 -1572250575 -414332659 750190851 1824448861 1201121298 83062911 -60610308 -1003433800 -1146105466 1438348080 -1389568575 -836287829 1277538801 -1142222251 971830519 -62887743 -1964458714
REM
CELL 1.54180   50.00000   50.00000   50.00000   90.00000   90.00000   90.00000
LATT -1
SFAC C  
C      1  0.5694290000000  0.5332340000000  0.5865960000000 1.0
C      1  0.4983310000000  0.5159080000000  0.4415080000000 1.0
C      1  0.5947370000000  0.5469030000000  0.5214140000000 1.0
C      1  0.5166810000000  0.4877130000000  0.4736590000000 1.0
C      1  0.5100360000000  0.5163260000000  0.5397210000000 1.0
C      1  0.5157200000000  0.5836510000000  0.5186760000000 1.0
C      1  0.4603240000000  0.5400960000000  0.4300530000000 1.0
C      1  0.5067010000000  0.4320660000000  0.4257140000000 1.0
C      1  0.5111580000000  0.4644460000000  0.4599900000000 1.0
C      1  0.3513050000000  0.5548620000000  0.4880380000000 1.0
C      1  0.4531120000000  0.4784610000000  0.4258610000000 1.0
C      1  0.4272440000000  0.5111740000000  0.5406630000000 1.0
C      1  0.4748100000000  0.5121490000000  0.5006060000000 1.0
C      1  0.4398190000000  0.4189770000000  0.5133580000000 1.0
C      1  0.4748090000000  0.4793620000000  0.5438770000000 1.0
C      1  0.4281760000000  0.5044140000000  0.4333510000000 1.0
C      1  0.4822380000000  0.4400450000000  0.4170550000000 1.0
C      1  0.5623190000000  0.4734140000000  0.4340810000000 1.0
C      1  0.5170620000000  0.5125820000000  0.4611540000000 1.0
C      1  0.4824040000000  0.5479210000000  0.4119760000000 1.0
C      1  0.5016530000000  0.4108560000000  0.4755210000000 1.0
C      1  0.5044990000000  0.6025980000000  0.4748010000000 1.0
C      1  0.4836870000000  0.5732090000000  0.5545260000000 1.0
C      1  0.5729060000000  0.5361690000000  0.4693530000000 1.0
C      1  0.4827060000000  0.4576590000000  0.5295370000000 1.0
C      1  0.4550230000000  0.5470880000000  0.5818170000000 1.0
C      1  0.5598930000000  0.5105630000000  0.5977010000000 1.0
C      1  0.4968160000000  0.4812210000000  0.4006230000000 1.0
C      1  0.5758190000000  0.5529070000000  0.5691080000000 1.0
C      1  0.4318260000000  0.4646210000000  0.4508590000000 1.0
C      1  0.4416150000000  0.5623030000000  0.5356060000000 1.0
C      1  0.3881350000000  0.4888090000000  0.4610190000000 1.0
C      1  0.4319240000000  0.4916930000000  0.5206110000000 1.0
C      1  0.5043970000000  0.4163710000000  0.5237320000000 1.0
C      1  0.5127970000000  0.4470980000000  0.5622540000000 1.0
C      1  0.4196640000000  0.4071680000000  0.4702970000000 1.0
C      1  0.5398540000000  0.6217400000000  0.5034200000000 1.0
C      1  0.5239700000000  0.4463140000000  0.4427840000000 1.0
C      1  0.4995660000000  0.5528400000000  0.4833260000000 1.0
C      1  0.5723550000000  0.5612560000000  0.5398890000000 1.0
C      1  0.5523670000000  0.4488580000000  0.4451800000000 1.0
C      1  0.4798440000000  0.4504940000000  0.5020810000000 1.0
C      1  0.4537760000000  0.4918280000000  0.5013620000000 1.0
C      1  0.5451740000000  0.4834430000000  0.5110940000000 1.0
C      1  0.5620180000000  0.4491220000000  0.5726970000000 1.0
C      1  0.4256480000000  0.5448960000000  0.4622920000000 1.0
C      1  0.4287830000000  0.4840160000000  0.5824520000000 1.0
C      1  0.4209780000000  0.4665390000000  0.5289840000000 1.0
C      1  0.4922340000000  0.6034000000000  0.4497980000000 1.0
C      1  0.5217400000000  0.4944360000000  0.5537720000000 1.0
C      1  0.4338220000000  0.5321600000000  0.4372090000000 1.0
C      1  0.5302670000000  0.4050720000000  0.5241880000000 1.0
C      1  0.4378050000000  0.4581410000000  0.5757680000000 1.0
C      1  0.5470740000000  0.5455290000000  0.5329410000000 1.0
C      1  0.5708010000000  0.5189980000000  0.4460920000000 1.0
C      1  0.5515090000000  0.4057520000000  0.5073400000000 1.0
C      1  0.5606950000000  0.4592410000000  0.5156360000000 1.0
C      1  0.5268040000000  0.4045720000000  0.4674960000000 1.0
C      1  0.5205520000000  0.5430630000000  0.5424600000000 1.0
C      1  0.5002020000000  0.5071840000000  0.5141500000000 1.0
C      1  0.5992770000000  0.5024630000000  0.4932720000000 1.0
C      1  0.5749560000000  0.4566190000000  0.4891750000000 1.0
C      1  0.4732840000000  0.5066910000000  0.6102410000000 1.0
C      1  0.4409060000000  0.4513530000000  0.4739720000000 1.0
C      1  0.5508920000000  0.4134830000000  0.4799910000000 1.0
C      1  0.5138210000000  0.4509360000000  0.5907550000000 1.0
C      1  0.5520160000000  0.5296620000000  0.5109990000000 1.0
C      1  0.4387630000000  0.5595080000000  0.5091120000000 1.0
C      1  0.5619630000000  0.5046070000000  0.5179830000000 1.0
C      1  0.4331850000000  0.4259670000000  0.4860000000000 1.0
C      1  0.5044250000000  0.5275990000000  0.4164870000000 1.0
C      1  0.4241360000000  0.5058170000000  0.5670950000000 1.0
C      1  0.4095800000000  0.3891710000000  0.4543970000000 1.0
C      1  0.4931010000000  0.4333890000000  0.5456560000000 1.0
C      1  0.5951270000000  0.5324170000000  0.4878100000000 1.0
C      1  0.5473580000000  0.4906700000000  0.4155740000000 1.0
C      1  0.5555520000000  0.4556050000000  0.5447840000000 1.0
C      1  0.5631530000000  0.4377250000000  0.4701730000000 1.0
C      1  0.4929980000000  0.4250470000000  0.4981180000000 1.0
C      1  0.6032140000000  0.5229790000000  0.5354810000000 1.0
C      1  0.5488630000000  0.5389010000000  0.4845910000000 1.0
C      1  0.5318930000000  0.5375790000000  0.4130980000000 1.0
C      1  0.5229040000000  0.5370790000000  0.4747930000000 1.0
C      1  0.5264960000000  0.5652020000000  0.4064400000000 1.0
C      1  0.4126900000000  0.4867950000000  0.4500700000000 1.0
C      1  0.4857540000000  0.4562470000000  0.5986170000000 1.0
C      1  0.4452480000000  0.5488890000000  0.4836730000000 1.0
C      1  0.4749120000000  0.5272240000000  0.4518900000000 1.0
C      1  0.4910460000000  0.5947980000000  0.4246000000000 1.0
C      1  0.5237540000000  0.4838660000000  0.4014100000000 1.0
C      1  0.5401730000000  0.5993450000000  0.5206660000000 1.0
C      1  0.5285830000000  0.4670160000000  0.5495340000000 1.0
C      1  0.5039390000000  0.5796810000000  0.4923480000000 1.0
C      1  0.4750730000000  0.4673190000000  0.4127840000000 1.0
C      1  0.4728620000000  0.5360830000000  0.4809630000000 1.0
C      1  0.4440290000000  0.4255460000000  0.5408830000000 1.0
C      1  0.5224620000000  0.6231600000000  0.4826880000000 1.0
C      1  0.5636860000000  0.5890230000000  0.5329210000000 1.0
C      1  0.3743360000000  0.5547780000000  0.4758920000000 1.0
C      1  0.5523090000000  0.5195310000000  0.4224350000000 1.0
C      1  0.4631460000000  0.4444370000000  0.5831270000000 1.0
C      1  0.4982210000000  0.5724330000000  0.4095080000000 1.0
C      1  0.5193710000000  0.4892790000000  0.5012580000000 1.0
C      1  0.4635050000000  0.5292570000000  0.5998350000000 1.0
C      1  0.5875820000000  0.4814550000000  0.4770850000000 1.0
C      1  0.5906960000000  0.5014840000000  0.5213490000000 1.0
C      1  0.5065220000000  0.5674510000000  0.5400970000000 1.0
C      1  0.4284780000000  0.4485460000000  0.5496480000000 1.0
C      1  0.4805280000000  0.4809920000000  0.6113830000000 1.0
C      1  0.4582310000000  0.5621790000000  0.5583610000000 1.0
C      1  0.4599050000000  0.4659060000000  0.4893110000000 1.0
C      1  0.3989480000000  0.5520790000000  0.4664150000000 1.0
C      1  0.5430220000000  0.4594220000000  0.5942160000000 1.0
C      1  0.5500490000000  0.4859370000000  0.6029150000000 1.0
C      1  0.4676930000000  0.4259720000000  0.5594700000000 1.0
C      1  0.5777750000000  0.4904710000000  0.4515270000000 1.0
END
