TITL C-612606-7351-1385 0.464196392683177 125000 -635.192417019849 0 0 106 (C1) n - 1
REM
REM in /home/nfs/bkarasulu/CARBON/AIRSS/Generating-Clusters/TERSOFF/Only-C1/FIRE-HFTN
REM
REM
REM
REM
REM
REM ./C.cell (11c1c37f851c82e70ff6c80c92926a4b)
REM AIRSS Version 0.9.1 bugfix July 2018 build 013d7b7c2542+ Fri, 06 Jul 2018 19:26:36 +0100
REM compiler GCC version 9.2.1 20190827 (Red Hat 9.2.1-1)
REM options -cpp -mtune=generic -march=x86-64 -g -O0 -fpre-include=/usr/include/finclude/math-vector-fortran.h
REM seed -1678272780 1515768713 -2021818978 473815628 1301652144 1838027781 1787920178 638297642 1365497355 2022988304 -1642445363 -1387337194 113158540 -1754887787 -1276599242 -260476296 646737294 2099859737 -1477609020 19801851 549869352 -525537273 -1275495912 -869548861 402521617 -610787675 1866015231 -2141762528 -525698195 1383759398 1537653128 849587274 -606641624
REM
CELL 1.54180   50.00000   50.00000   50.00000   90.00000   90.00000   90.00000
LATT -1
SFAC C  
C      1  0.4118180000000  0.4382080000000  0.4752590000000 1.0
C      1  0.4782100000000  0.4737640000000  0.5424180000000 1.0
C      1  0.5937450000000  0.5783400000000  0.6282460000000 1.0
C      1  0.4095730000000  0.5124390000000  0.4888070000000 1.0
C      1  0.4818160000000  0.4887020000000  0.5658670000000 1.0
C      1  0.5103410000000  0.5836300000000  0.4958950000000 1.0
C      1  0.5557760000000  0.4817040000000  0.4746500000000 1.0
C      1  0.5683090000000  0.5049450000000  0.4589220000000 1.0
C      1  0.5090230000000  0.4895840000000  0.5720590000000 1.0
C      1  0.4192620000000  0.4529650000000  0.5471930000000 1.0
C      1  0.5639270000000  0.5710340000000  0.5442890000000 1.0
C      1  0.5621410000000  0.5083870000000  0.5199370000000 1.0
C      1  0.4670190000000  0.4367610000000  0.4991040000000 1.0
C      1  0.4938500000000  0.5371940000000  0.5169870000000 1.0
C      1  0.5459580000000  0.3935280000000  0.4684130000000 1.0
C      1  0.4481500000000  0.5566120000000  0.4637650000000 1.0
C      1  0.5178740000000  0.5071960000000  0.4001880000000 1.0
C      1  0.4215920000000  0.4748820000000  0.5624030000000 1.0
C      1  0.4123090000000  0.4346170000000  0.5018500000000 1.0
C      1  0.4756300000000  0.5498470000000  0.5001410000000 1.0
C      1  0.5543510000000  0.5600800000000  0.5196810000000 1.0
C      1  0.4389810000000  0.5785120000000  0.5217050000000 1.0
C      1  0.5092670000000  0.5131610000000  0.4241310000000 1.0
C      1  0.4393490000000  0.5043560000000  0.4192410000000 1.0
C      1  0.5203630000000  0.3894200000000  0.4760240000000 1.0
C      1  0.5520570000000  0.6074070000000  0.5797440000000 1.0
C      1  0.4202580000000  0.4457100000000  0.4509760000000 1.0
C      1  0.4057850000000  0.5119840000000  0.4606550000000 1.0
C      1  0.5257600000000  0.4874810000000  0.5481220000000 1.0
C      1  0.5593200000000  0.5192150000000  0.4363180000000 1.0
C      1  0.4176090000000  0.5093610000000  0.4367000000000 1.0
C      1  0.4364890000000  0.5551480000000  0.4381700000000 1.0
C      1  0.4335690000000  0.4568550000000  0.4305960000000 1.0
C      1  0.4610500000000  0.5074220000000  0.5709740000000 1.0
C      1  0.6046020000000  0.5561100000000  0.6182380000000 1.0
C      1  0.5876950000000  0.5364490000000  0.4918250000000 1.0
C      1  0.5799650000000  0.4329070000000  0.4724800000000 1.0
C      1  0.5008230000000  0.4143460000000  0.5428180000000 1.0
C      1  0.5452900000000  0.4624590000000  0.5798990000000 1.0
C      1  0.4519740000000  0.4856050000000  0.4917290000000 1.0
C      1  0.5202670000000  0.4804950000000  0.6205220000000 1.0
C      1  0.4580280000000  0.5368410000000  0.4820580000000 1.0
C      1  0.4727290000000  0.5743180000000  0.4599130000000 1.0
C      1  0.5321860000000  0.4642040000000  0.4637170000000 1.0
C      1  0.5184800000000  0.4203570000000  0.5640970000000 1.0
C      1  0.5678720000000  0.4091920000000  0.4682700000000 1.0
C      1  0.4812770000000  0.5784650000000  0.4901510000000 1.0
C      1  0.5321120000000  0.4431400000000  0.4850420000000 1.0
C      1  0.5240610000000  0.4779420000000  0.5938420000000 1.0
C      1  0.4352270000000  0.4960630000000  0.5717120000000 1.0
C      1  0.6056760000000  0.5399820000000  0.5970050000000 1.0
C      1  0.5173310000000  0.5254730000000  0.4745970000000 1.0
C      1  0.5124750000000  0.4127530000000  0.5169360000000 1.0
C      1  0.4609420000000  0.5093890000000  0.4793100000000 1.0
C      1  0.4780960000000  0.4157380000000  0.4829630000000 1.0
C      1  0.4472270000000  0.4764310000000  0.4155240000000 1.0
C      1  0.4192420000000  0.5611180000000  0.5105100000000 1.0
C      1  0.5714450000000  0.4971010000000  0.5451390000000 1.0
C      1  0.4803180000000  0.5670020000000  0.4317610000000 1.0
C      1  0.4673670000000  0.4087900000000  0.4582130000000 1.0
C      1  0.5318310000000  0.4316430000000  0.5092360000000 1.0
C      1  0.4091190000000  0.5373690000000  0.5025900000000 1.0
C      1  0.4879050000000  0.5369060000000  0.5441360000000 1.0
C      1  0.5673900000000  0.5355240000000  0.5114180000000 1.0
C      1  0.4452930000000  0.5626390000000  0.5959900000000 1.0
C      1  0.4271270000000  0.4361710000000  0.5260010000000 1.0
C      1  0.5527720000000  0.5932580000000  0.5571430000000 1.0
C      1  0.5067870000000  0.5693410000000  0.4224940000000 1.0
C      1  0.4246450000000  0.4900830000000  0.4989820000000 1.0
C      1  0.4714880000000  0.4653090000000  0.4984240000000 1.0
C      1  0.5323140000000  0.5611590000000  0.4212070000000 1.0
C      1  0.5053530000000  0.4764270000000  0.4632000000000 1.0
C      1  0.4819040000000  0.4754930000000  0.4519600000000 1.0
C      1  0.4546400000000  0.5257070000000  0.4057970000000 1.0
C      1  0.5909840000000  0.5103160000000  0.5601740000000 1.0
C      1  0.5898000000000  0.5183240000000  0.4720220000000 1.0
C      1  0.5335950000000  0.4530250000000  0.4355860000000 1.0
C      1  0.5155100000000  0.4495740000000  0.4157280000000 1.0
C      1  0.5341340000000  0.5743530000000  0.5051880000000 1.0
C      1  0.4695460000000  0.4710800000000  0.3977870000000 1.0
C      1  0.5379910000000  0.4354580000000  0.5749950000000 1.0
C      1  0.4614570000000  0.3989690000000  0.4343210000000 1.0
C      1  0.5524980000000  0.4797690000000  0.5570740000000 1.0
C      1  0.5197610000000  0.4831420000000  0.5198530000000 1.0
C      1  0.5771970000000  0.5986420000000  0.6231120000000 1.0
C      1  0.5955810000000  0.5356490000000  0.5712850000000 1.0
C      1  0.4917060000000  0.4546930000000  0.4042170000000 1.0
C      1  0.4544090000000  0.4280110000000  0.5238160000000 1.0
C      1  0.4724690000000  0.4172110000000  0.5428870000000 1.0
C      1  0.5511880000000  0.5425590000000  0.4256560000000 1.0
C      1  0.5613050000000  0.6095850000000  0.6046760000000 1.0
C      1  0.4671730000000  0.5341990000000  0.5632320000000 1.0
C      1  0.5445070000000  0.4906750000000  0.5038270000000 1.0
C      1  0.5144610000000  0.5269860000000  0.5011960000000 1.0
C      1  0.4665480000000  0.5170210000000  0.3816540000000 1.0
C      1  0.4519560000000  0.5572510000000  0.5700480000000 1.0
C      1  0.4442390000000  0.5745190000000  0.5491480000000 1.0
C      1  0.4559420000000  0.3905300000000  0.4102810000000 1.0
C      1  0.5009970000000  0.4014710000000  0.4930790000000 1.0
C      1  0.4919540000000  0.4741730000000  0.5170910000000 1.0
C      1  0.5775970000000  0.4594320000000  0.4770020000000 1.0
C      1  0.4578630000000  0.5508700000000  0.4189040000000 1.0
C      1  0.5848240000000  0.5575650000000  0.5573890000000 1.0
C      1  0.4723310000000  0.4907940000000  0.3773600000000 1.0
C      1  0.5097290000000  0.5216460000000  0.4493900000000 1.0
C      1  0.4589400000000  0.5923610000000  0.5057460000000 1.0
END
