TITL C-612604-1799-779 2.05514107045777 125000 -364.1882379148 0 0 62 (C1) n - 1
REM
REM in /home/nfs/bkarasulu/CARBON/AIRSS/Generating-Clusters/TERSOFF/Only-C1/FIRE-HFTN
REM
REM
REM
REM
REM
REM ./C.cell (11c1c37f851c82e70ff6c80c92926a4b)
REM AIRSS Version 0.9.1 bugfix July 2018 build 013d7b7c2542+ Fri, 06 Jul 2018 19:26:36 +0100
REM compiler GCC version 9.2.1 20190827 (Red Hat 9.2.1-1)
REM options -cpp -mtune=generic -march=x86-64 -g -O0 -fpre-include=/usr/include/finclude/math-vector-fortran.h
REM seed -1235273772 -380782437 -2129771254 -1555454765 -267815209 421641085 -430569067 471072881 -1386893442 320815944 1733624755 167777799 -1231202883 689072684 751849998 -1297475665 -1840905315 -1026834364 8346989 907197066 -793017962 -812139867 -1790939763 -957463068 758149583 -1330469047 -1262352336 973774504 1115857344 1920820960 1567133416 1299434538 879793154
REM
CELL 1.54180   50.00000   50.00000   50.00000   90.00000   90.00000   90.00000
LATT -1
SFAC C  
C      1  0.4721690000000  0.4868670000000  0.5155110000000 1.0
C      1  0.5706010000000  0.5544580000000  0.4592750000000 1.0
C      1  0.5504090000000  0.5081010000000  0.4483570000000 1.0
C      1  0.4143750000000  0.4430700000000  0.5350720000000 1.0
C      1  0.4363520000000  0.4819010000000  0.4345070000000 1.0
C      1  0.4001530000000  0.4769120000000  0.4982270000000 1.0
C      1  0.5035890000000  0.5324110000000  0.5316720000000 1.0
C      1  0.4467110000000  0.5621230000000  0.4705990000000 1.0
C      1  0.5621620000000  0.5716420000000  0.4798310000000 1.0
C      1  0.5737480000000  0.5684880000000  0.5051750000000 1.0
C      1  0.4766430000000  0.4518820000000  0.5721430000000 1.0
C      1  0.5199680000000  0.5231920000000  0.5530820000000 1.0
C      1  0.4593070000000  0.5077250000000  0.5293140000000 1.0
C      1  0.5584950000000  0.4816780000000  0.4442600000000 1.0
C      1  0.4917420000000  0.4705370000000  0.5859640000000 1.0
C      1  0.4339820000000  0.5061900000000  0.5391550000000 1.0
C      1  0.5443320000000  0.4679020000000  0.5205060000000 1.0
C      1  0.4180950000000  0.4833010000000  0.4538040000000 1.0
C      1  0.5713320000000  0.4151970000000  0.4165780000000 1.0
C      1  0.5090930000000  0.5149040000000  0.5774750000000 1.0
C      1  0.4560880000000  0.5570380000000  0.4446660000000 1.0
C      1  0.5006750000000  0.5053910000000  0.6486250000000 1.0
C      1  0.5233950000000  0.5132400000000  0.4558390000000 1.0
C      1  0.4095700000000  0.4940880000000  0.4782570000000 1.0
C      1  0.5909390000000  0.4638770000000  0.5031400000000 1.0
C      1  0.5383730000000  0.5862580000000  0.4771230000000 1.0
C      1  0.5507080000000  0.4485870000000  0.4780990000000 1.0
C      1  0.5027670000000  0.5083760000000  0.4376780000000 1.0
C      1  0.5581620000000  0.4545600000000  0.4516250000000 1.0
C      1  0.5754910000000  0.5538770000000  0.5273560000000 1.0
C      1  0.4476580000000  0.4515700000000  0.5720010000000 1.0
C      1  0.4439070000000  0.5967090000000  0.5049600000000 1.0
C      1  0.4673040000000  0.5392300000000  0.4283930000000 1.0
C      1  0.5676030000000  0.5302340000000  0.4484520000000 1.0
C      1  0.5776590000000  0.3958380000000  0.3996140000000 1.0
C      1  0.4019700000000  0.4581980000000  0.5170380000000 1.0
C      1  0.5649830000000  0.4345130000000  0.4335530000000 1.0
C      1  0.4587530000000  0.4921450000000  0.4243640000000 1.0
C      1  0.5245120000000  0.4410880000000  0.4875000000000 1.0
C      1  0.4604060000000  0.4226270000000  0.5398340000000 1.0
C      1  0.4588810000000  0.5826980000000  0.4860000000000 1.0
C      1  0.5490670000000  0.4880400000000  0.5390010000000 1.0
C      1  0.5004840000000  0.4953600000000  0.5955950000000 1.0
C      1  0.5136980000000  0.5337940000000  0.5054840000000 1.0
C      1  0.4756980000000  0.5300290000000  0.5343890000000 1.0
C      1  0.5663060000000  0.5338530000000  0.5422880000000 1.0
C      1  0.5640780000000  0.4605350000000  0.5006570000000 1.0
C      1  0.4859610000000  0.5890300000000  0.4820990000000 1.0
C      1  0.5122250000000  0.5910380000000  0.4784370000000 1.0
C      1  0.4368260000000  0.4363230000000  0.5498060000000 1.0
C      1  0.4771530000000  0.5129760000000  0.4276290000000 1.0
C      1  0.5180710000000  0.5248720000000  0.4808110000000 1.0
C      1  0.4297500000000  0.6090550000000  0.5230250000000 1.0
C      1  0.4143650000000  0.5213770000000  0.4829970000000 1.0
C      1  0.4849960000000  0.4336780000000  0.5506860000000 1.0
C      1  0.5169430000000  0.4546590000000  0.5139560000000 1.0
C      1  0.4947200000000  0.4740230000000  0.5094170000000 1.0
C      1  0.5005950000000  0.5005620000000  0.6230140000000 1.0
C      1  0.4274890000000  0.5444970000000  0.4810760000000 1.0
C      1  0.5463630000000  0.5148030000000  0.5466350000000 1.0
C      1  0.5082710000000  0.4360730000000  0.5354420000000 1.0
C      1  0.5838810000000  0.3767970000000  0.3829290000000 1.0
END
