TITL C-612601-4209-964 1.34346385081379 125000 -571.570063647863 0 0 93 (C1) n - 1
REM
REM in /home/nfs/bkarasulu/CARBON/AIRSS/Generating-Clusters/TERSOFF/Only-C1/FIRE-HFTN
REM
REM
REM
REM
REM
REM ./C.cell (11c1c37f851c82e70ff6c80c92926a4b)
REM AIRSS Version 0.9.1 bugfix July 2018 build 013d7b7c2542+ Fri, 06 Jul 2018 19:26:36 +0100
REM compiler GCC version 9.2.1 20190827 (Red Hat 9.2.1-1)
REM options -cpp -mtune=generic -march=x86-64 -g -O0 -fpre-include=/usr/include/finclude/math-vector-fortran.h
REM seed -1170676734 144238238 -1374178638 700040304 -1024322131 1715339317 -720504043 1830282991 -1254972452 -1150156868 -513826082 -226076921 469441715 -1924679503 601962086 781260861 1738641358 1797347302 -2079773771 764583104 2121299165 565126263 1823805936 -616015700 660034428 68984996 511626098 48285995 -1042107796 1405411424 555342570 609955071 76887969
REM
CELL 1.54180   50.00000   50.00000   50.00000   90.00000   90.00000   90.00000
LATT -1
SFAC C  
C      1  0.5319290000000  0.4805250000000  0.4897710000000 1.0
C      1  0.4272200000000  0.3591590000000  0.4346410000000 1.0
C      1  0.4639490000000  0.4920250000000  0.5686900000000 1.0
C      1  0.5696580000000  0.4550030000000  0.5073560000000 1.0
C      1  0.5524950000000  0.5400100000000  0.5152110000000 1.0
C      1  0.5676210000000  0.4940280000000  0.5672900000000 1.0
C      1  0.5668650000000  0.4619240000000  0.4301550000000 1.0
C      1  0.5411980000000  0.4258040000000  0.4564100000000 1.0
C      1  0.4468620000000  0.5199880000000  0.4470420000000 1.0
C      1  0.5459040000000  0.4558750000000  0.4927580000000 1.0
C      1  0.5325170000000  0.5303220000000  0.4978960000000 1.0
C      1  0.5444830000000  0.5390450000000  0.5722810000000 1.0
C      1  0.3994820000000  0.4657250000000  0.5379480000000 1.0
C      1  0.4254980000000  0.5388830000000  0.5572750000000 1.0
C      1  0.5143760000000  0.5691950000000  0.5472150000000 1.0
C      1  0.4948640000000  0.4593720000000  0.5423670000000 1.0
C      1  0.4616970000000  0.5653710000000  0.5463540000000 1.0
C      1  0.4766980000000  0.4715600000000  0.4916210000000 1.0
C      1  0.5397100000000  0.4551910000000  0.5857530000000 1.0
C      1  0.5102770000000  0.4211870000000  0.4974090000000 1.0
C      1  0.4591260000000  0.4206240000000  0.5042050000000 1.0
C      1  0.5267590000000  0.5774510000000  0.4238030000000 1.0
C      1  0.4823870000000  0.5807500000000  0.4425960000000 1.0
C      1  0.4299290000000  0.3945480000000  0.4739840000000 1.0
C      1  0.4228440000000  0.5449230000000  0.5290800000000 1.0
C      1  0.5012310000000  0.5659420000000  0.4264550000000 1.0
C      1  0.5547580000000  0.5111850000000  0.4424060000000 1.0
C      1  0.4674960000000  0.6011000000000  0.4320990000000 1.0
C      1  0.5137390000000  0.4188000000000  0.5256550000000 1.0
C      1  0.4668630000000  0.5277240000000  0.4619480000000 1.0
C      1  0.5263900000000  0.4372800000000  0.5709270000000 1.0
C      1  0.5069210000000  0.5112830000000  0.4250470000000 1.0
C      1  0.4262460000000  0.3419440000000  0.4150880000000 1.0
C      1  0.3987240000000  0.4458960000000  0.5198870000000 1.0
C      1  0.4331470000000  0.4140820000000  0.4935750000000 1.0
C      1  0.5497630000000  0.5752520000000  0.4370920000000 1.0
C      1  0.5055480000000  0.5048070000000  0.5537160000000 1.0
C      1  0.4227070000000  0.5949040000000  0.4889010000000 1.0
C      1  0.6148970000000  0.5248280000000  0.5057540000000 1.0
C      1  0.4108010000000  0.4276370000000  0.5044610000000 1.0
C      1  0.5106230000000  0.5370380000000  0.4838840000000 1.0
C      1  0.5525420000000  0.4787300000000  0.5854290000000 1.0
C      1  0.5621300000000  0.5209710000000  0.5595520000000 1.0
C      1  0.5326330000000  0.4323070000000  0.4824990000000 1.0
C      1  0.5267910000000  0.5054810000000  0.4451650000000 1.0
C      1  0.4929420000000  0.4882610000000  0.4156890000000 1.0
C      1  0.4159080000000  0.4788590000000  0.5548700000000 1.0
C      1  0.4779150000000  0.5174620000000  0.5167360000000 1.0
C      1  0.4707500000000  0.5863230000000  0.4932870000000 1.0
C      1  0.4868780000000  0.5762670000000  0.5392230000000 1.0
C      1  0.5838110000000  0.4636980000000  0.5281490000000 1.0
C      1  0.4430060000000  0.4737170000000  0.5607440000000 1.0
C      1  0.4527890000000  0.5440020000000  0.5655460000000 1.0
C      1  0.5977390000000  0.5266150000000  0.5260540000000 1.0
C      1  0.5181700000000  0.5482880000000  0.5665840000000 1.0
C      1  0.5531180000000  0.5683770000000  0.5112060000000 1.0
C      1  0.5610860000000  0.5609560000000  0.4583900000000 1.0
C      1  0.4797760000000  0.4267420000000  0.4589940000000 1.0
C      1  0.5332970000000  0.5818590000000  0.5268520000000 1.0
C      1  0.5614710000000  0.5735710000000  0.4842750000000 1.0
C      1  0.4436460000000  0.5834210000000  0.5020420000000 1.0
C      1  0.4905440000000  0.4811060000000  0.5606300000000 1.0
C      1  0.4887310000000  0.5923330000000  0.5143820000000 1.0
C      1  0.4913350000000  0.4783150000000  0.4679590000000 1.0
C      1  0.4513280000000  0.4836650000000  0.4944680000000 1.0
C      1  0.4282740000000  0.3767040000000  0.4544810000000 1.0
C      1  0.5184380000000  0.4871490000000  0.4654110000000 1.0
C      1  0.4983460000000  0.5276810000000  0.5693190000000 1.0
C      1  0.5152400000000  0.4871300000000  0.5115090000000 1.0
C      1  0.5106310000000  0.4362020000000  0.5477740000000 1.0
C      1  0.4578650000000  0.4305640000000  0.5309720000000 1.0
C      1  0.5707960000000  0.5286630000000  0.5334180000000 1.0
C      1  0.5554700000000  0.4388630000000  0.4376900000000 1.0
C      1  0.4858670000000  0.5448700000000  0.4733590000000 1.0
C      1  0.5688700000000  0.4886190000000  0.4322010000000 1.0
C      1  0.4848480000000  0.4630070000000  0.4208240000000 1.0
C      1  0.4800060000000  0.5726370000000  0.4699160000000 1.0
C      1  0.5967680000000  0.5285500000000  0.4594100000000 1.0
C      1  0.4829480000000  0.4209500000000  0.4868630000000 1.0
C      1  0.5697830000000  0.5337770000000  0.4529090000000 1.0
C      1  0.5040810000000  0.5090280000000  0.5257710000000 1.0
C      1  0.4292210000000  0.4747640000000  0.4812720000000 1.0
C      1  0.4285490000000  0.5235560000000  0.5118480000000 1.0
C      1  0.4511530000000  0.4478100000000  0.5506580000000 1.0
C      1  0.5841360000000  0.4787480000000  0.5501550000000 1.0
C      1  0.4694400000000  0.5223000000000  0.5733150000000 1.0
C      1  0.4805970000000  0.4413740000000  0.4363710000000 1.0
C      1  0.4520960000000  0.5086430000000  0.5080480000000 1.0
C      1  0.4935500000000  0.4672900000000  0.5146940000000 1.0
C      1  0.6144340000000  0.5253010000000  0.4790820000000 1.0
C      1  0.4995230000000  0.5382180000000  0.4201780000000 1.0
C      1  0.5160340000000  0.6001400000000  0.5122420000000 1.0
C      1  0.4404990000000  0.5679470000000  0.5255790000000 1.0
END
