TITL C-612600-6631-400 6379.35874739498 125000 -1190.70723283238 0 0 192 (C1) n - 1
REM
REM in /home/nfs/bkarasulu/CARBON/AIRSS/Generating-Clusters/TERSOFF/Only-C1/FIRE-HFTN
REM
REM
REM
REM
REM
REM ./C.cell (11c1c37f851c82e70ff6c80c92926a4b)
REM AIRSS Version 0.9.1 bugfix July 2018 build 013d7b7c2542+ Fri, 06 Jul 2018 19:26:36 +0100
REM compiler GCC version 9.2.1 20190827 (Red Hat 9.2.1-1)
REM options -cpp -mtune=generic -march=x86-64 -g -O0 -fpre-include=/usr/include/finclude/math-vector-fortran.h
REM seed -2051941537 1511188985 307180340 -1363157852 -1207599628 791548097 336418230 1650010007 -1154630320 1425937560 678135506 670911149 -790650386 -252014653 953691413 -977054867 -179292449 1457624969 -1486642788 1456998505 1110167391 -1856438862 -1734111431 -66843563 764513503 1089384450 996787076 -1794193297 -1773532622 898662671 436349217 -503050233 -7726952
REM
CELL 1.54180   50.00000   50.00000   50.00000   90.00000   90.00000   90.00000
LATT -1
SFAC C  
C      1  0.5065280000000  0.5276060000000  0.4804320000000 1.0
C      1  0.4731910000000  0.5971820000000  0.4762980000000 1.0
C      1  0.5820570000000  0.6168890000000  0.5975650000000 1.0
C      1  0.5034170000000  0.4106670000000  0.6059900000000 1.0
C      1  0.4087280000000  0.4971630000000  0.4303450000000 1.0
C      1  0.4824020000000  0.3947830000000  0.5600840000000 1.0
C      1  0.4996190000000  0.5759440000000  0.5306380000000 1.0
C      1  0.4411340000000  0.4440310000000  0.5046080000000 1.0
C      1  0.4474230000000  0.4559080000000  0.5502850000000 1.0
C      1  0.4813880000000  0.5938370000000  0.4245350000000 1.0
C      1  0.4879230000000  0.4705920000000  0.5718320000000 1.0
C      1  0.5189600000000  0.3992220000000  0.6252390000000 1.0
C      1  0.4608960000000  0.4862510000000  0.6289190000000 1.0
C      1  0.4951750000000  0.4373780000000  0.6074270000000 1.0
C      1  0.5450700000000  0.4995710000000  0.4887380000000 1.0
C      1  0.5408620000000  0.5478250000000  0.5970380000000 1.0
C      1  0.4284350000000  0.4782700000000  0.5574920000000 1.0
C      1  0.3962290000000  0.4936180000000  0.5197370000000 1.0
C      1  0.4241820000000  0.5210570000000  0.4264520000000 1.0
C      1  0.4698640000000  0.5549020000000  0.4482080000000 1.0
C      1  0.4770530000000  0.6238150000000  0.4863300000000 1.0
C      1  0.5154920000000  0.4643390000000  0.3811550000000 1.0
C      1  0.4777680000000  0.5997780000000  0.5854090000000 1.0
C      1  0.5560450000000  0.5092880000000  0.6202990000000 1.0
C      1  0.5883360000000  0.4168440000000  0.4909910000000 1.0
C      1  0.5726600000000  0.5037390000000  0.5991080000000 1.0
C      1  0.4866770000000  0.5190880000000  0.5645360000000 1.0
C      1  0.4777670000000  0.5647800000000  0.5182230000000 1.0
C      1  0.4685640000000  0.4787670000000  0.3904330000000 1.0
C      1  0.5876170000000  0.4797220000000  0.4874560000000 1.0
C      1  0.5601630000000  0.5408300000000  0.5010170000000 1.0
C      1  0.5205720000000  0.5490640000000  0.5773150000000 1.0
C      1  0.4786210000000  0.5296730000000  0.4887080000000 1.0
C      1  0.5119960000000  0.5313260000000  0.3894020000000 1.0
C      1  0.4128150000000  0.4077500000000  0.4857760000000 1.0
C      1  0.5583630000000  0.5229190000000  0.4760440000000 1.0
C      1  0.6361180000000  0.4728140000000  0.4575830000000 1.0
C      1  0.5929030000000  0.4170820000000  0.4642810000000 1.0
C      1  0.4759530000000  0.6060080000000  0.5578520000000 1.0
C      1  0.4606050000000  0.3748310000000  0.4928250000000 1.0
C      1  0.5280630000000  0.3855110000000  0.5233540000000 1.0
C      1  0.3927650000000  0.4775490000000  0.4725670000000 1.0
C      1  0.6184230000000  0.4855360000000  0.5476420000000 1.0
C      1  0.5122900000000  0.4306300000000  0.5229690000000 1.0
C      1  0.5122990000000  0.5780360000000  0.4629250000000 1.0
C      1  0.5016380000000  0.4795080000000  0.5085850000000 1.0
C      1  0.4692370000000  0.4996850000000  0.4380090000000 1.0
C      1  0.6303540000000  0.4886730000000  0.5214950000000 1.0
C      1  0.4828820000000  0.4634020000000  0.4884510000000 1.0
C      1  0.5429690000000  0.4535890000000  0.4926660000000 1.0
C      1  0.4240140000000  0.5698780000000  0.5172080000000 1.0
C      1  0.4783800000000  0.3763760000000  0.5151330000000 1.0
C      1  0.4583800000000  0.4791770000000  0.4795670000000 1.0
C      1  0.4393640000000  0.4288970000000  0.5562720000000 1.0
C      1  0.5939500000000  0.5467760000000  0.5313470000000 1.0
C      1  0.5348060000000  0.4125550000000  0.5281750000000 1.0
C      1  0.4947070000000  0.3964970000000  0.5834810000000 1.0
C      1  0.6345910000000  0.4602260000000  0.4814370000000 1.0
C      1  0.3979440000000  0.4800260000000  0.5638520000000 1.0
C      1  0.4577110000000  0.4769770000000  0.4503870000000 1.0
C      1  0.5494870000000  0.5520520000000  0.4333720000000 1.0
C      1  0.4198870000000  0.5051340000000  0.5980300000000 1.0
C      1  0.3947810000000  0.4468930000000  0.5292250000000 1.0
C      1  0.6261930000000  0.4619350000000  0.5084800000000 1.0
C      1  0.3992970000000  0.4521350000000  0.4835490000000 1.0
C      1  0.4323920000000  0.5382490000000  0.4799810000000 1.0
C      1  0.4498890000000  0.6018830000000  0.5467130000000 1.0
C      1  0.4974420000000  0.5011760000000  0.4413520000000 1.0
C      1  0.5664800000000  0.5475430000000  0.5818250000000 1.0
C      1  0.6208680000000  0.5112580000000  0.5065690000000 1.0
C      1  0.5507740000000  0.4984420000000  0.4310050000000 1.0
C      1  0.4567570000000  0.4566560000000  0.4050560000000 1.0
C      1  0.4807450000000  0.4580500000000  0.5956560000000 1.0
C      1  0.5802640000000  0.5948100000000  0.5838410000000 1.0
C      1  0.5021770000000  0.6286470000000  0.4998620000000 1.0
C      1  0.5243850000000  0.4581590000000  0.5169960000000 1.0
C      1  0.4711370000000  0.5424090000000  0.4215170000000 1.0
C      1  0.4386050000000  0.4859560000000  0.5858770000000 1.0
C      1  0.5677400000000  0.5078370000000  0.3879250000000 1.0
C      1  0.4095530000000  0.5774440000000  0.4673350000000 1.0
C      1  0.5763280000000  0.5716180000000  0.5687840000000 1.0
C      1  0.5893870000000  0.4262640000000  0.4388350000000 1.0
C      1  0.5307930000000  0.5476340000000  0.5514750000000 1.0
C      1  0.5436240000000  0.5255250000000  0.4471460000000 1.0
C      1  0.4374770000000  0.4417700000000  0.6053460000000 1.0
C      1  0.5592650000000  0.4293310000000  0.5320790000000 1.0
C      1  0.5229500000000  0.5614790000000  0.5306030000000 1.0
C      1  0.5730040000000  0.5196210000000  0.5751220000000 1.0
C      1  0.4139870000000  0.5474580000000  0.4291840000000 1.0
C      1  0.4152550000000  0.5739810000000  0.4395280000000 1.0
C      1  0.4520250000000  0.6340990000000  0.4955450000000 1.0
C      1  0.4736230000000  0.4289820000000  0.4426210000000 1.0
C      1  0.4331390000000  0.4253730000000  0.5838850000000 1.0
C      1  0.4301140000000  0.5936650000000  0.4256840000000 1.0
C      1  0.5169960000000  0.6166090000000  0.5216440000000 1.0
C      1  0.6207930000000  0.5139330000000  0.4276700000000 1.0
C      1  0.5014210000000  0.5105880000000  0.3721420000000 1.0
C      1  0.5320860000000  0.4479200000000  0.3969400000000 1.0
C      1  0.5155050000000  0.5566260000000  0.4814500000000 1.0
C      1  0.4536670000000  0.5178140000000  0.4192600000000 1.0
C      1  0.4933810000000  0.5420810000000  0.5794270000000 1.0
C      1  0.5710110000000  0.5286040000000  0.5262570000000 1.0
C      1  0.6021940000000  0.5041970000000  0.4856680000000 1.0
C      1  0.4735990000000  0.4670380000000  0.5478810000000 1.0
C      1  0.4986980000000  0.6026250000000  0.5401710000000 1.0
C      1  0.4541500000000  0.4673350000000  0.6059500000000 1.0
C      1  0.5449400000000  0.6057500000000  0.5199140000000 1.0
C      1  0.5381120000000  0.4763210000000  0.4428950000000 1.0
C      1  0.4165840000000  0.4051680000000  0.5168940000000 1.0
C      1  0.4318160000000  0.6197430000000  0.5070590000000 1.0
C      1  0.6013740000000  0.5350700000000  0.4267130000000 1.0
C      1  0.4285740000000  0.4959390000000  0.5302760000000 1.0
C      1  0.5011160000000  0.4580520000000  0.4656210000000 1.0
C      1  0.3995020000000  0.4741400000000  0.4442630000000 1.0
C      1  0.3701690000000  0.5072250000000  0.5950310000000 1.0
C      1  0.4330440000000  0.4431990000000  0.3973260000000 1.0
C      1  0.5571720000000  0.5751120000000  0.4480640000000 1.0
C      1  0.4972030000000  0.5169140000000  0.3456690000000 1.0
C      1  0.5407110000000  0.4378960000000  0.4692800000000 1.0
C      1  0.4327880000000  0.5219620000000  0.6168610000000 1.0
C      1  0.5175750000000  0.5032580000000  0.4954150000000 1.0
C      1  0.4932700000000  0.5496700000000  0.4035020000000 1.0
C      1  0.4541910000000  0.5031750000000  0.3933270000000 1.0
C      1  0.4320680000000  0.5973080000000  0.5248890000000 1.0
C      1  0.4413910000000  0.5216100000000  0.5392980000000 1.0
C      1  0.5354540000000  0.5913880000000  0.4545450000000 1.0
C      1  0.6176810000000  0.5363980000000  0.5199680000000 1.0
C      1  0.5116160000000  0.3677700000000  0.4808240000000 1.0
C      1  0.5681350000000  0.5085150000000  0.5478220000000 1.0
C      1  0.4852270000000  0.4229700000000  0.5179300000000 1.0
C      1  0.5131060000000  0.5220320000000  0.4518920000000 1.0
C      1  0.4228690000000  0.5123760000000  0.4850160000000 1.0
C      1  0.5590240000000  0.4580280000000  0.4042810000000 1.0
C      1  0.5600870000000  0.4761320000000  0.4902600000000 1.0
C      1  0.4588350000000  0.5149360000000  0.6274090000000 1.0
C      1  0.4126510000000  0.4365000000000  0.4138230000000 1.0
C      1  0.4045670000000  0.4297070000000  0.4657480000000 1.0
C      1  0.6038170000000  0.4489930000000  0.5239130000000 1.0
C      1  0.5693760000000  0.5680590000000  0.4941750000000 1.0
C      1  0.4418330000000  0.4941170000000  0.4971010000000 1.0
C      1  0.4195650000000  0.5624080000000  0.4891600000000 1.0
C      1  0.5095050000000  0.5274920000000  0.6306620000000 1.0
C      1  0.6313530000000  0.4920160000000  0.4392860000000 1.0
C      1  0.5687390000000  0.4787800000000  0.5450310000000 1.0
C      1  0.4291390000000  0.5473430000000  0.5349290000000 1.0
C      1  0.5703740000000  0.4440220000000  0.4277870000000 1.0
C      1  0.4952260000000  0.4835970000000  0.3807140000000 1.0
C      1  0.5880910000000  0.5226860000000  0.4699350000000 1.0
C      1  0.4041990000000  0.4444670000000  0.4395040000000 1.0
C      1  0.4809210000000  0.4879950000000  0.5292030000000 1.0
C      1  0.5070820000000  0.3726810000000  0.5087690000000 1.0
C      1  0.5569960000000  0.5502570000000  0.4066620000000 1.0
C      1  0.5407300000000  0.5332240000000  0.3904430000000 1.0
C      1  0.5956500000000  0.4680490000000  0.5453890000000 1.0
C      1  0.5143050000000  0.4323220000000  0.4612630000000 1.0
C      1  0.4797830000000  0.5514460000000  0.6024190000000 1.0
C      1  0.4844250000000  0.5824890000000  0.4526000000000 1.0
C      1  0.5176870000000  0.4285060000000  0.4127320000000 1.0
C      1  0.4712450000000  0.3995370000000  0.5329910000000 1.0
C      1  0.5946440000000  0.5457210000000  0.4539030000000 1.0
C      1  0.4136450000000  0.4503090000000  0.5072580000000 1.0
C      1  0.5524720000000  0.4525880000000  0.4480890000000 1.0
C      1  0.5105010000000  0.4771730000000  0.4474760000000 1.0
C      1  0.4957670000000  0.5784310000000  0.4047320000000 1.0
C      1  0.4594240000000  0.5402440000000  0.4706860000000 1.0
C      1  0.4667260000000  0.5796940000000  0.4974080000000 1.0
C      1  0.4547760000000  0.6025530000000  0.4193640000000 1.0
C      1  0.4773750000000  0.5369030000000  0.5158510000000 1.0
C      1  0.3940560000000  0.4183180000000  0.5313310000000 1.0
C      1  0.4698370000000  0.3887090000000  0.4698280000000 1.0
C      1  0.5825160000000  0.5353950000000  0.4046480000000 1.0
C      1  0.4412710000000  0.4079930000000  0.5350750000000 1.0
C      1  0.5819730000000  0.5719140000000  0.5403950000000 1.0
C      1  0.5846160000000  0.4287940000000  0.5167140000000 1.0
C      1  0.5789010000000  0.5689100000000  0.4657000000000 1.0
C      1  0.4670630000000  0.4173680000000  0.4686720000000 1.0
C      1  0.5360090000000  0.5297740000000  0.6194450000000 1.0
C      1  0.5615640000000  0.4879130000000  0.4058360000000 1.0
C      1  0.5011030000000  0.4953660000000  0.5729040000000 1.0
C      1  0.3975540000000  0.4992190000000  0.4908280000000 1.0
C      1  0.5021460000000  0.4243160000000  0.4361230000000 1.0
C      1  0.4746370000000  0.5790670000000  0.6023660000000 1.0
C      1  0.3942660000000  0.4981220000000  0.5862840000000 1.0
C      1  0.4720620000000  0.5173560000000  0.5376840000000 1.0
C      1  0.5486860000000  0.4582540000000  0.5382100000000 1.0
C      1  0.4614750000000  0.4532870000000  0.4336210000000 1.0
C      1  0.3866990000000  0.4728410000000  0.5382010000000 1.0
C      1  0.5669570000000  0.5858930000000  0.5179930000000 1.0
C      1  0.4691410000000  0.4357190000000  0.4953030000000 1.0
C      1  0.5272760000000  0.4944870000000  0.5796760000000 1.0
C      1  0.4945610000000  0.3767630000000  0.4613870000000 1.0
C      1  0.4817420000000  0.5323610000000  0.6239340000000 1.0
END
