TITL C-612606-7351-1001 -0.000302916455757492 125000 -369.50250846649 0 0 62 (C1) n - 1
REM
REM in /home/nfs/bkarasulu/CARBON/AIRSS/Generating-Clusters/TERSOFF/Only-C1/FIRE-HFTN
REM
REM
REM
REM
REM
REM ./C.cell (11c1c37f851c82e70ff6c80c92926a4b)
REM AIRSS Version 0.9.1 bugfix July 2018 build 013d7b7c2542+ Fri, 06 Jul 2018 19:26:36 +0100
REM compiler GCC version 9.2.1 20190827 (Red Hat 9.2.1-1)
REM options -cpp -mtune=generic -march=x86-64 -g -O0 -fpre-include=/usr/include/finclude/math-vector-fortran.h
REM seed 538385281 2079678665 -1041962861 1131169448 320835698 2002788854 485675836 1307272399 1314356927 359966365 79816767 1456468777 2104618671 320273034 1654957935 -938134920 -936984889 -1926560448 1839076248 1005405800 2144886903 1122896591 1631375243 1913542177 -799865292 661502366 -593168916 12278828 -2016766825 1738218936 196630001 1414406107 -590878971
REM
CELL 1.54180   50.00000   50.00000   50.00000   90.00000   90.00000   90.00000
LATT -1
SFAC C  
C      1  0.5114170000000  0.4403430000000  0.5085060000000 1.0
C      1  0.4858840000000  0.4394260000000  0.4575200000000 1.0
C      1  0.5063910000000  0.5142540000000  0.5388870000000 1.0
C      1  0.4513610000000  0.4718940000000  0.5374500000000 1.0
C      1  0.4989610000000  0.5769500000000  0.4892350000000 1.0
C      1  0.6099450000000  0.4984890000000  0.5792820000000 1.0
C      1  0.4990080000000  0.4841080000000  0.4477060000000 1.0
C      1  0.4735870000000  0.4910820000000  0.4378560000000 1.0
C      1  0.5439790000000  0.4480860000000  0.5422310000000 1.0
C      1  0.5641560000000  0.4645780000000  0.5527350000000 1.0
C      1  0.5007100000000  0.4900270000000  0.4961220000000 1.0
C      1  0.5033560000000  0.4133550000000  0.5049420000000 1.0
C      1  0.5176430000000  0.5379870000000  0.5504770000000 1.0
C      1  0.5291570000000  0.5174060000000  0.4669410000000 1.0
C      1  0.4142390000000  0.5394810000000  0.5016930000000 1.0
C      1  0.4917080000000  0.5088860000000  0.5157410000000 1.0
C      1  0.5502260000000  0.4484010000000  0.4649800000000 1.0
C      1  0.5890020000000  0.5297900000000  0.5491960000000 1.0
C      1  0.5796300000000  0.5597630000000  0.4555400000000 1.0
C      1  0.5205500000000  0.5923150000000  0.5290890000000 1.0
C      1  0.5811580000000  0.5520810000000  0.5369270000000 1.0
C      1  0.5513130000000  0.4327560000000  0.3940770000000 1.0
C      1  0.5631590000000  0.5706530000000  0.5267790000000 1.0
C      1  0.5359870000000  0.5311610000000  0.5700150000000 1.0
C      1  0.5246710000000  0.5806890000000  0.5015080000000 1.0
C      1  0.5143150000000  0.4927250000000  0.5572640000000 1.0
C      1  0.5652260000000  0.5638990000000  0.4768620000000 1.0
C      1  0.4515450000000  0.5758670000000  0.5074710000000 1.0
C      1  0.5427230000000  0.4402570000000  0.4175100000000 1.0
C      1  0.4237240000000  0.4962740000000  0.4284220000000 1.0
C      1  0.5202650000000  0.4461120000000  0.5583370000000 1.0
C      1  0.5394770000000  0.5022790000000  0.5703840000000 1.0
C      1  0.5514720000000  0.5703990000000  0.4999870000000 1.0
C      1  0.4951230000000  0.3997150000000  0.4830820000000 1.0
C      1  0.4078570000000  0.5154090000000  0.4921700000000 1.0
C      1  0.4417450000000  0.4576520000000  0.5147760000000 1.0
C      1  0.4944580000000  0.5694790000000  0.4635030000000 1.0
C      1  0.4642180000000  0.5145660000000  0.5188170000000 1.0
C      1  0.4782320000000  0.5833290000000  0.5087810000000 1.0
C      1  0.3752790000000  0.5077080000000  0.4383860000000 1.0
C      1  0.4009860000000  0.5007520000000  0.4455600000000 1.0
C      1  0.5452360000000  0.5871430000000  0.5425420000000 1.0
C      1  0.5389450000000  0.4449540000000  0.5145130000000 1.0
C      1  0.5645840000000  0.4903340000000  0.5642910000000 1.0
C      1  0.4482430000000  0.4611260000000  0.4872080000000 1.0
C      1  0.5547760000000  0.4476970000000  0.4914650000000 1.0
C      1  0.3509270000000  0.5145250000000  0.4320850000000 1.0
C      1  0.4877410000000  0.4113600000000  0.4597140000000 1.0
C      1  0.5331240000000  0.4482280000000  0.4424550000000 1.0
C      1  0.4477400000000  0.4999190000000  0.5345160000000 1.0
C      1  0.4737930000000  0.4640840000000  0.5532860000000 1.0
C      1  0.4296900000000  0.5607850000000  0.5057760000000 1.0
C      1  0.4359700000000  0.4800500000000  0.4700850000000 1.0
C      1  0.5014800000000  0.4673970000000  0.5590320000000 1.0
C      1  0.5059230000000  0.4562260000000  0.4454040000000 1.0
C      1  0.4465710000000  0.4870010000000  0.4432150000000 1.0
C      1  0.4921560000000  0.5942240000000  0.5316660000000 1.0
C      1  0.5099160000000  0.4983480000000  0.4701480000000 1.0
C      1  0.5883050000000  0.5061150000000  0.5643920000000 1.0
C      1  0.4743780000000  0.4525040000000  0.4805240000000 1.0
C      1  0.4114520000000  0.4959120000000  0.4724800000000 1.0
C      1  0.4952050000000  0.4616860000000  0.4984530000000 1.0
END
