TITL C-612605-9286-40 34982.6270585364 125000 -550.863963112601 0 0 91 (C1) n - 1
REM
REM in /home/nfs/bkarasulu/CARBON/AIRSS/Generating-Clusters/TERSOFF/Only-C1/FIRE-HFTN
REM
REM
REM
REM
REM
REM ./C.cell (11c1c37f851c82e70ff6c80c92926a4b)
REM AIRSS Version 0.9.1 bugfix July 2018 build 013d7b7c2542+ Fri, 06 Jul 2018 19:26:36 +0100
REM compiler GCC version 9.2.1 20190827 (Red Hat 9.2.1-1)
REM options -cpp -mtune=generic -march=x86-64 -g -O0 -fpre-include=/usr/include/finclude/math-vector-fortran.h
REM seed 2017638633 822422914 1790289643 1920869417 -1981166931 1132512946 -519654931 -615602577 948127970 1091174486 1430760497 -1009359176 1568050727 -1463269579 186395305 356865679 -1026149014 473014385 2073556276 425757352 -1513656780 -496696047 577315355 1855803009 1932235585 -1383432640 -1862001370 1889663206 1043566530 266228451 1288092090 705404867 -1904224125
REM
CELL 1.54180   50.00000   50.00000   50.00000   90.00000   90.00000   90.00000
LATT -1
SFAC C  
C      1  0.4405350000000  0.4867880000000  0.5090990000000 1.0
C      1  0.4686560000000  0.5587650000000  0.5342400000000 1.0
C      1  0.4410480000000  0.5001660000000  0.4609390000000 1.0
C      1  0.5982480000000  0.4980950000000  0.4495490000000 1.0
C      1  0.4033150000000  0.4638420000000  0.5259970000000 1.0
C      1  0.6122150000000  0.4827630000000  0.4317510000000 1.0
C      1  0.4852820000000  0.5059410000000  0.4773510000000 1.0
C      1  0.4952020000000  0.5623030000000  0.5445800000000 1.0
C      1  0.5548870000000  0.5773200000000  0.4718860000000 1.0
C      1  0.5541300000000  0.5071030000000  0.4812960000000 1.0
C      1  0.4811070000000  0.5828800000000  0.4637570000000 1.0
C      1  0.5629760000000  0.4834740000000  0.4913560000000 1.0
C      1  0.4741220000000  0.4114340000000  0.5064480000000 1.0
C      1  0.4429060000000  0.4471000000000  0.5668940000000 1.0
C      1  0.4968330000000  0.5656870000000  0.5725840000000 1.0
C      1  0.5171240000000  0.5496120000000  0.5303640000000 1.0
C      1  0.4827880000000  0.4505340000000  0.4371680000000 1.0
C      1  0.5423240000000  0.5130930000000  0.4247740000000 1.0
C      1  0.5284670000000  0.5088230000000  0.4707000000000 1.0
C      1  0.5170730000000  0.5526640000000  0.4808520000000 1.0
C      1  0.4095490000000  0.5158430000000  0.5303040000000 1.0
C      1  0.5003540000000  0.4315440000000  0.4252400000000 1.0
C      1  0.4667260000000  0.4251830000000  0.5312910000000 1.0
C      1  0.4407640000000  0.4335530000000  0.5416120000000 1.0
C      1  0.5104410000000  0.4850100000000  0.5309100000000 1.0
C      1  0.4252250000000  0.5392840000000  0.5331770000000 1.0
C      1  0.5424290000000  0.5395690000000  0.5417270000000 1.0
C      1  0.5822940000000  0.5095210000000  0.5274040000000 1.0
C      1  0.4106000000000  0.4986240000000  0.4225920000000 1.0
C      1  0.4920150000000  0.5178310000000  0.5026960000000 1.0
C      1  0.5341740000000  0.4517310000000  0.4494040000000 1.0
C      1  0.5242930000000  0.5317490000000  0.5897840000000 1.0
C      1  0.5755660000000  0.5529880000000  0.5074760000000 1.0
C      1  0.5058340000000  0.4992210000000  0.4191680000000 1.0
C      1  0.4581170000000  0.4918210000000  0.5570870000000 1.0
C      1  0.5281810000000  0.4331720000000  0.4291900000000 1.0
C      1  0.5159560000000  0.4187580000000  0.5452760000000 1.0
C      1  0.4670910000000  0.4414610000000  0.4607070000000 1.0
C      1  0.5384990000000  0.4560930000000  0.5696050000000 1.0
C      1  0.4579080000000  0.4870840000000  0.4186390000000 1.0
C      1  0.5377300000000  0.4295090000000  0.5596840000000 1.0
C      1  0.5329060000000  0.5371050000000  0.4343150000000 1.0
C      1  0.4551540000000  0.5690250000000  0.5099010000000 1.0
C      1  0.5267300000000  0.5788530000000  0.4762790000000 1.0
C      1  0.5671620000000  0.5345820000000  0.5272190000000 1.0
C      1  0.6004410000000  0.5042140000000  0.5048130000000 1.0
C      1  0.5225260000000  0.5346860000000  0.4603220000000 1.0
C      1  0.4558210000000  0.5442810000000  0.4699700000000 1.0
C      1  0.5083930000000  0.4890840000000  0.4706780000000 1.0
C      1  0.5466460000000  0.4188410000000  0.4153880000000 1.0
C      1  0.5087050000000  0.5407210000000  0.5048180000000 1.0
C      1  0.4816030000000  0.5711320000000  0.4371530000000 1.0
C      1  0.6057430000000  0.4998330000000  0.4780270000000 1.0
C      1  0.5703990000000  0.5542000000000  0.4795820000000 1.0
C      1  0.5592020000000  0.4737870000000  0.5616880000000 1.0
C      1  0.4620880000000  0.5176210000000  0.4662080000000 1.0
C      1  0.4053080000000  0.5740670000000  0.5031770000000 1.0
C      1  0.4165760000000  0.4401060000000  0.5283590000000 1.0
C      1  0.4893000000000  0.4544300000000  0.5678990000000 1.0
C      1  0.5131590000000  0.4637870000000  0.5811160000000 1.0
C      1  0.4750620000000  0.5264860000000  0.5884450000000 1.0
C      1  0.4632480000000  0.4666850000000  0.5698420000000 1.0
C      1  0.5051450000000  0.5967540000000  0.4716360000000 1.0
C      1  0.4638490000000  0.5684640000000  0.4823270000000 1.0
C      1  0.4392450000000  0.4801740000000  0.4809390000000 1.0
C      1  0.5195560000000  0.4062450000000  0.5198080000000 1.0
C      1  0.5119610000000  0.4767570000000  0.6051560000000 1.0
C      1  0.4934770000000  0.5247140000000  0.4140530000000 1.0
C      1  0.5416770000000  0.5323880000000  0.5691830000000 1.0
C      1  0.4982670000000  0.5426330000000  0.5892720000000 1.0
C      1  0.4960330000000  0.3934810000000  0.5105720000000 1.0
C      1  0.5690160000000  0.5280940000000  0.4671630000000 1.0
C      1  0.5202620000000  0.4626130000000  0.4715330000000 1.0
C      1  0.5066800000000  0.6237760000000  0.4744160000000 1.0
C      1  0.4881620000000  0.4993190000000  0.5228490000000 1.0
C      1  0.4145270000000  0.4894270000000  0.5213880000000 1.0
C      1  0.4730780000000  0.4212410000000  0.4797610000000 1.0
C      1  0.4845850000000  0.4777460000000  0.4247770000000 1.0
C      1  0.5323120000000  0.4228430000000  0.5006260000000 1.0
C      1  0.5747070000000  0.4896860000000  0.5464120000000 1.0
C      1  0.4901070000000  0.4316400000000  0.5492690000000 1.0
C      1  0.4619270000000  0.4908770000000  0.5282940000000 1.0
C      1  0.5249100000000  0.4662980000000  0.5190100000000 1.0
C      1  0.4584440000000  0.5188660000000  0.5668320000000 1.0
C      1  0.5746440000000  0.5134950000000  0.4418390000000 1.0
C      1  0.4353330000000  0.4953740000000  0.4334760000000 1.0
C      1  0.4852040000000  0.5495870000000  0.4210690000000 1.0
C      1  0.4443010000000  0.4552070000000  0.4698420000000 1.0
C      1  0.5262980000000  0.4501030000000  0.4963850000000 1.0
C      1  0.4266570000000  0.5614610000000  0.5144230000000 1.0
C      1  0.4504810000000  0.5392780000000  0.5479350000000 1.0
END
