TITL C-612602-9376-285 0.00291444590182483 125000 -973.410597981814 0 0 159 (C1) n - 1
REM
REM in /home/nfs/bkarasulu/CARBON/AIRSS/Generating-Clusters/TERSOFF/Only-C1/FIRE-HFTN
REM
REM
REM
REM
REM
REM ./C.cell (11c1c37f851c82e70ff6c80c92926a4b)
REM AIRSS Version 0.9.1 bugfix July 2018 build 013d7b7c2542+ Fri, 06 Jul 2018 19:26:36 +0100
REM compiler GCC version 9.2.1 20190827 (Red Hat 9.2.1-1)
REM options -cpp -mtune=generic -march=x86-64 -g -O0 -fpre-include=/usr/include/finclude/math-vector-fortran.h
REM seed 2047712499 1255063835 316290435 1301354517 -1373075033 1091043014 1114998317 1493963101 -1018548122 -1916101905 765750284 -671247519 436061154 262838579 -1001153216 1832409771 -846682440 -1643215538 1613595091 1172232907 -1165283718 1871728103 -1463261118 521093700 -210577548 303565500 -422532839 262368081 -1208531007 879551839 1991578705 -2120094103 526092464
REM
CELL 1.54180   50.00000   50.00000   50.00000   90.00000   90.00000   90.00000
LATT -1
SFAC C  
C      1  0.5463060000000  0.5182560000000  0.3935970000000 1.0
C      1  0.5938030000000  0.5716360000000  0.4373100000000 1.0
C      1  0.4456630000000  0.4866570000000  0.5104080000000 1.0
C      1  0.5046680000000  0.5084500000000  0.5334810000000 1.0
C      1  0.5036890000000  0.5658380000000  0.5132600000000 1.0
C      1  0.5849610000000  0.4770660000000  0.5684860000000 1.0
C      1  0.4681370000000  0.5158670000000  0.3988930000000 1.0
C      1  0.5220130000000  0.4817860000000  0.5663080000000 1.0
C      1  0.5647240000000  0.4303460000000  0.4879350000000 1.0
C      1  0.5023500000000  0.5102140000000  0.5031860000000 1.0
C      1  0.3736860000000  0.4495910000000  0.5300090000000 1.0
C      1  0.5160460000000  0.5502990000000  0.5642440000000 1.0
C      1  0.4975080000000  0.6173310000000  0.5219590000000 1.0
C      1  0.5652550000000  0.4817100000000  0.4621270000000 1.0
C      1  0.4776980000000  0.3942470000000  0.5299150000000 1.0
C      1  0.4976040000000  0.5582240000000  0.5418630000000 1.0
C      1  0.4087230000000  0.4665770000000  0.4070950000000 1.0
C      1  0.5851020000000  0.4640100000000  0.4505000000000 1.0
C      1  0.4335090000000  0.4651290000000  0.3969100000000 1.0
C      1  0.6220030000000  0.4659070000000  0.5262670000000 1.0
C      1  0.5914460000000  0.4407080000000  0.4958330000000 1.0
C      1  0.4781470000000  0.5295520000000  0.5017590000000 1.0
C      1  0.4825420000000  0.5569370000000  0.4936990000000 1.0
C      1  0.5173220000000  0.4363660000000  0.4996450000000 1.0
C      1  0.5473060000000  0.4945440000000  0.6060550000000 1.0
C      1  0.4967170000000  0.3930230000000  0.5524780000000 1.0
C      1  0.4986770000000  0.4611960000000  0.6213670000000 1.0
C      1  0.5265950000000  0.4986090000000  0.3882300000000 1.0
C      1  0.5182730000000  0.5768120000000  0.4298130000000 1.0
C      1  0.4486230000000  0.4057590000000  0.5314140000000 1.0
C      1  0.6189900000000  0.5752880000000  0.4429520000000 1.0
C      1  0.4477210000000  0.6036760000000  0.5310380000000 1.0
C      1  0.4037670000000  0.5083400000000  0.5824460000000 1.0
C      1  0.5272160000000  0.5128100000000  0.4436230000000 1.0
C      1  0.5675960000000  0.4867470000000  0.5132450000000 1.0
C      1  0.4015350000000  0.4689590000000  0.4567070000000 1.0
C      1  0.5125380000000  0.3838650000000  0.4875820000000 1.0
C      1  0.3894920000000  0.5068480000000  0.4281820000000 1.0
C      1  0.5222560000000  0.6131170000000  0.5352750000000 1.0
C      1  0.4374020000000  0.4314490000000  0.4625660000000 1.0
C      1  0.5533730000000  0.4153890000000  0.4643540000000 1.0
C      1  0.5000720000000  0.5770230000000  0.6020000000000 1.0
C      1  0.6078190000000  0.5478630000000  0.5099240000000 1.0
C      1  0.4128830000000  0.4450020000000  0.4706270000000 1.0
C      1  0.4630770000000  0.5746120000000  0.4471430000000 1.0
C      1  0.5071390000000  0.6110330000000  0.4710610000000 1.0
C      1  0.6029350000000  0.5030380000000  0.4834890000000 1.0
C      1  0.4710170000000  0.5579900000000  0.4255280000000 1.0
C      1  0.5750540000000  0.4934930000000  0.4862230000000 1.0
C      1  0.5512210000000  0.4292090000000  0.4385300000000 1.0
C      1  0.4999090000000  0.4189320000000  0.5931320000000 1.0
C      1  0.4651530000000  0.4622300000000  0.4326650000000 1.0
C      1  0.4100710000000  0.4317630000000  0.5029910000000 1.0
C      1  0.5112330000000  0.4265460000000  0.4722450000000 1.0
C      1  0.4381440000000  0.5773960000000  0.4875020000000 1.0
C      1  0.4595860000000  0.4695630000000  0.4061380000000 1.0
C      1  0.4327790000000  0.5045780000000  0.4635710000000 1.0
C      1  0.5467400000000  0.5893130000000  0.4973150000000 1.0
C      1  0.5375990000000  0.5185760000000  0.6131280000000 1.0
C      1  0.5011210000000  0.3672970000000  0.5620250000000 1.0
C      1  0.5725230000000  0.5089400000000  0.3979940000000 1.0
C      1  0.4850360000000  0.4383920000000  0.4678780000000 1.0
C      1  0.4961120000000  0.5647420000000  0.4142340000000 1.0
C      1  0.4056990000000  0.4950500000000  0.4691470000000 1.0
C      1  0.4250030000000  0.5207970000000  0.5938430000000 1.0
C      1  0.5242280000000  0.5056620000000  0.5524120000000 1.0
C      1  0.3930370000000  0.5317970000000  0.4390760000000 1.0
C      1  0.4726890000000  0.4296080000000  0.4940320000000 1.0
C      1  0.5437070000000  0.4440680000000  0.5023410000000 1.0
C      1  0.4514710000000  0.5176250000000  0.4446870000000 1.0
C      1  0.5027900000000  0.4630720000000  0.5560420000000 1.0
C      1  0.5160110000000  0.4527740000000  0.4027520000000 1.0
C      1  0.4627040000000  0.4353620000000  0.4454310000000 1.0
C      1  0.4631860000000  0.5679760000000  0.4752760000000 1.0
C      1  0.4016550000000  0.5509620000000  0.4565820000000 1.0
C      1  0.4437900000000  0.6014710000000  0.5025780000000 1.0
C      1  0.5512740000000  0.4629470000000  0.5218650000000 1.0
C      1  0.4892580000000  0.4681290000000  0.4728260000000 1.0
C      1  0.4626450000000  0.6189480000000  0.4889600000000 1.0
C      1  0.5657930000000  0.6057730000000  0.4904560000000 1.0
C      1  0.6101270000000  0.5289220000000  0.4912370000000 1.0
C      1  0.4529720000000  0.5992560000000  0.4397170000000 1.0
C      1  0.5151310000000  0.5964000000000  0.4498540000000 1.0
C      1  0.5684390000000  0.5686640000000  0.4302720000000 1.0
C      1  0.4909790000000  0.5156010000000  0.6230790000000 1.0
C      1  0.4912340000000  0.6184220000000  0.4933520000000 1.0
C      1  0.4920540000000  0.4871400000000  0.6240970000000 1.0
C      1  0.6015270000000  0.4771770000000  0.4295130000000 1.0
C      1  0.4486760000000  0.4177420000000  0.4858300000000 1.0
C      1  0.4700570000000  0.5488420000000  0.5453100000000 1.0
C      1  0.4090260000000  0.5075140000000  0.5339990000000 1.0
C      1  0.5790320000000  0.5043560000000  0.5575590000000 1.0
C      1  0.4611570000000  0.5261160000000  0.5273580000000 1.0
C      1  0.6032780000000  0.4565770000000  0.4739170000000 1.0
C      1  0.5021730000000  0.5209420000000  0.4468150000000 1.0
C      1  0.3886190000000  0.5049610000000  0.4889330000000 1.0
C      1  0.4863600000000  0.4552760000000  0.5343700000000 1.0
C      1  0.5872550000000  0.4996200000000  0.5306240000000 1.0
C      1  0.5117450000000  0.4402420000000  0.6077150000000 1.0
C      1  0.3999870000000  0.4428880000000  0.5270490000000 1.0
C      1  0.4148100000000  0.5657000000000  0.4754430000000 1.0
C      1  0.4486010000000  0.4760320000000  0.5732450000000 1.0
C      1  0.5373540000000  0.4446710000000  0.4206310000000 1.0
C      1  0.4372200000000  0.5725120000000  0.5698480000000 1.0
C      1  0.5006200000000  0.4308970000000  0.3933070000000 1.0
C      1  0.4319170000000  0.4119320000000  0.5074530000000 1.0
C      1  0.4500580000000  0.5246650000000  0.5809320000000 1.0
C      1  0.4465360000000  0.4888700000000  0.4828010000000 1.0
C      1  0.4351840000000  0.5107350000000  0.5233410000000 1.0
C      1  0.4913750000000  0.3842550000000  0.5054530000000 1.0
C      1  0.6201720000000  0.4818160000000  0.4732880000000 1.0
C      1  0.5903770000000  0.4920400000000  0.4086080000000 1.0
C      1  0.4829630000000  0.4135880000000  0.4037020000000 1.0
C      1  0.4330430000000  0.5920290000000  0.5518060000000 1.0
C      1  0.5966010000000  0.5562610000000  0.5326280000000 1.0
C      1  0.5451600000000  0.4939200000000  0.4478490000000 1.0
C      1  0.5421570000000  0.5996520000000  0.5477180000000 1.0
C      1  0.5120340000000  0.5302890000000  0.6100160000000 1.0
C      1  0.5369180000000  0.4321100000000  0.5656560000000 1.0
C      1  0.6148980000000  0.4921710000000  0.5282470000000 1.0
C      1  0.5361210000000  0.5297690000000  0.5599060000000 1.0
C      1  0.5429810000000  0.5637900000000  0.4204210000000 1.0
C      1  0.5599270000000  0.5801620000000  0.5536530000000 1.0
C      1  0.4907880000000  0.4830090000000  0.4968020000000 1.0
C      1  0.5273330000000  0.5191490000000  0.4918630000000 1.0
C      1  0.5355770000000  0.4469140000000  0.5922340000000 1.0
C      1  0.5549550000000  0.4464690000000  0.5466160000000 1.0
C      1  0.4925140000000  0.4364600000000  0.5143590000000 1.0
C      1  0.4766490000000  0.5023500000000  0.5419980000000 1.0
C      1  0.4794290000000  0.4800260000000  0.4493730000000 1.0
C      1  0.4189710000000  0.4445820000000  0.5489570000000 1.0
C      1  0.5304690000000  0.5672360000000  0.5023680000000 1.0
C      1  0.5115680000000  0.4136160000000  0.5664560000000 1.0
C      1  0.4679880000000  0.4137960000000  0.4260510000000 1.0
C      1  0.3956890000000  0.4780970000000  0.4291620000000 1.0
C      1  0.5272220000000  0.4027080000000  0.4708980000000 1.0
C      1  0.5647300000000  0.5304130000000  0.5599390000000 1.0
C      1  0.4784250000000  0.4888130000000  0.3961530000000 1.0
C      1  0.4066420000000  0.4930660000000  0.5586960000000 1.0
C      1  0.4780620000000  0.5074750000000  0.4493570000000 1.0
C      1  0.4718040000000  0.4783170000000  0.5222240000000 1.0
C      1  0.4735340000000  0.6145520000000  0.5375770000000 1.0
C      1  0.6253980000000  0.4845070000000  0.4445840000000 1.0
C      1  0.5752410000000  0.5560960000000  0.5509640000000 1.0
C      1  0.5067100000000  0.4798130000000  0.3952500000000 1.0
C      1  0.5086690000000  0.5528950000000  0.5922170000000 1.0
C      1  0.5998860000000  0.4470890000000  0.5253000000000 1.0
C      1  0.3883470000000  0.5100680000000  0.5152390000000 1.0
C      1  0.4541680000000  0.5501550000000  0.5687240000000 1.0
C      1  0.4712460000000  0.5289700000000  0.6365840000000 1.0
C      1  0.4625560000000  0.5007150000000  0.5689880000000 1.0
C      1  0.4374190000000  0.4226010000000  0.5521050000000 1.0
C      1  0.5090810000000  0.5507360000000  0.3927680000000 1.0
C      1  0.5832800000000  0.4517960000000  0.5512770000000 1.0
C      1  0.5401920000000  0.5425080000000  0.4931920000000 1.0
C      1  0.4232780000000  0.4694690000000  0.5618500000000 1.0
C      1  0.4572650000000  0.5329670000000  0.4201070000000 1.0
C      1  0.5367980000000  0.5444850000000  0.3990040000000 1.0
C      1  0.5381160000000  0.4748630000000  0.5885470000000 1.0
END
