TITL C-612602-9376-1445 9.22620260335346e-05 125000 -835.454627630003 0 0 134 (C1) n - 1
REM
REM in /home/nfs/bkarasulu/CARBON/AIRSS/Generating-Clusters/TERSOFF/Only-C1/FIRE-HFTN
REM
REM
REM
REM
REM
REM ./C.cell (11c1c37f851c82e70ff6c80c92926a4b)
REM AIRSS Version 0.9.1 bugfix July 2018 build 013d7b7c2542+ Fri, 06 Jul 2018 19:26:36 +0100
REM compiler GCC version 9.2.1 20190827 (Red Hat 9.2.1-1)
REM options -cpp -mtune=generic -march=x86-64 -g -O0 -fpre-include=/usr/include/finclude/math-vector-fortran.h
REM seed 647347018 608494950 -1018352252 2067339835 10867963 -902011150 642838176 -393953490 137662988 555306654 154255895 205506750 1994996422 -1222915710 -999811353 796440181 -2022748537 -983741641 1314318505 910614449 -1493168731 -432057393 -680696627 -1358997193 1984007027 -1409468054 -42212384 -1053369821 1311027444 62738404 -1207260387 255586647 -827893446
REM
CELL 1.54180   50.00000   50.00000   50.00000   90.00000   90.00000   90.00000
LATT -1
SFAC C  
C      1  0.3783080000000  0.4474720000000  0.4708830000000 1.0
C      1  0.5172230000000  0.4380080000000  0.4226930000000 1.0
C      1  0.5374530000000  0.5148370000000  0.5499400000000 1.0
C      1  0.4755470000000  0.5390770000000  0.4225820000000 1.0
C      1  0.4918760000000  0.4920010000000  0.3897900000000 1.0
C      1  0.4741810000000  0.3818300000000  0.5701260000000 1.0
C      1  0.4327870000000  0.5590950000000  0.5560580000000 1.0
C      1  0.5320040000000  0.5810840000000  0.4742070000000 1.0
C      1  0.5530830000000  0.3811250000000  0.4424810000000 1.0
C      1  0.5920100000000  0.4962170000000  0.4821970000000 1.0
C      1  0.3671750000000  0.5427310000000  0.4832780000000 1.0
C      1  0.4183670000000  0.5435120000000  0.5089820000000 1.0
C      1  0.4554010000000  0.6106510000000  0.4870620000000 1.0
C      1  0.5445930000000  0.4461360000000  0.5029290000000 1.0
C      1  0.5608370000000  0.5817220000000  0.5140210000000 1.0
C      1  0.5746890000000  0.4810000000000  0.4366030000000 1.0
C      1  0.5080050000000  0.3216460000000  0.5468240000000 1.0
C      1  0.6012910000000  0.5552430000000  0.5208360000000 1.0
C      1  0.5660930000000  0.4942050000000  0.4945900000000 1.0
C      1  0.5425270000000  0.4414670000000  0.5806830000000 1.0
C      1  0.5492680000000  0.5583030000000  0.4327830000000 1.0
C      1  0.4903460000000  0.5485280000000  0.5824620000000 1.0
C      1  0.4353370000000  0.5591200000000  0.4928480000000 1.0
C      1  0.4526830000000  0.5151670000000  0.5695960000000 1.0
C      1  0.5519590000000  0.5684100000000  0.5740160000000 1.0
C      1  0.5042900000000  0.4575620000000  0.6050370000000 1.0
C      1  0.5492260000000  0.5617630000000  0.4612510000000 1.0
C      1  0.4555100000000  0.5767500000000  0.5556130000000 1.0
C      1  0.5773750000000  0.4681420000000  0.5323890000000 1.0
C      1  0.4766330000000  0.5350640000000  0.4884810000000 1.0
C      1  0.4197080000000  0.4753750000000  0.5328220000000 1.0
C      1  0.5618940000000  0.5438860000000  0.6135760000000 1.0
C      1  0.4985590000000  0.4807690000000  0.5477630000000 1.0
C      1  0.3752500000000  0.5287920000000  0.4617760000000 1.0
C      1  0.4280950000000  0.4887930000000  0.4860750000000 1.0
C      1  0.5049860000000  0.5233760000000  0.4553310000000 1.0
C      1  0.5631480000000  0.5250450000000  0.5573070000000 1.0
C      1  0.4997090000000  0.3466760000000  0.5529890000000 1.0
C      1  0.5351110000000  0.5849040000000  0.5026410000000 1.0
C      1  0.5238140000000  0.5501760000000  0.4193900000000 1.0
C      1  0.5083860000000  0.4194600000000  0.5522140000000 1.0
C      1  0.5202700000000  0.5339780000000  0.5400040000000 1.0
C      1  0.5230110000000  0.5075290000000  0.4411940000000 1.0
C      1  0.5102910000000  0.5901730000000  0.4585810000000 1.0
C      1  0.4298440000000  0.5222990000000  0.5246970000000 1.0
C      1  0.4522320000000  0.4865800000000  0.5659840000000 1.0
C      1  0.5547390000000  0.4685110000000  0.3974380000000 1.0
C      1  0.4827590000000  0.5686300000000  0.5628140000000 1.0
C      1  0.4864710000000  0.4767340000000  0.5950330000000 1.0
C      1  0.5789690000000  0.5249010000000  0.6040580000000 1.0
C      1  0.5364940000000  0.3793470000000  0.5034590000000 1.0
C      1  0.5217100000000  0.4170610000000  0.4420440000000 1.0
C      1  0.4759540000000  0.3543110000000  0.5677470000000 1.0
C      1  0.5935920000000  0.4868220000000  0.4559210000000 1.0
C      1  0.4517230000000  0.4812820000000  0.4165360000000 1.0
C      1  0.4782340000000  0.4751580000000  0.5678550000000 1.0
C      1  0.4610200000000  0.5210080000000  0.4678140000000 1.0
C      1  0.4483730000000  0.5849080000000  0.4165620000000 1.0
C      1  0.5140680000000  0.5856930000000  0.5215640000000 1.0
C      1  0.5286200000000  0.4827470000000  0.4541440000000 1.0
C      1  0.5654350000000  0.5539220000000  0.5535250000000 1.0
C      1  0.5584030000000  0.5403090000000  0.4774270000000 1.0
C      1  0.5249450000000  0.4897980000000  0.5536860000000 1.0
C      1  0.5121330000000  0.4754730000000  0.4762980000000 1.0
C      1  0.3964370000000  0.5569200000000  0.5217690000000 1.0
C      1  0.5707360000000  0.4125160000000  0.5259250000000 1.0
C      1  0.4310730000000  0.5732020000000  0.4685160000000 1.0
C      1  0.5586910000000  0.4210300000000  0.5007280000000 1.0
C      1  0.4499900000000  0.5950850000000  0.4641230000000 1.0
C      1  0.6110400000000  0.5128580000000  0.4941850000000 1.0
C      1  0.4122950000000  0.4531190000000  0.4338450000000 1.0
C      1  0.4358910000000  0.5084240000000  0.4671820000000 1.0
C      1  0.5022070000000  0.5794150000000  0.5448480000000 1.0
C      1  0.5167200000000  0.5417320000000  0.5957290000000 1.0
C      1  0.4965870000000  0.5595920000000  0.4221200000000 1.0
C      1  0.5700530000000  0.4909700000000  0.4091900000000 1.0
C      1  0.5354540000000  0.3802470000000  0.5321490000000 1.0
C      1  0.3935280000000  0.5169960000000  0.4459660000000 1.0
C      1  0.4892710000000  0.5044330000000  0.6018200000000 1.0
C      1  0.5171150000000  0.5129670000000  0.6041310000000 1.0
C      1  0.4383340000000  0.5311180000000  0.5512220000000 1.0
C      1  0.5788580000000  0.5150160000000  0.5787040000000 1.0
C      1  0.4636680000000  0.4879060000000  0.5155170000000 1.0
C      1  0.4549400000000  0.6108690000000  0.5139730000000 1.0
C      1  0.5319900000000  0.4616710000000  0.5982560000000 1.0
C      1  0.5603000000000  0.4703330000000  0.5096950000000 1.0
C      1  0.4062530000000  0.5668700000000  0.5468820000000 1.0
C      1  0.4788210000000  0.5229040000000  0.4454310000000 1.0
C      1  0.4484950000000  0.5359670000000  0.4134020000000 1.0
C      1  0.5127300000000  0.5085060000000  0.3921730000000 1.0
C      1  0.4908180000000  0.4856260000000  0.5207860000000 1.0
C      1  0.4206550000000  0.5100000000000  0.4429000000000 1.0
C      1  0.5295280000000  0.5194620000000  0.4136670000000 1.0
C      1  0.4626740000000  0.5559500000000  0.5000090000000 1.0
C      1  0.4776960000000  0.4738650000000  0.4058210000000 1.0
C      1  0.4265910000000  0.4622570000000  0.4758910000000 1.0
C      1  0.5360550000000  0.4905760000000  0.6033570000000 1.0
C      1  0.5125260000000  0.3718390000000  0.5463390000000 1.0
C      1  0.5511520000000  0.4021830000000  0.5441350000000 1.0
C      1  0.5100780000000  0.4911570000000  0.5004370000000 1.0
C      1  0.5004160000000  0.4500340000000  0.4809670000000 1.0
C      1  0.4196950000000  0.5621220000000  0.4448390000000 1.0
C      1  0.5222250000000  0.5163720000000  0.4977610000000 1.0
C      1  0.6138330000000  0.5353890000000  0.5082070000000 1.0
C      1  0.4028340000000  0.4535220000000  0.4612230000000 1.0
C      1  0.5034890000000  0.4320420000000  0.5275010000000 1.0
C      1  0.5768630000000  0.5652600000000  0.5302570000000 1.0
C      1  0.5450750000000  0.4001920000000  0.4856080000000 1.0
C      1  0.4404260000000  0.4599370000000  0.4322830000000 1.0
C      1  0.4535650000000  0.5994000000000  0.5382400000000 1.0
C      1  0.4925490000000  0.4504100000000  0.4144080000000 1.0
C      1  0.5494110000000  0.4676230000000  0.4423330000000 1.0
C      1  0.5361690000000  0.4212590000000  0.5612660000000 1.0
C      1  0.4964560000000  0.3944400000000  0.5572740000000 1.0
C      1  0.4736570000000  0.5245770000000  0.5868810000000 1.0
C      1  0.5155210000000  0.4409660000000  0.5037650000000 1.0
C      1  0.5499780000000  0.5177000000000  0.4923180000000 1.0
C      1  0.5405070000000  0.4536170000000  0.4179840000000 1.0
C      1  0.4335200000000  0.5602720000000  0.4196100000000 1.0
C      1  0.5393830000000  0.4000820000000  0.4572280000000 1.0
C      1  0.4645080000000  0.5930710000000  0.4390830000000 1.0
C      1  0.5957030000000  0.4505430000000  0.5411480000000 1.0
C      1  0.4340120000000  0.4939870000000  0.5146530000000 1.0
C      1  0.4914750000000  0.5832540000000  0.4386080000000 1.0
C      1  0.5414970000000  0.5558660000000  0.5974030000000 1.0
C      1  0.3727930000000  0.5547930000000  0.5067950000000 1.0
C      1  0.5942420000000  0.4241340000000  0.5358800000000 1.0
C      1  0.5697420000000  0.5426220000000  0.4193180000000 1.0
C      1  0.5598410000000  0.5175350000000  0.4087120000000 1.0
C      1  0.5046380000000  0.5320610000000  0.4826940000000 1.0
C      1  0.4294420000000  0.4724730000000  0.5579150000000 1.0
C      1  0.4503760000000  0.4545060000000  0.4599340000000 1.0
C      1  0.4380170000000  0.5085070000000  0.4193340000000 1.0
C      1  0.4748680000000  0.4455630000000  0.4702380000000 1.0
END
