TITL C-612600-6631-1428 -4.12790291099069e-06 125000 -383.133224635988 0 0 63 (C1) n - 1
REM
REM in /home/nfs/bkarasulu/CARBON/AIRSS/Generating-Clusters/TERSOFF/Only-C1/FIRE-HFTN
REM
REM
REM
REM
REM
REM ./C.cell (11c1c37f851c82e70ff6c80c92926a4b)
REM AIRSS Version 0.9.1 bugfix July 2018 build 013d7b7c2542+ Fri, 06 Jul 2018 19:26:36 +0100
REM compiler GCC version 9.2.1 20190827 (Red Hat 9.2.1-1)
REM options -cpp -mtune=generic -march=x86-64 -g -O0 -fpre-include=/usr/include/finclude/math-vector-fortran.h
REM seed 1606286564 1404736573 -1400744512 -1874821152 -184263030 148761689 -714023795 352070323 1317982083 -681290332 668497092 863335138 -96349030 649671509 1537608595 -348534623 -1598406251 -475631626 1020154594 2003177970 -499683330 -1187563125 -1804332284 317464425 1701115460 1355161028 -1914156575 -1400283171 912681352 361278002 -2027144268 634302739 1969121286
REM
CELL 1.54180   50.00000   50.00000   50.00000   90.00000   90.00000   90.00000
LATT -1
SFAC C  
C      1  0.5708960000000  0.5065130000000  0.4889030000000 1.0
C      1  0.5746950000000  0.5040480000000  0.5165970000000 1.0
C      1  0.4780390000000  0.4884210000000  0.4158750000000 1.0
C      1  0.4856280000000  0.4135920000000  0.5025030000000 1.0
C      1  0.4833620000000  0.4575490000000  0.4833680000000 1.0
C      1  0.4903450000000  0.4669130000000  0.5515960000000 1.0
C      1  0.4543460000000  0.5155110000000  0.5110940000000 1.0
C      1  0.5582290000000  0.4676810000000  0.5443070000000 1.0
C      1  0.5683440000000  0.5321240000000  0.4774760000000 1.0
C      1  0.5095070000000  0.3982560000000  0.5069420000000 1.0
C      1  0.4865110000000  0.4783090000000  0.5259710000000 1.0
C      1  0.5730920000000  0.4546840000000  0.5633890000000 1.0
C      1  0.5147120000000  0.5063730000000  0.4834860000000 1.0
C      1  0.5292580000000  0.4542510000000  0.4530500000000 1.0
C      1  0.4384890000000  0.5304190000000  0.5299980000000 1.0
C      1  0.5624700000000  0.4957420000000  0.5405150000000 1.0
C      1  0.5358820000000  0.5503530000000  0.4453490000000 1.0
C      1  0.5090590000000  0.5380250000000  0.5626220000000 1.0
C      1  0.5032320000000  0.5154300000000  0.5067030000000 1.0
C      1  0.5334230000000  0.5660360000000  0.4898660000000 1.0
C      1  0.5283670000000  0.4605300000000  0.5033600000000 1.0
C      1  0.5531260000000  0.5159100000000  0.5579400000000 1.0
C      1  0.4908170000000  0.4254450000000  0.4511730000000 1.0
C      1  0.4959520000000  0.4385020000000  0.5468490000000 1.0
C      1  0.4499030000000  0.5560860000000  0.5343970000000 1.0
C      1  0.5432960000000  0.5710750000000  0.5160960000000 1.0
C      1  0.4522240000000  0.5532140000000  0.4492540000000 1.0
C      1  0.4793370000000  0.5038010000000  0.5173170000000 1.0
C      1  0.5384460000000  0.5401720000000  0.5588570000000 1.0
C      1  0.4114950000000  0.5226910000000  0.5312610000000 1.0
C      1  0.5058080000000  0.4466120000000  0.4380420000000 1.0
C      1  0.4757720000000  0.5628180000000  0.5239010000000 1.0
C      1  0.4922430000000  0.4653180000000  0.4204630000000 1.0
C      1  0.5128490000000  0.5376170000000  0.5188330000000 1.0
C      1  0.4984900000000  0.5128870000000  0.5714600000000 1.0
C      1  0.4494440000000  0.5245640000000  0.4846770000000 1.0
C      1  0.4726460000000  0.5145320000000  0.4271870000000 1.0
C      1  0.4795180000000  0.5633060000000  0.4936880000000 1.0
C      1  0.5052170000000  0.5626070000000  0.4794610000000 1.0
C      1  0.4362290000000  0.5122580000000  0.4616560000000 1.0
C      1  0.4773740000000  0.4246700000000  0.5285570000000 1.0
C      1  0.4114000000000  0.5005050000000  0.4670480000000 1.0
C      1  0.3952460000000  0.5009860000000  0.4886120000000 1.0
C      1  0.5618450000000  0.4831060000000  0.4759200000000 1.0
C      1  0.5395050000000  0.4527630000000  0.5287710000000 1.0
C      1  0.4917030000000  0.4741270000000  0.5993230000000 1.0
C      1  0.4824180000000  0.4293500000000  0.4782950000000 1.0
C      1  0.5239140000000  0.4311840000000  0.5404580000000 1.0
C      1  0.5460240000000  0.5510810000000  0.4201910000000 1.0
C      1  0.4998450000000  0.4641910000000  0.5050600000000 1.0
C      1  0.5411490000000  0.4638260000000  0.4773740000000 1.0
C      1  0.5505170000000  0.5525590000000  0.4700910000000 1.0
C      1  0.4808370000000  0.4789070000000  0.4652260000000 1.0
C      1  0.4582890000000  0.5519660000000  0.4777830000000 1.0
C      1  0.4946690000000  0.5230600000000  0.4442620000000 1.0
C      1  0.4977490000000  0.5510190000000  0.5388880000000 1.0
C      1  0.5469770000000  0.5615520000000  0.5413500000000 1.0
C      1  0.5076050000000  0.5476030000000  0.4525600000000 1.0
C      1  0.5264380000000  0.4058130000000  0.5271800000000 1.0
C      1  0.4483930000000  0.5258180000000  0.4381210000000 1.0
C      1  0.4988300000000  0.5007590000000  0.4616180000000 1.0
C      1  0.3950730000000  0.5103330000000  0.5138300000000 1.0
C      1  0.4935010000000  0.4846460000000  0.5740020000000 1.0
END
