TITL C-612601-4209-1161 -16.5438391682186 125000 -939.139256966698 0 0 152 (C1) n - 1
REM
REM in /home/nfs/bkarasulu/CARBON/AIRSS/Generating-Clusters/TERSOFF/Only-C1/FIRE-HFTN
REM
REM
REM
REM
REM
REM ./C.cell (11c1c37f851c82e70ff6c80c92926a4b)
REM AIRSS Version 0.9.1 bugfix July 2018 build 013d7b7c2542+ Fri, 06 Jul 2018 19:26:36 +0100
REM compiler GCC version 9.2.1 20190827 (Red Hat 9.2.1-1)
REM options -cpp -mtune=generic -march=x86-64 -g -O0 -fpre-include=/usr/include/finclude/math-vector-fortran.h
REM seed -1058820726 -768114674 -982797866 -526671493 -2053257106 -1755941387 2031956179 2013115233 1618994980 -403741576 737486095 961780244 1257322030 -970360082 1675162419 985541496 1890934111 388134383 -1765950369 1620933917 1657354680 -968501975 936660480 907990921 1759893166 -961943498 -930007028 478161001 516000854 220146136 -308694500 -260577724 -903181491
REM
CELL 1.54180   50.00000   50.00000   50.00000   90.00000   90.00000   90.00000
LATT -1
SFAC C  
C      1  0.4158990000000  0.4381390000000  0.5350360000000 1.0
C      1  0.4549690000000  0.5249000000000  0.5275900000000 1.0
C      1  0.4944540000000  0.5709950000000  0.5906480000000 1.0
C      1  0.4530360000000  0.5677460000000  0.4566000000000 1.0
C      1  0.5226160000000  0.5784840000000  0.5905410000000 1.0
C      1  0.3993760000000  0.5037440000000  0.4127590000000 1.0
C      1  0.4720970000000  0.5258690000000  0.3887130000000 1.0
C      1  0.4536910000000  0.5462080000000  0.5498010000000 1.0
C      1  0.4083690000000  0.5588170000000  0.4681590000000 1.0
C      1  0.4489320000000  0.5392910000000  0.3961700000000 1.0
C      1  0.5641120000000  0.5683670000000  0.5598960000000 1.0
C      1  0.4560150000000  0.3633780000000  0.5431950000000 1.0
C      1  0.4504700000000  0.4809730000000  0.4734610000000 1.0
C      1  0.3895280000000  0.4470490000000  0.5346860000000 1.0
C      1  0.5991430000000  0.5435380000000  0.4717080000000 1.0
C      1  0.5176320000000  0.5091200000000  0.5074190000000 1.0
C      1  0.5456950000000  0.5461220000000  0.5206120000000 1.0
C      1  0.4816100000000  0.6042720000000  0.4913460000000 1.0
C      1  0.5024610000000  0.5636540000000  0.5418770000000 1.0
C      1  0.5319400000000  0.5700660000000  0.4010030000000 1.0
C      1  0.4808280000000  0.4580480000000  0.6268220000000 1.0
C      1  0.5733470000000  0.5852410000000  0.4711950000000 1.0
C      1  0.4307470000000  0.2927490000000  0.5718280000000 1.0
C      1  0.4401740000000  0.4480470000000  0.4408990000000 1.0
C      1  0.5881980000000  0.5143440000000  0.5661110000000 1.0
C      1  0.5125420000000  0.5518100000000  0.4568070000000 1.0
C      1  0.6107610000000  0.5200940000000  0.5478390000000 1.0
C      1  0.4635920000000  0.5452170000000  0.4719070000000 1.0
C      1  0.4892340000000  0.5357260000000  0.4633020000000 1.0
C      1  0.4365360000000  0.5014270000000  0.4881110000000 1.0
C      1  0.4228950000000  0.5992150000000  0.4378880000000 1.0
C      1  0.5873030000000  0.4761210000000  0.4395540000000 1.0
C      1  0.4924760000000  0.3978630000000  0.5376370000000 1.0
C      1  0.4784570000000  0.4960970000000  0.5959010000000 1.0
C      1  0.4954370000000  0.6211360000000  0.5096370000000 1.0
C      1  0.5413420000000  0.4457970000000  0.5581200000000 1.0
C      1  0.4617880000000  0.4795240000000  0.4121840000000 1.0
C      1  0.4907130000000  0.5414840000000  0.5851120000000 1.0
C      1  0.4539380000000  0.4395010000000  0.5718610000000 1.0
C      1  0.5453480000000  0.5032470000000  0.5934530000000 1.0
C      1  0.5830200000000  0.4551350000000  0.5236850000000 1.0
C      1  0.4757170000000  0.4972730000000  0.3941640000000 1.0
C      1  0.5499120000000  0.5495040000000  0.4091470000000 1.0
C      1  0.4481650000000  0.6097220000000  0.4346410000000 1.0
C      1  0.4714860000000  0.5841140000000  0.5781720000000 1.0
C      1  0.4308770000000  0.4384090000000  0.5587270000000 1.0
C      1  0.5668090000000  0.4934650000000  0.4259700000000 1.0
C      1  0.4551050000000  0.5741200000000  0.5579650000000 1.0
C      1  0.5249230000000  0.5134810000000  0.6110450000000 1.0
C      1  0.5940700000000  0.4537080000000  0.4789980000000 1.0
C      1  0.5064680000000  0.5009910000000  0.5309570000000 1.0
C      1  0.5484920000000  0.5241040000000  0.4779680000000 1.0
C      1  0.5737820000000  0.4132070000000  0.4960760000000 1.0
C      1  0.3991460000000  0.5368940000000  0.4521280000000 1.0
C      1  0.5349920000000  0.4306050000000  0.5347430000000 1.0
C      1  0.4684090000000  0.5812910000000  0.5052150000000 1.0
C      1  0.5677750000000  0.5807940000000  0.4984590000000 1.0
C      1  0.4789590000000  0.4685550000000  0.6018330000000 1.0
C      1  0.6027250000000  0.5455350000000  0.5017040000000 1.0
C      1  0.5161830000000  0.5130020000000  0.5543070000000 1.0
C      1  0.5181650000000  0.5181370000000  0.3892840000000 1.0
C      1  0.5305910000000  0.4936850000000  0.5703790000000 1.0
C      1  0.5055800000000  0.4941640000000  0.3985640000000 1.0
C      1  0.6105320000000  0.5211620000000  0.5176510000000 1.0
C      1  0.4953680000000  0.4622470000000  0.5576590000000 1.0
C      1  0.5515840000000  0.4014900000000  0.4861110000000 1.0
C      1  0.5742650000000  0.5066550000000  0.5906510000000 1.0
C      1  0.6049230000000  0.4341030000000  0.6055360000000 1.0
C      1  0.4851810000000  0.4786690000000  0.5332570000000 1.0
C      1  0.3973170000000  0.4379040000000  0.4768240000000 1.0
C      1  0.4818810000000  0.3739800000000  0.5481540000000 1.0
C      1  0.4869370000000  0.4302880000000  0.5029600000000 1.0
C      1  0.5660550000000  0.5189780000000  0.5488210000000 1.0
C      1  0.5036860000000  0.4165620000000  0.4839900000000 1.0
C      1  0.5447270000000  0.5195470000000  0.5067170000000 1.0
C      1  0.5507270000000  0.5802530000000  0.5828480000000 1.0
C      1  0.4978380000000  0.5386890000000  0.3855640000000 1.0
C      1  0.4732030000000  0.4888310000000  0.4575040000000 1.0
C      1  0.4774900000000  0.4530560000000  0.5779310000000 1.0
C      1  0.5233530000000  0.4666180000000  0.5643630000000 1.0
C      1  0.4890910000000  0.5979880000000  0.4639760000000 1.0
C      1  0.4083890000000  0.5001910000000  0.4945040000000 1.0
C      1  0.4411180000000  0.4539310000000  0.4690200000000 1.0
C      1  0.5990020000000  0.5196490000000  0.4553610000000 1.0
C      1  0.4513580000000  0.5249980000000  0.4976490000000 1.0
C      1  0.5394260000000  0.4420500000000  0.5088950000000 1.0
C      1  0.5363450000000  0.4767480000000  0.4370710000000 1.0
C      1  0.5617640000000  0.5014700000000  0.3982440000000 1.0
C      1  0.3901180000000  0.4844530000000  0.4801580000000 1.0
C      1  0.4365120000000  0.4681680000000  0.4202100000000 1.0
C      1  0.5068170000000  0.6145010000000  0.5334300000000 1.0
C      1  0.4822820000000  0.4765270000000  0.4336670000000 1.0
C      1  0.5075350000000  0.5648440000000  0.3899270000000 1.0
C      1  0.3647970000000  0.4550870000000  0.5364380000000 1.0
C      1  0.5158670000000  0.5728880000000  0.4995470000000 1.0
C      1  0.5328080000000  0.4557250000000  0.4845180000000 1.0
C      1  0.4278570000000  0.5411140000000  0.4122860000000 1.0
C      1  0.6061680000000  0.4922310000000  0.4564390000000 1.0
C      1  0.4668110000000  0.5926330000000  0.4479760000000 1.0
C      1  0.4629380000000  0.5327990000000  0.5741680000000 1.0
C      1  0.4249430000000  0.5749030000000  0.4526340000000 1.0
C      1  0.4974610000000  0.5175430000000  0.6032900000000 1.0
C      1  0.5667590000000  0.5950930000000  0.5997930000000 1.0
C      1  0.5103720000000  0.5913470000000  0.5472770000000 1.0
C      1  0.5250160000000  0.3994090000000  0.4760270000000 1.0
C      1  0.5452020000000  0.5242230000000  0.3947550000000 1.0
C      1  0.5611570000000  0.5467330000000  0.4371990000000 1.0
C      1  0.5195180000000  0.3793930000000  0.4572550000000 1.0
C      1  0.4912750000000  0.5080140000000  0.4668790000000 1.0
C      1  0.4389510000000  0.3156830000000  0.5625330000000 1.0
C      1  0.5465380000000  0.4600290000000  0.4592630000000 1.0
C      1  0.5837830000000  0.4359570000000  0.5903970000000 1.0
C      1  0.4895610000000  0.4586420000000  0.5073660000000 1.0
C      1  0.4399740000000  0.5757450000000  0.5042400000000 1.0
C      1  0.5426930000000  0.5695120000000  0.5056430000000 1.0
C      1  0.4010160000000  0.5457490000000  0.5143140000000 1.0
C      1  0.5187890000000  0.4077280000000  0.5389260000000 1.0
C      1  0.5387670000000  0.5404290000000  0.4568560000000 1.0
C      1  0.4470910000000  0.4061800000000  0.5178230000000 1.0
C      1  0.5141310000000  0.3607660000000  0.4398420000000 1.0
C      1  0.3815610000000  0.5058020000000  0.3920390000000 1.0
C      1  0.5081880000000  0.4692370000000  0.4880470000000 1.0
C      1  0.5897880000000  0.5696870000000  0.5146520000000 1.0
C      1  0.4148730000000  0.5625020000000  0.4964290000000 1.0
C      1  0.5106620000000  0.4801020000000  0.4239730000000 1.0
C      1  0.4744910000000  0.4128300000000  0.5208770000000 1.0
C      1  0.5817430000000  0.4832890000000  0.5202950000000 1.0
C      1  0.4472880000000  0.3389890000000  0.5530850000000 1.0
C      1  0.5066220000000  0.5397720000000  0.5587190000000 1.0
C      1  0.4242730000000  0.4379330000000  0.4861720000000 1.0
C      1  0.4919860000000  0.5661100000000  0.5145730000000 1.0
C      1  0.4614720000000  0.4976880000000  0.5427780000000 1.0
C      1  0.5083110000000  0.4967540000000  0.4850120000000 1.0
C      1  0.3907810000000  0.4638780000000  0.4366160000000 1.0
C      1  0.5868240000000  0.4378360000000  0.5013180000000 1.0
C      1  0.5812980000000  0.5627290000000  0.4561930000000 1.0
C      1  0.3984260000000  0.5190160000000  0.5130160000000 1.0
C      1  0.5867010000000  0.5763570000000  0.5428880000000 1.0
C      1  0.6044280000000  0.4945930000000  0.5061200000000 1.0
C      1  0.4093000000000  0.4783030000000  0.4203910000000 1.0
C      1  0.5102750000000  0.5803660000000  0.4569100000000 1.0
C      1  0.5626780000000  0.4392190000000  0.5747220000000 1.0
C      1  0.4621790000000  0.5038780000000  0.5724570000000 1.0
C      1  0.5622570000000  0.5028870000000  0.5252790000000 1.0
C      1  0.4078580000000  0.5272170000000  0.4264900000000 1.0
C      1  0.4400200000000  0.3803990000000  0.5270550000000 1.0
C      1  0.5762210000000  0.5203750000000  0.4371240000000 1.0
C      1  0.4288800000000  0.4271240000000  0.5120000000000 1.0
C      1  0.5752590000000  0.4562670000000  0.4570610000000 1.0
C      1  0.3873570000000  0.4612740000000  0.4644120000000 1.0
C      1  0.5547270000000  0.5446940000000  0.5473320000000 1.0
C      1  0.6091540000000  0.4794760000000  0.4821020000000 1.0
END
