TITL C-612602-9376-363 3.75572606119971 125000 -736.992974557914 0 0 122 (C1) n - 1
REM
REM in /home/nfs/bkarasulu/CARBON/AIRSS/Generating-Clusters/TERSOFF/Only-C1/FIRE-HFTN
REM
REM
REM
REM
REM
REM ./C.cell (11c1c37f851c82e70ff6c80c92926a4b)
REM AIRSS Version 0.9.1 bugfix July 2018 build 013d7b7c2542+ Fri, 06 Jul 2018 19:26:36 +0100
REM compiler GCC version 9.2.1 20190827 (Red Hat 9.2.1-1)
REM options -cpp -mtune=generic -march=x86-64 -g -O0 -fpre-include=/usr/include/finclude/math-vector-fortran.h
REM seed -112050145 -1807827813 1182351180 -1366544662 -1384028342 -2087489743 -1789800389 -46781293 -1059513313 -140823111 337171039 -1948029191 2079349151 -1205336606 1404049313 -1542233194 1060698453 1776538836 -425494138 1316557945 477582389 -1455086927 1887108158 -60466929 1080500319 -1235227234 271149112 -1055464790 1328080263 -820656907 -1741445449 1335391300 -1914079442
REM
CELL 1.54180   50.00000   50.00000   50.00000   90.00000   90.00000   90.00000
LATT -1
SFAC C  
C      1  0.5582640000000  0.4034730000000  0.5548680000000 1.0
C      1  0.4360580000000  0.4404970000000  0.4297510000000 1.0
C      1  0.4803180000000  0.4103140000000  0.5185440000000 1.0
C      1  0.4256980000000  0.4786550000000  0.5453800000000 1.0
C      1  0.5900010000000  0.5269250000000  0.5233890000000 1.0
C      1  0.5389120000000  0.4138290000000  0.5987050000000 1.0
C      1  0.4046960000000  0.4203600000000  0.4898480000000 1.0
C      1  0.4766990000000  0.5529420000000  0.4838900000000 1.0
C      1  0.4312430000000  0.4128210000000  0.4301900000000 1.0
C      1  0.4523890000000  0.4393330000000  0.5469370000000 1.0
C      1  0.4717880000000  0.5219790000000  0.6104950000000 1.0
C      1  0.5734860000000  0.4907590000000  0.4641090000000 1.0
C      1  0.5185550000000  0.4788110000000  0.4554270000000 1.0
C      1  0.5035240000000  0.6198010000000  0.4906590000000 1.0
C      1  0.5834900000000  0.6518880000000  0.4982560000000 1.0
C      1  0.5055260000000  0.3969820000000  0.4243230000000 1.0
C      1  0.5261680000000  0.5511350000000  0.4761800000000 1.0
C      1  0.5026990000000  0.4586460000000  0.4670460000000 1.0
C      1  0.4938470000000  0.5369890000000  0.6078650000000 1.0
C      1  0.4511880000000  0.5052640000000  0.6065440000000 1.0
C      1  0.4931860000000  0.4187840000000  0.5648300000000 1.0
C      1  0.5506130000000  0.5677180000000  0.5633160000000 1.0
C      1  0.4924130000000  0.5321290000000  0.4154900000000 1.0
C      1  0.3913470000000  0.4709020000000  0.4972870000000 1.0
C      1  0.4919740000000  0.4655860000000  0.5796750000000 1.0
C      1  0.5487590000000  0.5594520000000  0.4925280000000 1.0
C      1  0.4216000000000  0.5413160000000  0.5684820000000 1.0
C      1  0.5333500000000  0.5074180000000  0.5497150000000 1.0
C      1  0.5013880000000  0.4163990000000  0.4038550000000 1.0
C      1  0.5082470000000  0.6395780000000  0.4473850000000 1.0
C      1  0.5317480000000  0.3993160000000  0.4349390000000 1.0
C      1  0.4504860000000  0.5134110000000  0.4712760000000 1.0
C      1  0.4377990000000  0.3988660000000  0.4541960000000 1.0
C      1  0.4205970000000  0.5048230000000  0.5358720000000 1.0
C      1  0.5622120000000  0.4761290000000  0.4867140000000 1.0
C      1  0.5877670000000  0.5479360000000  0.5397550000000 1.0
C      1  0.5115900000000  0.3970340000000  0.5644140000000 1.0
C      1  0.4648040000000  0.5796240000000  0.5392750000000 1.0
C      1  0.4446550000000  0.4620210000000  0.5305340000000 1.0
C      1  0.4881620000000  0.4256860000000  0.4962390000000 1.0
C      1  0.4623070000000  0.5247790000000  0.5463130000000 1.0
C      1  0.5665090000000  0.5664040000000  0.5397770000000 1.0
C      1  0.5634400000000  0.4832610000000  0.4391080000000 1.0
C      1  0.5154470000000  0.5484700000000  0.5967120000000 1.0
C      1  0.4994180000000  0.4392270000000  0.5843380000000 1.0
C      1  0.4776430000000  0.6074120000000  0.4980140000000 1.0
C      1  0.4010040000000  0.4966110000000  0.4888220000000 1.0
C      1  0.5237670000000  0.4578890000000  0.5167210000000 1.0
C      1  0.5195690000000  0.4324580000000  0.6032650000000 1.0
C      1  0.4628050000000  0.4527010000000  0.4309890000000 1.0
C      1  0.4170740000000  0.5119050000000  0.5079560000000 1.0
C      1  0.5573950000000  0.5866730000000  0.4500120000000 1.0
C      1  0.4719250000000  0.5344480000000  0.4619050000000 1.0
C      1  0.4343850000000  0.5240890000000  0.5516810000000 1.0
C      1  0.5009340000000  0.4643390000000  0.3920630000000 1.0
C      1  0.4745710000000  0.6033770000000  0.5273380000000 1.0
C      1  0.5283360000000  0.4894030000000  0.5250460000000 1.0
C      1  0.5030790000000  0.5619100000000  0.4893890000000 1.0
C      1  0.4198010000000  0.4029910000000  0.4758210000000 1.0
C      1  0.4841450000000  0.3864390000000  0.4394760000000 1.0
C      1  0.5668310000000  0.6025740000000  0.5076830000000 1.0
C      1  0.4812950000000  0.5030420000000  0.5420670000000 1.0
C      1  0.4047000000000  0.4991190000000  0.4592850000000 1.0
C      1  0.4661630000000  0.3981900000000  0.4580070000000 1.0
C      1  0.5166330000000  0.6207190000000  0.4655430000000 1.0
C      1  0.4522890000000  0.4826300000000  0.4825000000000 1.0
C      1  0.5857640000000  0.4199140000000  0.5181300000000 1.0
C      1  0.4993500000000  0.5038250000000  0.4915460000000 1.0
C      1  0.5896590000000  0.6769240000000  0.4921460000000 1.0
C      1  0.4839300000000  0.4851120000000  0.4001040000000 1.0
C      1  0.5749280000000  0.4216690000000  0.4383170000000 1.0
C      1  0.4384810000000  0.4437310000000  0.5720390000000 1.0
C      1  0.4994770000000  0.4994770000000  0.5191240000000 1.0
C      1  0.5799650000000  0.5172950000000  0.4745400000000 1.0
C      1  0.4303270000000  0.5091960000000  0.4490800000000 1.0
C      1  0.5483200000000  0.4223000000000  0.4322890000000 1.0
C      1  0.5740920000000  0.5156930000000  0.5035240000000 1.0
C      1  0.5422790000000  0.4397290000000  0.5274760000000 1.0
C      1  0.5597220000000  0.5761030000000  0.5134240000000 1.0
C      1  0.4368100000000  0.4637230000000  0.4686310000000 1.0
C      1  0.5624160000000  0.4210280000000  0.5332930000000 1.0
C      1  0.4706450000000  0.5503310000000  0.5337520000000 1.0
C      1  0.5137150000000  0.4421300000000  0.4033600000000 1.0
C      1  0.5733210000000  0.5649040000000  0.4503330000000 1.0
C      1  0.4273580000000  0.4705310000000  0.5737570000000 1.0
C      1  0.5383160000000  0.3995810000000  0.5740840000000 1.0
C      1  0.4763940000000  0.4215730000000  0.4702490000000 1.0
C      1  0.4390220000000  0.5271500000000  0.4966930000000 1.0
C      1  0.4905110000000  0.5122450000000  0.3976740000000 1.0
C      1  0.5012730000000  0.5484260000000  0.5357540000000 1.0
C      1  0.4630650000000  0.4787790000000  0.4183780000000 1.0
C      1  0.5187490000000  0.5304240000000  0.4575900000000 1.0
C      1  0.4195580000000  0.4561800000000  0.4469520000000 1.0
C      1  0.5499450000000  0.4976090000000  0.5700450000000 1.0
C      1  0.5818310000000  0.5409800000000  0.4594100000000 1.0
C      1  0.5202100000000  0.5337830000000  0.5517460000000 1.0
C      1  0.3983880000000  0.4747660000000  0.4448870000000 1.0
C      1  0.4963460000000  0.6200200000000  0.5373800000000 1.0
C      1  0.4746840000000  0.4226280000000  0.5436050000000 1.0
C      1  0.6072460000000  0.4200320000000  0.5033740000000 1.0
C      1  0.4586460000000  0.5468610000000  0.5053810000000 1.0
C      1  0.4572800000000  0.4736980000000  0.5085240000000 1.0
C      1  0.5129100000000  0.6288040000000  0.5167800000000 1.0
C      1  0.4936060000000  0.5347120000000  0.4431580000000 1.0
C      1  0.4777840000000  0.3831020000000  0.5162030000000 1.0
C      1  0.5382580000000  0.4707860000000  0.4361700000000 1.0
C      1  0.6015830000000  0.7266320000000  0.4798530000000 1.0
C      1  0.4854890000000  0.4858890000000  0.5639690000000 1.0
C      1  0.5764000000000  0.6269750000000  0.5038350000000 1.0
C      1  0.5351770000000  0.4460030000000  0.4223010000000 1.0
C      1  0.5062790000000  0.4487900000000  0.4951580000000 1.0
C      1  0.5652530000000  0.4867400000000  0.5881120000000 1.0
C      1  0.5548890000000  0.4941020000000  0.5084680000000 1.0
C      1  0.4431400000000  0.4981550000000  0.4257770000000 1.0
C      1  0.5956720000000  0.7019840000000  0.4859490000000 1.0
C      1  0.5302490000000  0.5505960000000  0.5729020000000 1.0
C      1  0.5095370000000  0.5671540000000  0.5162320000000 1.0
C      1  0.4344140000000  0.4880470000000  0.5945720000000 1.0
C      1  0.3941700000000  0.4440680000000  0.4970830000000 1.0
C      1  0.4809300000000  0.4449850000000  0.4528720000000 1.0
C      1  0.5379250000000  0.6035700000000  0.4577870000000 1.0
C      1  0.5155990000000  0.5039640000000  0.4682120000000 1.0
END
