TITL C-612603-7354-1471 0.0199235573739949 125000 -1129.15453222403 0 0 185 (C1) n - 1
REM
REM in /home/nfs/bkarasulu/CARBON/AIRSS/Generating-Clusters/TERSOFF/Only-C1/FIRE-HFTN
REM
REM
REM
REM
REM
REM ./C.cell (11c1c37f851c82e70ff6c80c92926a4b)
REM AIRSS Version 0.9.1 bugfix July 2018 build 013d7b7c2542+ Fri, 06 Jul 2018 19:26:36 +0100
REM compiler GCC version 9.2.1 20190827 (Red Hat 9.2.1-1)
REM options -cpp -mtune=generic -march=x86-64 -g -O0 -fpre-include=/usr/include/finclude/math-vector-fortran.h
REM seed 77209438 1805739290 -2082612082 239822925 490301521 -1996817600 1703857587 -1093151432 893032434 -398171516 -1583232137 1376655291 -1508390552 1051511795 1450296115 -915874934 -710394282 1457016578 -1674140258 -1493383767 1508686465 1083794949 1861278231 606880706 -1139828270 -1754893491 486929449 167746271 -668724038 1763397243 -1383518566 -582300995 -279347541
REM
CELL 1.54180   50.00000   50.00000   50.00000   90.00000   90.00000   90.00000
LATT -1
SFAC C  
C      1  0.5404140000000  0.4858830000000  0.6117220000000 1.0
C      1  0.4695350000000  0.5035220000000  0.5424140000000 1.0
C      1  0.5599150000000  0.5961500000000  0.4448030000000 1.0
C      1  0.4280790000000  0.5669170000000  0.5820800000000 1.0
C      1  0.4588960000000  0.4631180000000  0.5573300000000 1.0
C      1  0.4687480000000  0.4603650000000  0.4077520000000 1.0
C      1  0.5567430000000  0.4045690000000  0.4615710000000 1.0
C      1  0.6015320000000  0.4180560000000  0.4859270000000 1.0
C      1  0.4727180000000  0.4772630000000  0.3848670000000 1.0
C      1  0.3621750000000  0.5082780000000  0.4830340000000 1.0
C      1  0.5438360000000  0.5486710000000  0.4528120000000 1.0
C      1  0.5574090000000  0.5014870000000  0.5943980000000 1.0
C      1  0.3948420000000  0.4962570000000  0.5174660000000 1.0
C      1  0.6007290000000  0.4442110000000  0.4993210000000 1.0
C      1  0.4682170000000  0.5130340000000  0.5164360000000 1.0
C      1  0.3904380000000  0.3963210000000  0.5006060000000 1.0
C      1  0.4823840000000  0.5476370000000  0.5566340000000 1.0
C      1  0.5631770000000  0.5960320000000  0.4745590000000 1.0
C      1  0.5203470000000  0.5632260000000  0.4533460000000 1.0
C      1  0.6585650000000  0.3458580000000  0.4853830000000 1.0
C      1  0.6009170000000  0.4502220000000  0.5279110000000 1.0
C      1  0.5198770000000  0.5698940000000  0.5018670000000 1.0
C      1  0.4723490000000  0.6250490000000  0.4982760000000 1.0
C      1  0.4045710000000  0.4169810000000  0.4887980000000 1.0
C      1  0.5937980000000  0.5525640000000  0.4770020000000 1.0
C      1  0.5896850000000  0.4666820000000  0.4845890000000 1.0
C      1  0.5641480000000  0.5174610000000  0.4829800000000 1.0
C      1  0.4867360000000  0.5308900000000  0.4549150000000 1.0
C      1  0.3978690000000  0.4440210000000  0.4978350000000 1.0
C      1  0.5115700000000  0.4268420000000  0.4923330000000 1.0
C      1  0.4538510000000  0.5597780000000  0.4233000000000 1.0
C      1  0.5093200000000  0.4802570000000  0.4933290000000 1.0
C      1  0.5503250000000  0.4502580000000  0.5046160000000 1.0
C      1  0.4467260000000  0.5109590000000  0.5566630000000 1.0
C      1  0.5308770000000  0.3894720000000  0.4592730000000 1.0
C      1  0.5914800000000  0.5562890000000  0.4294280000000 1.0
C      1  0.5559030000000  0.6386290000000  0.5838390000000 1.0
C      1  0.5146200000000  0.5242890000000  0.5109250000000 1.0
C      1  0.5407290000000  0.5161700000000  0.4113870000000 1.0
C      1  0.4435340000000  0.5112760000000  0.6154500000000 1.0
C      1  0.5420760000000  0.5091800000000  0.5709140000000 1.0
C      1  0.4755240000000  0.3840760000000  0.4631540000000 1.0
C      1  0.5798670000000  0.3987860000000  0.4787380000000 1.0
C      1  0.5101350000000  0.4585360000000  0.5840590000000 1.0
C      1  0.4997050000000  0.4634570000000  0.5142080000000 1.0
C      1  0.4563600000000  0.4941770000000  0.4560710000000 1.0
C      1  0.5652820000000  0.4728310000000  0.4976120000000 1.0
C      1  0.4067100000000  0.4707350000000  0.5064610000000 1.0
C      1  0.5304340000000  0.6324560000000  0.4764750000000 1.0
C      1  0.4981470000000  0.5519430000000  0.4404890000000 1.0
C      1  0.4441880000000  0.5740160000000  0.4735530000000 1.0
C      1  0.5084830000000  0.4766060000000  0.5608310000000 1.0
C      1  0.5759250000000  0.5869000000000  0.5353910000000 1.0
C      1  0.4578460000000  0.5827330000000  0.5205340000000 1.0
C      1  0.5945150000000  0.5259960000000  0.5713670000000 1.0
C      1  0.5531700000000  0.4974140000000  0.4981410000000 1.0
C      1  0.5275170000000  0.6312500000000  0.4495450000000 1.0
C      1  0.5815900000000  0.3727590000000  0.4894100000000 1.0
C      1  0.5176320000000  0.5571750000000  0.3892130000000 1.0
C      1  0.3868240000000  0.5892990000000  0.5929680000000 1.0
C      1  0.4847330000000  0.5050690000000  0.4174290000000 1.0
C      1  0.4910790000000  0.4522240000000  0.4566930000000 1.0
C      1  0.4526320000000  0.4172190000000  0.5493920000000 1.0
C      1  0.5882730000000  0.4745850000000  0.4566720000000 1.0
C      1  0.4507650000000  0.3696330000000  0.5364540000000 1.0
C      1  0.5409760000000  0.5045990000000  0.4375920000000 1.0
C      1  0.4069750000000  0.4482830000000  0.4393430000000 1.0
C      1  0.4757490000000  0.5088470000000  0.4426200000000 1.0
C      1  0.5032510000000  0.5772080000000  0.4036280000000 1.0
C      1  0.5262810000000  0.5004670000000  0.5031050000000 1.0
C      1  0.5073590000000  0.4254100000000  0.5462850000000 1.0
C      1  0.4429570000000  0.4833640000000  0.4761390000000 1.0
C      1  0.6383970000000  0.3298500000000  0.4926540000000 1.0
C      1  0.6275910000000  0.4098350000000  0.4783820000000 1.0
C      1  0.4647890000000  0.6433790000000  0.4813640000000 1.0
C      1  0.4824650000000  0.5659820000000  0.4210880000000 1.0
C      1  0.4599700000000  0.5602510000000  0.6167940000000 1.0
C      1  0.5918800000000  0.5878750000000  0.5119840000000 1.0
C      1  0.5858780000000  0.4643320000000  0.5465580000000 1.0
C      1  0.5708590000000  0.4526580000000  0.4446810000000 1.0
C      1  0.5172910000000  0.4648330000000  0.4190870000000 1.0
C      1  0.4156300000000  0.4701770000000  0.5900370000000 1.0
C      1  0.5335760000000  0.5476910000000  0.5999090000000 1.0
C      1  0.4350040000000  0.4705250000000  0.4996340000000 1.0
C      1  0.5850660000000  0.5797250000000  0.4854630000000 1.0
C      1  0.4993870000000  0.4769450000000  0.3752410000000 1.0
C      1  0.5369070000000  0.4373460000000  0.4838420000000 1.0
C      1  0.5265720000000  0.5484310000000  0.5181940000000 1.0
C      1  0.6120240000000  0.3317850000000  0.4965130000000 1.0
C      1  0.5337630000000  0.6090380000000  0.5207510000000 1.0
C      1  0.5794690000000  0.4423580000000  0.3917010000000 1.0
C      1  0.4704260000000  0.5653410000000  0.4791570000000 1.0
C      1  0.5547710000000  0.6532300000000  0.6054060000000 1.0
C      1  0.5366550000000  0.6097120000000  0.4333930000000 1.0
C      1  0.4808830000000  0.5397680000000  0.4802720000000 1.0
C      1  0.4373860000000  0.4666720000000  0.5748360000000 1.0
C      1  0.5280600000000  0.5336740000000  0.5745110000000 1.0
C      1  0.5478120000000  0.4460210000000  0.5319260000000 1.0
C      1  0.4381440000000  0.5098190000000  0.3998870000000 1.0
C      1  0.5509910000000  0.5222330000000  0.4579160000000 1.0
C      1  0.4903650000000  0.4954320000000  0.6104250000000 1.0
C      1  0.6494310000000  0.3948280000000  0.4763480000000 1.0
C      1  0.4641830000000  0.4311680000000  0.4947070000000 1.0
C      1  0.5773010000000  0.5795050000000  0.4294230000000 1.0
C      1  0.4625270000000  0.4875710000000  0.6146920000000 1.0
C      1  0.5963810000000  0.5037220000000  0.4496010000000 1.0
C      1  0.5530800000000  0.4334920000000  0.4600230000000 1.0
C      1  0.4414260000000  0.4230890000000  0.4223630000000 1.0
C      1  0.5448720000000  0.5519560000000  0.5384220000000 1.0
C      1  0.4134470000000  0.6057300000000  0.5571090000000 1.0
C      1  0.4193580000000  0.5392730000000  0.5794680000000 1.0
C      1  0.5435240000000  0.6122580000000  0.4922060000000 1.0
C      1  0.5976560000000  0.5385930000000  0.4508320000000 1.0
C      1  0.4091650000000  0.5876200000000  0.5771800000000 1.0
C      1  0.4204550000000  0.4667350000000  0.4209730000000 1.0
C      1  0.5915640000000  0.3488110000000  0.4951880000000 1.0
C      1  0.5099150000000  0.4323200000000  0.5727190000000 1.0
C      1  0.4775280000000  0.6044270000000  0.5163970000000 1.0
C      1  0.3957410000000  0.5356250000000  0.4372700000000 1.0
C      1  0.4983350000000  0.5326500000000  0.5748510000000 1.0
C      1  0.5130450000000  0.4765720000000  0.6068570000000 1.0
C      1  0.5319000000000  0.5349010000000  0.3942760000000 1.0
C      1  0.4262800000000  0.5378190000000  0.5252620000000 1.0
C      1  0.4814930000000  0.4806850000000  0.5529410000000 1.0
C      1  0.4674270000000  0.5625590000000  0.5393170000000 1.0
C      1  0.4193480000000  0.5166720000000  0.5993380000000 1.0
C      1  0.5159560000000  0.5776850000000  0.4767310000000 1.0
C      1  0.4425940000000  0.5213150000000  0.5092910000000 1.0
C      1  0.4138830000000  0.5581250000000  0.5099430000000 1.0
C      1  0.5085450000000  0.4744710000000  0.4650140000000 1.0
C      1  0.3848730000000  0.4986900000000  0.5692970000000 1.0
C      1  0.4647400000000  0.4079130000000  0.4179440000000 1.0
C      1  0.4531890000000  0.3964580000000  0.5293560000000 1.0
C      1  0.4935790000000  0.6002950000000  0.5615160000000 1.0
C      1  0.4464630000000  0.5023370000000  0.3524820000000 1.0
C      1  0.5202960000000  0.4705030000000  0.3914140000000 1.0
C      1  0.5838010000000  0.5113710000000  0.5916890000000 1.0
C      1  0.5706180000000  0.5605820000000  0.5450600000000 1.0
C      1  0.4210250000000  0.5257020000000  0.5518070000000 1.0
C      1  0.6621190000000  0.3715330000000  0.4788910000000 1.0
C      1  0.5192230000000  0.5987990000000  0.4136820000000 1.0
C      1  0.4216030000000  0.4228430000000  0.4432990000000 1.0
C      1  0.4183600000000  0.4946920000000  0.4152800000000 1.0
C      1  0.4524900000000  0.4966070000000  0.3785860000000 1.0
C      1  0.5955730000000  0.5287920000000  0.5210070000000 1.0
C      1  0.4563420000000  0.4042200000000  0.5018700000000 1.0
C      1  0.5898280000000  0.5393570000000  0.5467730000000 1.0
C      1  0.4544730000000  0.5742220000000  0.5925790000000 1.0
C      1  0.4358490000000  0.5673890000000  0.4463460000000 1.0
C      1  0.5013800000000  0.6053140000000  0.5336040000000 1.0
C      1  0.5853840000000  0.5319840000000  0.4948530000000 1.0
C      1  0.4340470000000  0.5773290000000  0.5012160000000 1.0
C      1  0.3987810000000  0.5107860000000  0.4277190000000 1.0
C      1  0.5053150000000  0.4356460000000  0.5198650000000 1.0
C      1  0.5249220000000  0.4815920000000  0.4419720000000 1.0
C      1  0.5568190000000  0.4670460000000  0.5489200000000 1.0
C      1  0.3909250000000  0.5441450000000  0.4992690000000 1.0
C      1  0.4896040000000  0.4192830000000  0.4190650000000 1.0
C      1  0.4514150000000  0.4502820000000  0.5109000000000 1.0
C      1  0.4445040000000  0.5371380000000  0.4072790000000 1.0
C      1  0.4570650000000  0.4341720000000  0.6006910000000 1.0
C      1  0.4539440000000  0.5356910000000  0.6265420000000 1.0
C      1  0.4944440000000  0.5229010000000  0.6032440000000 1.0
C      1  0.5554680000000  0.6067840000000  0.5398380000000 1.0
C      1  0.5355280000000  0.4863150000000  0.5555300000000 1.0
C      1  0.5838140000000  0.4374140000000  0.3664770000000 1.0
C      1  0.3827470000000  0.5162370000000  0.4994650000000 1.0
C      1  0.4920260000000  0.4485020000000  0.4257790000000 1.0
C      1  0.4430340000000  0.4505500000000  0.4125280000000 1.0
C      1  0.4870460000000  0.4335140000000  0.4776910000000 1.0
C      1  0.4534590000000  0.4436350000000  0.5382660000000 1.0
C      1  0.5136030000000  0.5397500000000  0.6177510000000 1.0
C      1  0.4091890000000  0.5579580000000  0.4434250000000 1.0
C      1  0.4543070000000  0.4178390000000  0.5785370000000 1.0
C      1  0.4499370000000  0.3934370000000  0.4754740000000 1.0
C      1  0.4582140000000  0.4586040000000  0.6136040000000 1.0
C      1  0.5741930000000  0.4477770000000  0.4170890000000 1.0
C      1  0.5034350000000  0.3841480000000  0.4603860000000 1.0
C      1  0.4746250000000  0.5909540000000  0.5794470000000 1.0
C      1  0.4244570000000  0.4090320000000  0.4680850000000 1.0
C      1  0.3980120000000  0.5060700000000  0.5450990000000 1.0
C      1  0.4019440000000  0.4946210000000  0.5918620000000 1.0
C      1  0.4880910000000  0.5260130000000  0.5029550000000 1.0
C      1  0.4483120000000  0.3444440000000  0.5426620000000 1.0
C      1  0.5566490000000  0.6236190000000  0.5620240000000 1.0
END
