TITL C-612607-4507-507 155.335349656507 125000 -752.055666745734 0 0 122 (C1) n - 1
REM
REM in /home/nfs/bkarasulu/CARBON/AIRSS/Generating-Clusters/TERSOFF/Only-C1/FIRE-HFTN
REM
REM
REM
REM
REM
REM ./C.cell (11c1c37f851c82e70ff6c80c92926a4b)
REM AIRSS Version 0.9.1 bugfix July 2018 build 013d7b7c2542+ Fri, 06 Jul 2018 19:26:36 +0100
REM compiler GCC version 9.2.1 20190827 (Red Hat 9.2.1-1)
REM options -cpp -mtune=generic -march=x86-64 -g -O0 -fpre-include=/usr/include/finclude/math-vector-fortran.h
REM seed -547903185 -1269999111 1893997650 -480299102 1640983333 1101895203 1679174557 -1014837148 1083578133 -1360034230 -1250850524 -557064376 -1314489577 1682178779 1913756511 -262757551 1064123983 -400619593 1150214299 -252216375 1668792335 212676995 1921068784 488322086 875924656 947139265 -643240910 213030598 -1503434360 -623187477 1116827112 1319808781 160937927
REM
CELL 1.54180   50.00000   50.00000   50.00000   90.00000   90.00000   90.00000
LATT -1
SFAC C  
C      1  0.4978530000000  0.4555060000000  0.5081010000000 1.0
C      1  0.4879060000000  0.5458860000000  0.5850060000000 1.0
C      1  0.4627930000000  0.4746690000000  0.5718710000000 1.0
C      1  0.5047060000000  0.4194630000000  0.5624070000000 1.0
C      1  0.4500710000000  0.5261180000000  0.4726570000000 1.0
C      1  0.4730550000000  0.5803460000000  0.5497900000000 1.0
C      1  0.4336680000000  0.4972610000000  0.4315800000000 1.0
C      1  0.4649260000000  0.4817580000000  0.4886900000000 1.0
C      1  0.5042150000000  0.5595820000000  0.4680030000000 1.0
C      1  0.4803710000000  0.5055060000000  0.4346160000000 1.0
C      1  0.5713040000000  0.5506130000000  0.5711230000000 1.0
C      1  0.4855130000000  0.5701050000000  0.4270800000000 1.0
C      1  0.5012250000000  0.4480250000000  0.4059940000000 1.0
C      1  0.4889080000000  0.4958270000000  0.4820020000000 1.0
C      1  0.5046750000000  0.4481830000000  0.5605550000000 1.0
C      1  0.4521160000000  0.5385820000000  0.4096990000000 1.0
C      1  0.5633960000000  0.4442760000000  0.4620760000000 1.0
C      1  0.4385920000000  0.4227170000000  0.4681930000000 1.0
C      1  0.5665020000000  0.4934980000000  0.4605240000000 1.0
C      1  0.5261030000000  0.5215160000000  0.6476730000000 1.0
C      1  0.4724160000000  0.5263670000000  0.5433710000000 1.0
C      1  0.4665550000000  0.4023180000000  0.5450130000000 1.0
C      1  0.5818180000000  0.5415400000000  0.5245420000000 1.0
C      1  0.5436900000000  0.4999000000000  0.3985160000000 1.0
C      1  0.5036360000000  0.5283830000000  0.4047140000000 1.0
C      1  0.4762940000000  0.4818150000000  0.4204120000000 1.0
C      1  0.4414230000000  0.5488400000000  0.4577310000000 1.0
C      1  0.5170040000000  0.6076570000000  0.4977600000000 1.0
C      1  0.5652050000000  0.4852130000000  0.5145540000000 1.0
C      1  0.5817280000000  0.4393450000000  0.5085380000000 1.0
C      1  0.4215400000000  0.4574580000000  0.5188500000000 1.0
C      1  0.4780090000000  0.5813160000000  0.5220940000000 1.0
C      1  0.4806240000000  0.4612290000000  0.5551580000000 1.0
C      1  0.5257120000000  0.4573070000000  0.5435310000000 1.0
C      1  0.4780410000000  0.4145300000000  0.4987320000000 1.0
C      1  0.5864200000000  0.4645450000000  0.5770780000000 1.0
C      1  0.5035490000000  0.5074590000000  0.5044720000000 1.0
C      1  0.4724250000000  0.3986520000000  0.5949350000000 1.0
C      1  0.5874730000000  0.5106750000000  0.5947320000000 1.0
C      1  0.4171880000000  0.5412660000000  0.4436460000000 1.0
C      1  0.4633510000000  0.4868250000000  0.5169800000000 1.0
C      1  0.5748950000000  0.5405020000000  0.4460390000000 1.0
C      1  0.5414650000000  0.4992340000000  0.4737600000000 1.0
C      1  0.4787050000000  0.5680240000000  0.5729260000000 1.0
C      1  0.4764280000000  0.5245770000000  0.4134960000000 1.0
C      1  0.5521550000000  0.5567980000000  0.4531020000000 1.0
C      1  0.4613500000000  0.5660360000000  0.4112980000000 1.0
C      1  0.4359420000000  0.4317610000000  0.4431500000000 1.0
C      1  0.4989450000000  0.4765690000000  0.4035120000000 1.0
C      1  0.5525900000000  0.5805460000000  0.4693840000000 1.0
C      1  0.4974680000000  0.4334450000000  0.4901000000000 1.0
C      1  0.5300540000000  0.5650430000000  0.5089240000000 1.0
C      1  0.5823620000000  0.4668560000000  0.4994510000000 1.0
C      1  0.4224620000000  0.5227470000000  0.5510640000000 1.0
C      1  0.4052020000000  0.5306480000000  0.4934840000000 1.0
C      1  0.5575860000000  0.4229360000000  0.5051460000000 1.0
C      1  0.5154860000000  0.5013860000000  0.3986290000000 1.0
C      1  0.4799830000000  0.5562620000000  0.5070900000000 1.0
C      1  0.5402760000000  0.5644220000000  0.5354440000000 1.0
C      1  0.4188880000000  0.4742170000000  0.5431530000000 1.0
C      1  0.4930120000000  0.6032550000000  0.5104940000000 1.0
C      1  0.5061470000000  0.5553490000000  0.4957710000000 1.0
C      1  0.5663860000000  0.5278570000000  0.5875230000000 1.0
C      1  0.4527800000000  0.5726760000000  0.4687270000000 1.0
C      1  0.5400560000000  0.5201320000000  0.5955460000000 1.0
C      1  0.4176790000000  0.4774040000000  0.4965720000000 1.0
C      1  0.5377820000000  0.5882990000000  0.4923980000000 1.0
C      1  0.6173820000000  0.5507240000000  0.4664520000000 1.0
C      1  0.4353720000000  0.5746130000000  0.4933730000000 1.0
C      1  0.4623520000000  0.5146460000000  0.5211960000000 1.0
C      1  0.5103640000000  0.5519160000000  0.4216370000000 1.0
C      1  0.4626160000000  0.5329880000000  0.4990270000000 1.0
C      1  0.6084760000000  0.5653390000000  0.4219480000000 1.0
C      1  0.4417170000000  0.4152120000000  0.5395280000000 1.0
C      1  0.4404640000000  0.5136040000000  0.5717570000000 1.0
C      1  0.4350790000000  0.4316260000000  0.5170410000000 1.0
C      1  0.5673600000000  0.4628950000000  0.5568250000000 1.0
C      1  0.4386240000000  0.5016720000000  0.4602150000000 1.0
C      1  0.5124100000000  0.4210350000000  0.4445660000000 1.0
C      1  0.5770190000000  0.4684550000000  0.4702730000000 1.0
C      1  0.5461960000000  0.4278160000000  0.4788790000000 1.0
C      1  0.4189320000000  0.5535110000000  0.5080680000000 1.0
C      1  0.4499430000000  0.4452280000000  0.4227100000000 1.0
C      1  0.5288880000000  0.5810500000000  0.5541650000000 1.0
C      1  0.4803230000000  0.4060530000000  0.5701410000000 1.0
C      1  0.4670070000000  0.5028400000000  0.5791280000000 1.0
C      1  0.5212440000000  0.5110190000000  0.5757400000000 1.0
C      1  0.4390260000000  0.4800590000000  0.4777920000000 1.0
C      1  0.3987490000000  0.5347160000000  0.4652410000000 1.0
C      1  0.5177520000000  0.5115820000000  0.5271260000000 1.0
C      1  0.4758460000000  0.4334720000000  0.4155530000000 1.0
C      1  0.4286530000000  0.5252730000000  0.4214620000000 1.0
C      1  0.4862300000000  0.4137910000000  0.4347450000000 1.0
C      1  0.5330110000000  0.5208160000000  0.6225560000000 1.0
C      1  0.4870440000000  0.4017350000000  0.5232050000000 1.0
C      1  0.5652220000000  0.5048220000000  0.4136360000000 1.0
C      1  0.6006960000000  0.5524140000000  0.4448050000000 1.0
C      1  0.5185160000000  0.4262080000000  0.4717270000000 1.0
C      1  0.4807840000000  0.5732470000000  0.4564190000000 1.0
C      1  0.4488540000000  0.4740320000000  0.4210810000000 1.0
C      1  0.4217530000000  0.5477420000000  0.5365230000000 1.0
C      1  0.5336220000000  0.5037350000000  0.5498920000000 1.0
C      1  0.5643250000000  0.5511550000000  0.5432830000000 1.0
C      1  0.4775430000000  0.4649730000000  0.5271870000000 1.0
C      1  0.4066380000000  0.5038340000000  0.5066570000000 1.0
C      1  0.4103380000000  0.5012360000000  0.5358670000000 1.0
C      1  0.5230570000000  0.5159350000000  0.4582000000000 1.0
C      1  0.5498390000000  0.4419270000000  0.5477230000000 1.0
C      1  0.5148170000000  0.4081340000000  0.5360970000000 1.0
C      1  0.5398650000000  0.4844620000000  0.4994450000000 1.0
C      1  0.5594100000000  0.4880240000000  0.5431170000000 1.0
C      1  0.5950510000000  0.4851610000000  0.5919090000000 1.0
C      1  0.4924060000000  0.5176740000000  0.5814180000000 1.0
C      1  0.5226640000000  0.4367010000000  0.4222090000000 1.0
C      1  0.5244570000000  0.5455090000000  0.4491230000000 1.0
C      1  0.5227530000000  0.4664420000000  0.5154270000000 1.0
C      1  0.4500380000000  0.4221600000000  0.4938020000000 1.0
C      1  0.5835630000000  0.5725510000000  0.5821900000000 1.0
C      1  0.4967110000000  0.5052180000000  0.4570480000000 1.0
C      1  0.5724770000000  0.5122630000000  0.4398560000000 1.0
C      1  0.4353700000000  0.4734010000000  0.5657630000000 1.0
C      1  0.5430690000000  0.4183030000000  0.5300630000000 1.0
END
