TITL C-612607-4507-391 18147.0245015326 125000 -1032.94919991216 0 0 173 (C1) n - 1
REM
REM in /home/nfs/bkarasulu/CARBON/AIRSS/Generating-Clusters/TERSOFF/Only-C1/FIRE-HFTN
REM
REM
REM
REM
REM
REM ./C.cell (11c1c37f851c82e70ff6c80c92926a4b)
REM AIRSS Version 0.9.1 bugfix July 2018 build 013d7b7c2542+ Fri, 06 Jul 2018 19:26:36 +0100
REM compiler GCC version 9.2.1 20190827 (Red Hat 9.2.1-1)
REM options -cpp -mtune=generic -march=x86-64 -g -O0 -fpre-include=/usr/include/finclude/math-vector-fortran.h
REM seed 2095653901 1299106069 1741340703 1295821248 -1073956097 1805838604 -1654939424 559510999 925692310 1256118975 236764812 -740210455 -1120129677 -909402396 1330394706 1985378399 702298313 1446184431 -33065326 1455406260 -1404601864 -427176208 -426676977 -2118592613 1179437683 1161245303 417914271 1436924602 -466460172 -1130467155 397848647 -1107262223 834263090
REM
CELL 1.54180   50.00000   50.00000   50.00000   90.00000   90.00000   90.00000
LATT -1
SFAC C  
C      1  0.4761430000000  0.5851630000000  0.5085250000000 1.0
C      1  0.5419410000000  0.5211040000000  0.4859850000000 1.0
C      1  0.5848520000000  0.4226360000000  0.5118450000000 1.0
C      1  0.5245570000000  0.5701060000000  0.6076800000000 1.0
C      1  0.4501790000000  0.4687320000000  0.6283670000000 1.0
C      1  0.4680630000000  0.5178530000000  0.5115710000000 1.0
C      1  0.4482700000000  0.5572110000000  0.4009800000000 1.0
C      1  0.5026800000000  0.5323450000000  0.4403720000000 1.0
C      1  0.4658910000000  0.4366600000000  0.5109450000000 1.0
C      1  0.5370820000000  0.5368270000000  0.5754240000000 1.0
C      1  0.4719280000000  0.4169680000000  0.3381330000000 1.0
C      1  0.4271210000000  0.4505530000000  0.5331130000000 1.0
C      1  0.5122330000000  0.4301000000000  0.3690080000000 1.0
C      1  0.5808990000000  0.4728570000000  0.4206420000000 1.0
C      1  0.5276280000000  0.5492920000000  0.5322730000000 1.0
C      1  0.4893970000000  0.4100820000000  0.5652570000000 1.0
C      1  0.4065470000000  0.4401510000000  0.4572410000000 1.0
C      1  0.4789250000000  0.5183030000000  0.4378720000000 1.0
C      1  0.4252680000000  0.5389310000000  0.4046760000000 1.0
C      1  0.4777160000000  0.4303010000000  0.6122980000000 1.0
C      1  0.4435160000000  0.4145730000000  0.5642750000000 1.0
C      1  0.5898520000000  0.5597590000000  0.4433390000000 1.0
C      1  0.5337290000000  0.3812000000000  0.4660550000000 1.0
C      1  0.4435910000000  0.4664310000000  0.5720680000000 1.0
C      1  0.5092890000000  0.4811920000000  0.5013540000000 1.0
C      1  0.4420300000000  0.4042110000000  0.4793010000000 1.0
C      1  0.4546700000000  0.4977900000000  0.5277560000000 1.0
C      1  0.5455180000000  0.5933070000000  0.5396170000000 1.0
C      1  0.4302020000000  0.4907530000000  0.5763520000000 1.0
C      1  0.5354840000000  0.4002580000000  0.5177620000000 1.0
C      1  0.5767460000000  0.4343050000000  0.5380010000000 1.0
C      1  0.4629760000000  0.4585450000000  0.4932030000000 1.0
C      1  0.4049370000000  0.5597290000000  0.4774040000000 1.0
C      1  0.4478600000000  0.4694100000000  0.4342990000000 1.0
C      1  0.5880490000000  0.4582430000000  0.5528310000000 1.0
C      1  0.4343400000000  0.4772550000000  0.5232180000000 1.0
C      1  0.5243200000000  0.4296540000000  0.5982230000000 1.0
C      1  0.4835360000000  0.5684380000000  0.5286090000000 1.0
C      1  0.5072100000000  0.4859860000000  0.5307000000000 1.0
C      1  0.3935180000000  0.4619420000000  0.4471690000000 1.0
C      1  0.4322690000000  0.4275190000000  0.4608330000000 1.0
C      1  0.5057360000000  0.4598840000000  0.5418740000000 1.0
C      1  0.5504560000000  0.4447510000000  0.5311560000000 1.0
C      1  0.4883970000000  0.5406320000000  0.5695930000000 1.0
C      1  0.5742840000000  0.5563400000000  0.5611410000000 1.0
C      1  0.5382310000000  0.4714790000000  0.6052080000000 1.0
C      1  0.5278240000000  0.4489500000000  0.4708140000000 1.0
C      1  0.4376220000000  0.4723880000000  0.4944640000000 1.0
C      1  0.5266900000000  0.4407330000000  0.3903490000000 1.0
C      1  0.4155590000000  0.5835250000000  0.4938780000000 1.0
C      1  0.4747180000000  0.5176780000000  0.3841940000000 1.0
C      1  0.5232580000000  0.4441020000000  0.5249690000000 1.0
C      1  0.4528680000000  0.4420770000000  0.4447300000000 1.0
C      1  0.6064350000000  0.4702640000000  0.4844280000000 1.0
C      1  0.4234710000000  0.5746210000000  0.5215370000000 1.0
C      1  0.5694570000000  0.5325330000000  0.6091410000000 1.0
C      1  0.4371010000000  0.4032090000000  0.5099810000000 1.0
C      1  0.4920180000000  0.5220900000000  0.4945380000000 1.0
C      1  0.5712090000000  0.5812840000000  0.4407400000000 1.0
C      1  0.4371470000000  0.4826310000000  0.6461460000000 1.0
C      1  0.5759010000000  0.4422210000000  0.5972840000000 1.0
C      1  0.3531150000000  0.4880470000000  0.4449940000000 1.0
C      1  0.4528180000000  0.5170040000000  0.4464930000000 1.0
C      1  0.4792000000000  0.4310990000000  0.4416990000000 1.0
C      1  0.5003560000000  0.4480780000000  0.4322120000000 1.0
C      1  0.3284530000000  0.4903130000000  0.4531330000000 1.0
C      1  0.4919470000000  0.5123630000000  0.5693210000000 1.0
C      1  0.5120280000000  0.5055690000000  0.5493560000000 1.0
C      1  0.4335610000000  0.6031270000000  0.4833810000000 1.0
C      1  0.5125760000000  0.4648100000000  0.4517830000000 1.0
C      1  0.5052030000000  0.4392290000000  0.6193480000000 1.0
C      1  0.4671440000000  0.3931400000000  0.4691510000000 1.0
C      1  0.6156690000000  0.5003730000000  0.4835420000000 1.0
C      1  0.4383860000000  0.5844380000000  0.5455300000000 1.0
C      1  0.5365550000000  0.5655630000000  0.5825570000000 1.0
C      1  0.5618810000000  0.4026880000000  0.5033530000000 1.0
C      1  0.5563100000000  0.5981630000000  0.4868130000000 1.0
C      1  0.4513040000000  0.3955570000000  0.5358890000000 1.0
C      1  0.5590030000000  0.4697510000000  0.5201320000000 1.0
C      1  0.5330880000000  0.4174170000000  0.4369350000000 1.0
C      1  0.4525790000000  0.5005830000000  0.3902970000000 1.0
C      1  0.4745400000000  0.5469550000000  0.3926950000000 1.0
C      1  0.6006590000000  0.5430560000000  0.4634200000000 1.0
C      1  0.5307140000000  0.5675240000000  0.4586460000000 1.0
C      1  0.5158650000000  0.5051190000000  0.4850840000000 1.0
C      1  0.5218120000000  0.4538240000000  0.4975780000000 1.0
C      1  0.4405090000000  0.4918490000000  0.4515040000000 1.0
C      1  0.4628810000000  0.6018160000000  0.5487730000000 1.0
C      1  0.5080170000000  0.4003890000000  0.5197860000000 1.0
C      1  0.4984450000000  0.4994750000000  0.5936730000000 1.0
C      1  0.5729830000000  0.4432220000000  0.4570250000000 1.0
C      1  0.4931180000000  0.4227130000000  0.3522010000000 1.0
C      1  0.4251690000000  0.5455930000000  0.5166700000000 1.0
C      1  0.3927720000000  0.5115970000000  0.4312380000000 1.0
C      1  0.5236310000000  0.5244220000000  0.4225180000000 1.0
C      1  0.4648260000000  0.4552220000000  0.6092020000000 1.0
C      1  0.5182570000000  0.5246210000000  0.6265530000000 1.0
C      1  0.4876680000000  0.4050520000000  0.4530590000000 1.0
C      1  0.4835450000000  0.4750980000000  0.4887070000000 1.0
C      1  0.5161980000000  0.3972930000000  0.4500730000000 1.0
C      1  0.4257350000000  0.6231710000000  0.4667290000000 1.0
C      1  0.5618780000000  0.5084620000000  0.5007160000000 1.0
C      1  0.4531890000000  0.4774650000000  0.4071650000000 1.0
C      1  0.5429690000000  0.5757190000000  0.4317860000000 1.0
C      1  0.4946610000000  0.4542000000000  0.5671410000000 1.0
C      1  0.3808890000000  0.4870080000000  0.4404770000000 1.0
C      1  0.4262350000000  0.4901610000000  0.4761890000000 1.0
C      1  0.4328670000000  0.4427100000000  0.5599080000000 1.0
C      1  0.4848350000000  0.5500100000000  0.5963700000000 1.0
C      1  0.5749780000000  0.4828330000000  0.5410360000000 1.0
C      1  0.5046310000000  0.5563180000000  0.3961130000000 1.0
C      1  0.4052920000000  0.5364070000000  0.4967410000000 1.0
C      1  0.5468780000000  0.4330820000000  0.4572370000000 1.0
C      1  0.5735090000000  0.5997440000000  0.4634500000000 1.0
C      1  0.5144090000000  0.4696860000000  0.6241850000000 1.0
C      1  0.6042730000000  0.4422890000000  0.4978820000000 1.0
C      1  0.5187600000000  0.5294530000000  0.3948290000000 1.0
C      1  0.5023150000000  0.5109560000000  0.3807690000000 1.0
C      1  0.4700650000000  0.4629380000000  0.5815920000000 1.0
C      1  0.5234670000000  0.5745510000000  0.4098450000000 1.0
C      1  0.6132300000000  0.5168850000000  0.4590180000000 1.0
C      1  0.5615670000000  0.5870040000000  0.5131420000000 1.0
C      1  0.5639710000000  0.5422620000000  0.5354990000000 1.0
C      1  0.5766540000000  0.5604650000000  0.5118790000000 1.0
C      1  0.5046710000000  0.5533570000000  0.4592760000000 1.0
C      1  0.4323370000000  0.5681060000000  0.5683160000000 1.0
C      1  0.4545450000000  0.5503390000000  0.4801130000000 1.0
C      1  0.5484470000000  0.4450650000000  0.6000380000000 1.0
C      1  0.5057860000000  0.5497690000000  0.6162550000000 1.0
C      1  0.5776360000000  0.4883860000000  0.4451180000000 1.0
C      1  0.5569290000000  0.3866350000000  0.4797620000000 1.0
C      1  0.5781670000000  0.4712240000000  0.4707920000000 1.0
C      1  0.4905370000000  0.6078810000000  0.5483390000000 1.0
C      1  0.5341500000000  0.4904110000000  0.5850790000000 1.0
C      1  0.5009440000000  0.5482850000000  0.4873910000000 1.0
C      1  0.4428780000000  0.5414520000000  0.4565900000000 1.0
C      1  0.6043760000000  0.5169620000000  0.5300020000000 1.0
C      1  0.5462740000000  0.4604680000000  0.3861900000000 1.0
C      1  0.5856980000000  0.4462050000000  0.4310480000000 1.0
C      1  0.5178930000000  0.6052050000000  0.5423880000000 1.0
C      1  0.5303350000000  0.5929740000000  0.4753370000000 1.0
C      1  0.5202050000000  0.4336440000000  0.4167530000000 1.0
C      1  0.4260640000000  0.5169630000000  0.5793580000000 1.0
C      1  0.4987590000000  0.6349450000000  0.4655370000000 1.0
C      1  0.4280440000000  0.5148640000000  0.3895970000000 1.0
C      1  0.4506510000000  0.5392480000000  0.5058090000000 1.0
C      1  0.5933430000000  0.4531110000000  0.5799160000000 1.0
C      1  0.6123610000000  0.5222990000000  0.5038250000000 1.0
C      1  0.5476050000000  0.5254890000000  0.6243590000000 1.0
C      1  0.4448660000000  0.6107120000000  0.4066200000000 1.0
C      1  0.5663240000000  0.4745340000000  0.3969770000000 1.0
C      1  0.5808050000000  0.5427860000000  0.5861570000000 1.0
C      1  0.5036610000000  0.4983390000000  0.6219380000000 1.0
C      1  0.4273600000000  0.5436110000000  0.5779320000000 1.0
C      1  0.5746320000000  0.5129890000000  0.5313410000000 1.0
C      1  0.5081950000000  0.4288540000000  0.5744960000000 1.0
C      1  0.5207080000000  0.5571120000000  0.5057770000000 1.0
C      1  0.4811320000000  0.4096270000000  0.5311000000000 1.0
C      1  0.4601430000000  0.5998620000000  0.4926620000000 1.0
C      1  0.5475430000000  0.5446320000000  0.4708750000000 1.0
C      1  0.5113750000000  0.6131080000000  0.4721570000000 1.0
C      1  0.4449770000000  0.5847210000000  0.4047690000000 1.0
C      1  0.5009290000000  0.5535510000000  0.5462430000000 1.0
C      1  0.4159230000000  0.5502280000000  0.4517930000000 1.0
C      1  0.5973470000000  0.5467600000000  0.4929510000000 1.0
C      1  0.5137810000000  0.4922680000000  0.4574190000000 1.0
C      1  0.4667200000000  0.4119810000000  0.5833600000000 1.0
C      1  0.4080190000000  0.5099260000000  0.4863000000000 1.0
C      1  0.5544740000000  0.5784460000000  0.5639120000000 1.0
C      1  0.5627370000000  0.4807310000000  0.4945960000000 1.0
C      1  0.4370790000000  0.4313040000000  0.5153860000000 1.0
C      1  0.5361670000000  0.5100180000000  0.5654860000000 1.0
C      1  0.4070770000000  0.5366120000000  0.4278080000000 1.0
END
