TITL C-612602-9376-550 0.0548651236815541 125000 -700.241588421764 0 0 116 (C1) n - 1
REM
REM in /home/nfs/bkarasulu/CARBON/AIRSS/Generating-Clusters/TERSOFF/Only-C1/FIRE-HFTN
REM
REM
REM
REM
REM
REM ./C.cell (11c1c37f851c82e70ff6c80c92926a4b)
REM AIRSS Version 0.9.1 bugfix July 2018 build 013d7b7c2542+ Fri, 06 Jul 2018 19:26:36 +0100
REM compiler GCC version 9.2.1 20190827 (Red Hat 9.2.1-1)
REM options -cpp -mtune=generic -march=x86-64 -g -O0 -fpre-include=/usr/include/finclude/math-vector-fortran.h
REM seed 1652434100 1113049339 -219470920 728507656 1559458697 -223912379 -1020422614 -857437096 1912182535 -316078877 -147195884 -1281167911 -388504898 160426244 -208626447 -1000431681 -779235910 389462097 -922762443 1354197441 -528094756 1604735907 2139799340 -1430425733 -1958425812 2036615607 -1579987885 -1006765145 -2038149415 -1802141099 849809095 -1410395977 -1685200400
REM
CELL 1.54180   50.00000   50.00000   50.00000   90.00000   90.00000   90.00000
LATT -1
SFAC C  
C      1  0.4570500000000  0.5171120000000  0.3885710000000 1.0
C      1  0.5467200000000  0.5907260000000  0.5457310000000 1.0
C      1  0.5565420000000  0.3378340000000  0.4095660000000 1.0
C      1  0.4279920000000  0.5083020000000  0.4270180000000 1.0
C      1  0.5026910000000  0.5073230000000  0.6182310000000 1.0
C      1  0.4587650000000  0.6002730000000  0.5249320000000 1.0
C      1  0.5524210000000  0.5264640000000  0.4765250000000 1.0
C      1  0.4494980000000  0.4227450000000  0.4635730000000 1.0
C      1  0.3535810000000  0.5601940000000  0.5704620000000 1.0
C      1  0.5845010000000  0.4867080000000  0.5715540000000 1.0
C      1  0.5467680000000  0.4651250000000  0.5919380000000 1.0
C      1  0.4705690000000  0.4060260000000  0.5030260000000 1.0
C      1  0.5119760000000  0.4616540000000  0.5618580000000 1.0
C      1  0.6618000000000  0.3633770000000  0.5259480000000 1.0
C      1  0.6068550000000  0.4346370000000  0.4438940000000 1.0
C      1  0.4532610000000  0.5145190000000  0.4154450000000 1.0
C      1  0.5552670000000  0.5257680000000  0.5058460000000 1.0
C      1  0.5526710000000  0.4695530000000  0.4017030000000 1.0
C      1  0.4464060000000  0.5769880000000  0.5295750000000 1.0
C      1  0.5067960000000  0.6065820000000  0.5668590000000 1.0
C      1  0.4137920000000  0.5775640000000  0.4245170000000 1.0
C      1  0.4808970000000  0.6139950000000  0.5187100000000 1.0
C      1  0.4856410000000  0.4957730000000  0.4736610000000 1.0
C      1  0.4347740000000  0.4561850000000  0.4301680000000 1.0
C      1  0.5688050000000  0.4633820000000  0.5736190000000 1.0
C      1  0.4285730000000  0.5570940000000  0.4362440000000 1.0
C      1  0.4028090000000  0.5012600000000  0.5083710000000 1.0
C      1  0.5093700000000  0.6037490000000  0.4665540000000 1.0
C      1  0.6107620000000  0.4170960000000  0.4945660000000 1.0
C      1  0.4985960000000  0.4860020000000  0.6002200000000 1.0
C      1  0.3663020000000  0.5502190000000  0.5500200000000 1.0
C      1  0.4017210000000  0.5269260000000  0.4649880000000 1.0
C      1  0.5489430000000  0.5397270000000  0.5906970000000 1.0
C      1  0.3803050000000  0.5393610000000  0.5285190000000 1.0
C      1  0.5471600000000  0.5973580000000  0.4933340000000 1.0
C      1  0.5222340000000  0.6053380000000  0.5430020000000 1.0
C      1  0.4560450000000  0.5603610000000  0.4436800000000 1.0
C      1  0.4296200000000  0.4991660000000  0.5694960000000 1.0
C      1  0.5019260000000  0.5272840000000  0.5510970000000 1.0
C      1  0.5714240000000  0.4446440000000  0.5223800000000 1.0
C      1  0.5223780000000  0.5565040000000  0.4503130000000 1.0
C      1  0.4057780000000  0.5045940000000  0.4818860000000 1.0
C      1  0.4664900000000  0.5366720000000  0.4570650000000 1.0
C      1  0.5518530000000  0.5247760000000  0.5673220000000 1.0
C      1  0.4534600000000  0.4844290000000  0.5679030000000 1.0
C      1  0.4934580000000  0.4465580000000  0.5212630000000 1.0
C      1  0.5697550000000  0.4466230000000  0.5507670000000 1.0
C      1  0.5367720000000  0.5402480000000  0.6143570000000 1.0
C      1  0.6284790000000  0.3984570000000  0.5054030000000 1.0
C      1  0.6452740000000  0.3807750000000  0.5157580000000 1.0
C      1  0.4581530000000  0.4717480000000  0.5432060000000 1.0
C      1  0.4931710000000  0.5566580000000  0.6220400000000 1.0
C      1  0.4943900000000  0.4188940000000  0.5131580000000 1.0
C      1  0.5090290000000  0.5129580000000  0.5085130000000 1.0
C      1  0.5763590000000  0.5112770000000  0.5647180000000 1.0
C      1  0.5581680000000  0.5529800000000  0.5162840000000 1.0
C      1  0.5192930000000  0.4705640000000  0.5873580000000 1.0
C      1  0.6123910000000  0.4241410000000  0.4675830000000 1.0
C      1  0.4725980000000  0.4837540000000  0.5885950000000 1.0
C      1  0.5527860000000  0.4594780000000  0.5063060000000 1.0
C      1  0.5147470000000  0.5645080000000  0.5003970000000 1.0
C      1  0.4229670000000  0.4804570000000  0.4285330000000 1.0
C      1  0.5615650000000  0.5685090000000  0.5400500000000 1.0
C      1  0.4878570000000  0.3875670000000  0.4600070000000 1.0
C      1  0.5138250000000  0.4781980000000  0.3748210000000 1.0
C      1  0.5357920000000  0.5069860000000  0.5217730000000 1.0
C      1  0.5757650000000  0.4594010000000  0.4097930000000 1.0
C      1  0.4740320000000  0.5184720000000  0.4348420000000 1.0
C      1  0.4979920000000  0.5051920000000  0.4283040000000 1.0
C      1  0.5104490000000  0.4804390000000  0.4229550000000 1.0
C      1  0.4774720000000  0.5784390000000  0.4391040000000 1.0
C      1  0.5140540000000  0.4612850000000  0.5342090000000 1.0
C      1  0.4902530000000  0.5800770000000  0.6091920000000 1.0
C      1  0.4562510000000  0.4608260000000  0.4939210000000 1.0
C      1  0.5506610000000  0.5591100000000  0.4425240000000 1.0
C      1  0.4884820000000  0.5224290000000  0.5260450000000 1.0
C      1  0.4475640000000  0.5503000000000  0.5265910000000 1.0
C      1  0.4555060000000  0.4410270000000  0.4424230000000 1.0
C      1  0.4405950000000  0.4369950000000  0.4886140000000 1.0
C      1  0.4685400000000  0.4608650000000  0.5197030000000 1.0
C      1  0.5062330000000  0.5125680000000  0.4807980000000 1.0
C      1  0.5943670000000  0.4470880000000  0.4241050000000 1.0
C      1  0.5911730000000  0.4289360000000  0.5105700000000 1.0
C      1  0.4167050000000  0.5307260000000  0.4412790000000 1.0
C      1  0.4649560000000  0.5328280000000  0.5127620000000 1.0
C      1  0.5041610000000  0.5802640000000  0.4499270000000 1.0
C      1  0.5672230000000  0.5421820000000  0.4571210000000 1.0
C      1  0.5273410000000  0.4520540000000  0.4592080000000 1.0
C      1  0.5256090000000  0.4761830000000  0.3994280000000 1.0
C      1  0.4091930000000  0.5095140000000  0.5558350000000 1.0
C      1  0.5103220000000  0.5342560000000  0.6218340000000 1.0
C      1  0.5238860000000  0.5301170000000  0.4668780000000 1.0
C      1  0.3863020000000  0.5471910000000  0.4772730000000 1.0
C      1  0.5223890000000  0.6115290000000  0.4912850000000 1.0
C      1  0.5288820000000  0.3651360000000  0.4449570000000 1.0
C      1  0.3787480000000  0.5509390000000  0.5028050000000 1.0
C      1  0.5301360000000  0.5193390000000  0.5496520000000 1.0
C      1  0.4903110000000  0.5618950000000  0.4904520000000 1.0
C      1  0.5427730000000  0.3513230000000  0.4271190000000 1.0
C      1  0.5352550000000  0.4762270000000  0.5213570000000 1.0
C      1  0.5092480000000  0.6135220000000  0.5176160000000 1.0
C      1  0.5184670000000  0.4053670000000  0.5076470000000 1.0
C      1  0.5149080000000  0.3803040000000  0.4635650000000 1.0
C      1  0.4786420000000  0.4560340000000  0.4500740000000 1.0
C      1  0.4960170000000  0.5972230000000  0.5894670000000 1.0
C      1  0.5422720000000  0.5705270000000  0.5001200000000 1.0
C      1  0.4718190000000  0.4720800000000  0.4728530000000 1.0
C      1  0.5059080000000  0.4594220000000  0.4419670000000 1.0
C      1  0.4444270000000  0.4170800000000  0.5097730000000 1.0
C      1  0.3965980000000  0.5159700000000  0.5316790000000 1.0
C      1  0.3996320000000  0.5966820000000  0.4138860000000 1.0
C      1  0.4684020000000  0.4024500000000  0.4734500000000 1.0
C      1  0.5267700000000  0.3898310000000  0.4873440000000 1.0
C      1  0.4707990000000  0.5416970000000  0.4852940000000 1.0
C      1  0.4891500000000  0.5401160000000  0.5712470000000 1.0
C      1  0.5447490000000  0.4538330000000  0.4796750000000 1.0
END
