TITL C-612600-6631-1179 615.59671533681 125000 -1055.51131065305 0 0 169 (C1) n - 1
REM
REM in /home/nfs/bkarasulu/CARBON/AIRSS/Generating-Clusters/TERSOFF/Only-C1/FIRE-HFTN
REM
REM
REM
REM
REM
REM ./C.cell (11c1c37f851c82e70ff6c80c92926a4b)
REM AIRSS Version 0.9.1 bugfix July 2018 build 013d7b7c2542+ Fri, 06 Jul 2018 19:26:36 +0100
REM compiler GCC version 9.2.1 20190827 (Red Hat 9.2.1-1)
REM options -cpp -mtune=generic -march=x86-64 -g -O0 -fpre-include=/usr/include/finclude/math-vector-fortran.h
REM seed 1267053004 -638221920 1414007371 -999052858 -410716696 351599852 1333381071 -871035478 -579504472 -1767285196 1330652192 2106806621 -1319818651 -1556753846 517986404 587770224 230966720 84915448 -1495006434 2048044069 -1972729973 560880472 -127879990 -763680668 251766586 1979276786 1509337376 -1123729536 1125453114 -733497974 -895023908 1720923733 1209914198
REM
CELL 1.54180   50.00000   50.00000   50.00000   90.00000   90.00000   90.00000
LATT -1
SFAC C  
C      1  0.4992640000000  0.5654970000000  0.5149550000000 1.0
C      1  0.4291470000000  0.4616530000000  0.4213300000000 1.0
C      1  0.4558900000000  0.5924790000000  0.4704860000000 1.0
C      1  0.4208920000000  0.4117580000000  0.5003130000000 1.0
C      1  0.5467250000000  0.4335020000000  0.6020840000000 1.0
C      1  0.4123670000000  0.5303820000000  0.4115040000000 1.0
C      1  0.5689810000000  0.4470230000000  0.6094700000000 1.0
C      1  0.4655430000000  0.4749790000000  0.4738680000000 1.0
C      1  0.4370680000000  0.4984030000000  0.5242240000000 1.0
C      1  0.4874260000000  0.5166120000000  0.4865880000000 1.0
C      1  0.4461940000000  0.5941430000000  0.5211060000000 1.0
C      1  0.5854580000000  0.4664080000000  0.4108580000000 1.0
C      1  0.5451970000000  0.6130190000000  0.3943120000000 1.0
C      1  0.5658700000000  0.4183730000000  0.4442460000000 1.0
C      1  0.4186110000000  0.5500380000000  0.5539240000000 1.0
C      1  0.5176010000000  0.3962930000000  0.5346560000000 1.0
C      1  0.4566820000000  0.5422760000000  0.5984270000000 1.0
C      1  0.4714220000000  0.4983920000000  0.6084320000000 1.0
C      1  0.5914130000000  0.4319690000000  0.5258940000000 1.0
C      1  0.4012240000000  0.5473090000000  0.4289970000000 1.0
C      1  0.4554260000000  0.4980430000000  0.4603000000000 1.0
C      1  0.4366790000000  0.5076520000000  0.5719920000000 1.0
C      1  0.4127140000000  0.5230230000000  0.5639720000000 1.0
C      1  0.5826110000000  0.4479390000000  0.5008810000000 1.0
C      1  0.4627110000000  0.4345150000000  0.5863450000000 1.0
C      1  0.4970340000000  0.4390050000000  0.5452320000000 1.0
C      1  0.4646070000000  0.5989010000000  0.4991400000000 1.0
C      1  0.4698080000000  0.4110440000000  0.4493740000000 1.0
C      1  0.4938410000000  0.4731480000000  0.4754910000000 1.0
C      1  0.3870190000000  0.4909410000000  0.5281970000000 1.0
C      1  0.6490690000000  0.5094750000000  0.5416900000000 1.0
C      1  0.4887250000000  0.4360640000000  0.3404250000000 1.0
C      1  0.5765420000000  0.5137330000000  0.4154590000000 1.0
C      1  0.5357170000000  0.4319930000000  0.5759320000000 1.0
C      1  0.4912540000000  0.4969290000000  0.4143710000000 1.0
C      1  0.5757700000000  0.4946190000000  0.5270400000000 1.0
C      1  0.4420610000000  0.3931460000000  0.4933120000000 1.0
C      1  0.4567200000000  0.3961680000000  0.4694860000000 1.0
C      1  0.6192890000000  0.4774430000000  0.5170990000000 1.0
C      1  0.5451240000000  0.5336180000000  0.3817510000000 1.0
C      1  0.4907800000000  0.5774930000000  0.6481360000000 1.0
C      1  0.5127790000000  0.5825990000000  0.6340550000000 1.0
C      1  0.4265770000000  0.5085830000000  0.4055920000000 1.0
C      1  0.4974100000000  0.5632510000000  0.4666540000000 1.0
C      1  0.4553450000000  0.4174160000000  0.4261710000000 1.0
C      1  0.5215840000000  0.5098160000000  0.6082850000000 1.0
C      1  0.5212080000000  0.4690740000000  0.4811750000000 1.0
C      1  0.5429700000000  0.4948980000000  0.5679610000000 1.0
C      1  0.5792720000000  0.5901970000000  0.4673400000000 1.0
C      1  0.3994100000000  0.5518840000000  0.4567310000000 1.0
C      1  0.5051390000000  0.4429910000000  0.4340990000000 1.0
C      1  0.5048690000000  0.4258040000000  0.4811820000000 1.0
C      1  0.5494430000000  0.5310090000000  0.5093770000000 1.0
C      1  0.4484090000000  0.5670330000000  0.6697310000000 1.0
C      1  0.4732700000000  0.5861140000000  0.4204820000000 1.0
C      1  0.4292000000000  0.4752140000000  0.5096310000000 1.0
C      1  0.5187210000000  0.4790970000000  0.5636980000000 1.0
C      1  0.5346650000000  0.5688720000000  0.4208800000000 1.0
C      1  0.4399170000000  0.4363710000000  0.4155280000000 1.0
C      1  0.4943170000000  0.4252300000000  0.4541660000000 1.0
C      1  0.5120710000000  0.6046110000000  0.4867140000000 1.0
C      1  0.5446290000000  0.4042190000000  0.5337680000000 1.0
C      1  0.5294120000000  0.4513320000000  0.4210840000000 1.0
C      1  0.4399130000000  0.4280520000000  0.5707920000000 1.0
C      1  0.4501220000000  0.3852210000000  0.5409600000000 1.0
C      1  0.5761490000000  0.5632400000000  0.4594560000000 1.0
C      1  0.5283630000000  0.4424820000000  0.4865360000000 1.0
C      1  0.4745570000000  0.4688240000000  0.3789910000000 1.0
C      1  0.5371280000000  0.4782990000000  0.4092750000000 1.0
C      1  0.4985790000000  0.4156640000000  0.5289020000000 1.0
C      1  0.4568990000000  0.5542660000000  0.6235290000000 1.0
C      1  0.4910870000000  0.5455450000000  0.5348590000000 1.0
C      1  0.5500700000000  0.5537500000000  0.4634640000000 1.0
C      1  0.4295300000000  0.5721480000000  0.5150310000000 1.0
C      1  0.3728540000000  0.5039250000000  0.5073400000000 1.0
C      1  0.5240400000000  0.5803530000000  0.6100370000000 1.0
C      1  0.5116140000000  0.5547380000000  0.4909070000000 1.0
C      1  0.4353840000000  0.5467330000000  0.5286400000000 1.0
C      1  0.4880740000000  0.4441210000000  0.5898630000000 1.0
C      1  0.5846980000000  0.4607370000000  0.5921860000000 1.0
C      1  0.5530370000000  0.4223680000000  0.5546330000000 1.0
C      1  0.4524830000000  0.5142360000000  0.5949850000000 1.0
C      1  0.4726300000000  0.5497400000000  0.4594040000000 1.0
C      1  0.4175160000000  0.4462060000000  0.5658180000000 1.0
C      1  0.4065890000000  0.4240830000000  0.4794500000000 1.0
C      1  0.4978970000000  0.4956640000000  0.5514470000000 1.0
C      1  0.4840830000000  0.5663110000000  0.4046970000000 1.0
C      1  0.3771970000000  0.5421490000000  0.4715680000000 1.0
C      1  0.4677500000000  0.4455100000000  0.5103090000000 1.0
C      1  0.5633830000000  0.6080490000000  0.4799530000000 1.0
C      1  0.4813860000000  0.4525960000000  0.3591960000000 1.0
C      1  0.5201970000000  0.5711170000000  0.5836140000000 1.0
C      1  0.4926770000000  0.5937920000000  0.5062020000000 1.0
C      1  0.4869140000000  0.4238710000000  0.5035020000000 1.0
C      1  0.6405790000000  0.4868090000000  0.5301610000000 1.0
C      1  0.4188610000000  0.4200610000000  0.5278380000000 1.0
C      1  0.4974120000000  0.5002640000000  0.6150070000000 1.0
C      1  0.4110810000000  0.4632100000000  0.4436370000000 1.0
C      1  0.5298380000000  0.5203270000000  0.5259570000000 1.0
C      1  0.5401320000000  0.5909160000000  0.4071610000000 1.0
C      1  0.5364710000000  0.5178990000000  0.5852180000000 1.0
C      1  0.4488730000000  0.4944170000000  0.5497080000000 1.0
C      1  0.5542380000000  0.4076600000000  0.5070960000000 1.0
C      1  0.5398410000000  0.5046930000000  0.4536710000000 1.0
C      1  0.5112780000000  0.4488000000000  0.5698340000000 1.0
C      1  0.5948340000000  0.5420460000000  0.4566220000000 1.0
C      1  0.4764140000000  0.4563740000000  0.5356510000000 1.0
C      1  0.5887860000000  0.4342740000000  0.4494730000000 1.0
C      1  0.4087200000000  0.4882890000000  0.4562000000000 1.0
C      1  0.5324500000000  0.5455880000000  0.5779760000000 1.0
C      1  0.4327300000000  0.5676210000000  0.6905410000000 1.0
C      1  0.5974330000000  0.4478650000000  0.4260280000000 1.0
C      1  0.3924720000000  0.5070360000000  0.5514550000000 1.0
C      1  0.5342460000000  0.5488950000000  0.4402720000000 1.0
C      1  0.4411070000000  0.5244640000000  0.5111270000000 1.0
C      1  0.4242460000000  0.5511860000000  0.4709710000000 1.0
C      1  0.4372090000000  0.4089970000000  0.5486210000000 1.0
C      1  0.5188960000000  0.5252830000000  0.3882150000000 1.0
C      1  0.4414500000000  0.4850920000000  0.4098760000000 1.0
C      1  0.4641080000000  0.5998610000000  0.4428830000000 1.0
C      1  0.4651210000000  0.5662900000000  0.6474530000000 1.0
C      1  0.5059330000000  0.5902990000000  0.4622900000000 1.0
C      1  0.5751330000000  0.5211130000000  0.5155160000000 1.0
C      1  0.5683760000000  0.5315860000000  0.3951660000000 1.0
C      1  0.4736950000000  0.4818490000000  0.5474290000000 1.0
C      1  0.4764100000000  0.5197240000000  0.4582540000000 1.0
C      1  0.4271340000000  0.5263510000000  0.4846510000000 1.0
C      1  0.6170080000000  0.5437120000000  0.5284500000000 1.0
C      1  0.5981340000000  0.4450860000000  0.4743810000000 1.0
C      1  0.4983460000000  0.5458230000000  0.3930560000000 1.0
C      1  0.6207530000000  0.4620600000000  0.4705730000000 1.0
C      1  0.3693750000000  0.5234660000000  0.4892730000000 1.0
C      1  0.4585500000000  0.5561500000000  0.5742530000000 1.0
C      1  0.4505150000000  0.5946420000000  0.5503840000000 1.0
C      1  0.6067470000000  0.5359270000000  0.4816260000000 1.0
C      1  0.6270870000000  0.4834580000000  0.4557320000000 1.0
C      1  0.4041520000000  0.4677920000000  0.5225130000000 1.0
C      1  0.5582810000000  0.3894650000000  0.4859630000000 1.0
C      1  0.5610450000000  0.3954460000000  0.4597540000000 1.0
C      1  0.4705710000000  0.5227570000000  0.5059560000000 1.0
C      1  0.4069700000000  0.4446120000000  0.5385510000000 1.0
C      1  0.5385900000000  0.6135840000000  0.4889710000000 1.0
C      1  0.4675350000000  0.5479240000000  0.5485080000000 1.0
C      1  0.5013200000000  0.5867360000000  0.5684010000000 1.0
C      1  0.5053290000000  0.5207630000000  0.5389550000000 1.0
C      1  0.4957880000000  0.5137090000000  0.4370630000000 1.0
C      1  0.5405380000000  0.4869480000000  0.4731460000000 1.0
C      1  0.4287270000000  0.5046430000000  0.4666350000000 1.0
C      1  0.4778930000000  0.5982810000000  0.5602440000000 1.0
C      1  0.4353210000000  0.5726970000000  0.5662560000000 1.0
C      1  0.5486570000000  0.4304240000000  0.4251750000000 1.0
C      1  0.5772270000000  0.4373800000000  0.5502020000000 1.0
C      1  0.5227560000000  0.5230650000000  0.4411750000000 1.0
C      1  0.6172440000000  0.5030200000000  0.4404130000000 1.0
C      1  0.5390080000000  0.5473410000000  0.4886780000000 1.0
C      1  0.5667880000000  0.4863030000000  0.5535790000000 1.0
C      1  0.4488320000000  0.5643090000000  0.4665220000000 1.0
C      1  0.4036820000000  0.4405080000000  0.4585760000000 1.0
C      1  0.5992300000000  0.5346370000000  0.5087240000000 1.0
C      1  0.4508770000000  0.4623660000000  0.4951340000000 1.0
C      1  0.4515210000000  0.3774510000000  0.5149900000000 1.0
C      1  0.4690590000000  0.4840120000000  0.4020770000000 1.0
C      1  0.5911470000000  0.4756990000000  0.5118900000000 1.0
C      1  0.5538600000000  0.4354460000000  0.4975680000000 1.0
C      1  0.5797940000000  0.4625500000000  0.5643290000000 1.0
C      1  0.5164960000000  0.4979200000000  0.3996410000000 1.0
C      1  0.6383350000000  0.5341180000000  0.5415960000000 1.0
C      1  0.5657170000000  0.4866370000000  0.4117720000000 1.0
C      1  0.5957960000000  0.5211800000000  0.4362120000000 1.0
END
