TITL C-612603-7354-721 5.18189305315521e-05 125000 -344.700228942261 0 0 57 (C1) n - 1
REM
REM in /home/nfs/bkarasulu/CARBON/AIRSS/Generating-Clusters/TERSOFF/Only-C1/FIRE-HFTN
REM
REM
REM
REM
REM
REM ./C.cell (11c1c37f851c82e70ff6c80c92926a4b)
REM AIRSS Version 0.9.1 bugfix July 2018 build 013d7b7c2542+ Fri, 06 Jul 2018 19:26:36 +0100
REM compiler GCC version 9.2.1 20190827 (Red Hat 9.2.1-1)
REM options -cpp -mtune=generic -march=x86-64 -g -O0 -fpre-include=/usr/include/finclude/math-vector-fortran.h
REM seed -13523778 802334299 -643701432 1204419920 1676196759 -852628063 -216021169 1755170451 -371317604 422073451 1441964961 -1560676596 1037112102 2132751022 1657677959 59222963 -1858539759 896823357 -540907685 1267196886 709175932 -1385500203 2032848973 1541999730 -670573303 -89243934 -677035219 -288238360 -606898905 1218450736 1819456465 -427383084 -544228525
REM
CELL 1.54180   50.00000   50.00000   50.00000   90.00000   90.00000   90.00000
LATT -1
SFAC C  
C      1  0.4987180000000  0.5769380000000  0.5573890000000 1.0
C      1  0.4947840000000  0.4711470000000  0.5968770000000 1.0
C      1  0.4988260000000  0.4592610000000  0.5491540000000 1.0
C      1  0.5014690000000  0.5475210000000  0.4540810000000 1.0
C      1  0.4374530000000  0.4145380000000  0.4659790000000 1.0
C      1  0.4221310000000  0.4338770000000  0.5106270000000 1.0
C      1  0.4410500000000  0.4232440000000  0.4404410000000 1.0
C      1  0.4454450000000  0.5155320000000  0.4774100000000 1.0
C      1  0.4371200000000  0.4799010000000  0.5137330000000 1.0
C      1  0.4416340000000  0.5514630000000  0.5163480000000 1.0
C      1  0.4730770000000  0.5702290000000  0.5536100000000 1.0
C      1  0.4355970000000  0.4905790000000  0.4862080000000 1.0
C      1  0.5490280000000  0.4796250000000  0.4633670000000 1.0
C      1  0.4688010000000  0.5130020000000  0.4601320000000 1.0
C      1  0.5673380000000  0.5877570000000  0.5279010000000 1.0
C      1  0.4912780000000  0.5262320000000  0.4700400000000 1.0
C      1  0.5364370000000  0.5540720000000  0.5083000000000 1.0
C      1  0.5147900000000  0.4391360000000  0.5360320000000 1.0
C      1  0.4874380000000  0.4782930000000  0.5294340000000 1.0
C      1  0.5556140000000  0.4739170000000  0.5553840000000 1.0
C      1  0.5245290000000  0.4684800000000  0.5011240000000 1.0
C      1  0.4867780000000  0.4433920000000  0.4724650000000 1.0
C      1  0.4420850000000  0.4274120000000  0.4910720000000 1.0
C      1  0.5239280000000  0.5791480000000  0.5486360000000 1.0
C      1  0.5067590000000  0.4578690000000  0.4590760000000 1.0
C      1  0.5629260000000  0.5186250000000  0.4874600000000 1.0
C      1  0.5321310000000  0.4955230000000  0.4444140000000 1.0
C      1  0.5406460000000  0.5593300000000  0.4773670000000 1.0
C      1  0.5352370000000  0.4499970000000  0.5200350000000 1.0
C      1  0.4626760000000  0.4497990000000  0.4884080000000 1.0
C      1  0.4185030000000  0.4592310000000  0.5206090000000 1.0
C      1  0.5039060000000  0.4825490000000  0.4426920000000 1.0
C      1  0.5424560000000  0.5220960000000  0.4431120000000 1.0
C      1  0.5297660000000  0.4622520000000  0.4747800000000 1.0
C      1  0.5166040000000  0.5692710000000  0.4644380000000 1.0
C      1  0.5002960000000  0.5857060000000  0.4812290000000 1.0
C      1  0.5601460000000  0.4609580000000  0.5294990000000 1.0
C      1  0.5060440000000  0.5478860000000  0.5095110000000 1.0
C      1  0.4649840000000  0.4686730000000  0.5139720000000 1.0
C      1  0.5742820000000  0.4743540000000  0.5072850000000 1.0
C      1  0.4528420000000  0.5613410000000  0.5385240000000 1.0
C      1  0.5497920000000  0.5272210000000  0.5115910000000 1.0
C      1  0.4992360000000  0.5219110000000  0.4974980000000 1.0
C      1  0.5357420000000  0.5091390000000  0.5283420000000 1.0
C      1  0.4461510000000  0.4690800000000  0.4700970000000 1.0
C      1  0.5097960000000  0.4947350000000  0.5138380000000 1.0
C      1  0.4554720000000  0.4703800000000  0.4429380000000 1.0
C      1  0.5097080000000  0.4647290000000  0.5750500000000 1.0
C      1  0.5538340000000  0.5358430000000  0.4655960000000 1.0
C      1  0.5434620000000  0.5744950000000  0.5286930000000 1.0
C      1  0.4915140000000  0.5721910000000  0.5034410000000 1.0
C      1  0.4400190000000  0.5381160000000  0.4932330000000 1.0
C      1  0.5670050000000  0.4905360000000  0.4836800000000 1.0
C      1  0.5384650000000  0.4627020000000  0.5753560000000 1.0
C      1  0.4756950000000  0.4910580000000  0.4421580000000 1.0
C      1  0.5492380000000  0.5011360000000  0.5513480000000 1.0
C      1  0.4493190000000  0.4465710000000  0.4289860000000 1.0
END
