TITL C-612607-4507-1163 2.58182318357525 125000 -311.558974302356 0 0 53 (C1) n - 1
REM
REM in /home/nfs/bkarasulu/CARBON/AIRSS/Generating-Clusters/TERSOFF/Only-C1/FIRE-HFTN
REM
REM
REM
REM
REM
REM ./C.cell (11c1c37f851c82e70ff6c80c92926a4b)
REM AIRSS Version 0.9.1 bugfix July 2018 build 013d7b7c2542+ Fri, 06 Jul 2018 19:26:36 +0100
REM compiler GCC version 9.2.1 20190827 (Red Hat 9.2.1-1)
REM options -cpp -mtune=generic -march=x86-64 -g -O0 -fpre-include=/usr/include/finclude/math-vector-fortran.h
REM seed -1768825687 -1540065545 -681297504 1235210142 1451387547 -691013542 -803354332 281345569 -1357286965 -1439609188 -1700233115 -766317902 -2053106962 887284666 -1493220784 1877230170 1621167609 2081834087 -989723994 1712339642 631115580 1612435886 -1145893565 1611626090 1551772302 -543698976 -753074349 1929256653 -1752822450 247412011 -500742652 381161358 1262553869
REM
CELL 1.54180   50.00000   50.00000   50.00000   90.00000   90.00000   90.00000
LATT -1
SFAC C  
C      1  0.5760200000000  0.4045270000000  0.4677460000000 1.0
C      1  0.4918340000000  0.4588790000000  0.5347080000000 1.0
C      1  0.3919760000000  0.5919830000000  0.5440090000000 1.0
C      1  0.4450560000000  0.5160670000000  0.4715870000000 1.0
C      1  0.4963560000000  0.4866590000000  0.4312830000000 1.0
C      1  0.6085650000000  0.4865000000000  0.5769480000000 1.0
C      1  0.5272240000000  0.5325080000000  0.4931630000000 1.0
C      1  0.5590080000000  0.4224790000000  0.4772490000000 1.0
C      1  0.4916170000000  0.4351120000000  0.5501210000000 1.0
C      1  0.5564680000000  0.4021880000000  0.5338340000000 1.0
C      1  0.5083300000000  0.5446330000000  0.4764290000000 1.0
C      1  0.5176590000000  0.4649370000000  0.5236100000000 1.0
C      1  0.4916180000000  0.5678650000000  0.4781990000000 1.0
C      1  0.4888520000000  0.4736700000000  0.4094550000000 1.0
C      1  0.4351010000000  0.5908360000000  0.4434960000000 1.0
C      1  0.4237360000000  0.6242210000000  0.5267270000000 1.0
C      1  0.4805070000000  0.5585590000000  0.5643400000000 1.0
C      1  0.4736920000000  0.4475500000000  0.3658950000000 1.0
C      1  0.3945850000000  0.5721800000000  0.5257740000000 1.0
C      1  0.4662350000000  0.4347030000000  0.3444710000000 1.0
C      1  0.5539850000000  0.3758070000000  0.5270120000000 1.0
C      1  0.5282750000000  0.5044260000000  0.4966610000000 1.0
C      1  0.4293710000000  0.5875100000000  0.4916710000000 1.0
C      1  0.5334670000000  0.4634340000000  0.4712880000000 1.0
C      1  0.5849680000000  0.4925950000000  0.5665280000000 1.0
C      1  0.6317490000000  0.4802800000000  0.5871190000000 1.0
C      1  0.5809820000000  0.4122770000000  0.5427420000000 1.0
C      1  0.4411430000000  0.4976540000000  0.4904880000000 1.0
C      1  0.5195850000000  0.5237390000000  0.5571160000000 1.0
C      1  0.4645740000000  0.5624020000000  0.4694230000000 1.0
C      1  0.5613830000000  0.4990780000000  0.5563680000000 1.0
C      1  0.4645280000000  0.5339770000000  0.4627440000000 1.0
C      1  0.4686100000000  0.4718810000000  0.5265530000000 1.0
C      1  0.5006920000000  0.5414580000000  0.5626750000000 1.0
C      1  0.5342780000000  0.4195570000000  0.5320130000000 1.0
C      1  0.6041240000000  0.4221210000000  0.5495700000000 1.0
C      1  0.4812740000000  0.4606120000000  0.3876780000000 1.0
C      1  0.4602430000000  0.5749580000000  0.5644970000000 1.0
C      1  0.4920940000000  0.5250470000000  0.4613480000000 1.0
C      1  0.5928760000000  0.3863910000000  0.4595910000000 1.0
C      1  0.4102980000000  0.5705030000000  0.5039030000000 1.0
C      1  0.4337660000000  0.6122770000000  0.5047070000000 1.0
C      1  0.5115280000000  0.4167830000000  0.5487300000000 1.0
C      1  0.5331870000000  0.4422470000000  0.5144540000000 1.0
C      1  0.4276060000000  0.6006390000000  0.4205420000000 1.0
C      1  0.5421840000000  0.4421610000000  0.4874610000000 1.0
C      1  0.4504680000000  0.4830210000000  0.5106570000000 1.0
C      1  0.5033990000000  0.4999800000000  0.4546950000000 1.0
C      1  0.5223790000000  0.4890290000000  0.4730500000000 1.0
C      1  0.5278390000000  0.4914020000000  0.5218490000000 1.0
C      1  0.4051930000000  0.6156100000000  0.5444320000000 1.0
C      1  0.4430910000000  0.5802510000000  0.4680790000000 1.0
C      1  0.5364230000000  0.5048320000000  0.5453110000000 1.0
END
