TITL C-612602-9376-1428 1038.93691997106 125000 -1003.55904602229 0 0 165 (C1) n - 1
REM
REM in /home/nfs/bkarasulu/CARBON/AIRSS/Generating-Clusters/TERSOFF/Only-C1/FIRE-HFTN
REM
REM
REM
REM
REM
REM ./C.cell (11c1c37f851c82e70ff6c80c92926a4b)
REM AIRSS Version 0.9.1 bugfix July 2018 build 013d7b7c2542+ Fri, 06 Jul 2018 19:26:36 +0100
REM compiler GCC version 9.2.1 20190827 (Red Hat 9.2.1-1)
REM options -cpp -mtune=generic -march=x86-64 -g -O0 -fpre-include=/usr/include/finclude/math-vector-fortran.h
REM seed -1313531466 -196620651 1418049503 -1464163951 -69658527 1156535850 1391922718 -1959882760 544119774 1313494007 729897665 41977266 -949743802 -1993087007 1735281169 -955186043 -781172635 396983010 -1618283361 1024820198 120685381 -1623732839 -1694989653 366310699 -1564816926 -839304957 1465010567 -243134651 -239167660 -90160264 -1586386213 -1990282411 -22661613
REM
CELL 1.54180   50.00000   50.00000   50.00000   90.00000   90.00000   90.00000
LATT -1
SFAC C  
C      1  0.4664400000000  0.4686490000000  0.4513580000000 1.0
C      1  0.5153830000000  0.5757630000000  0.5416310000000 1.0
C      1  0.4368080000000  0.5205960000000  0.4262370000000 1.0
C      1  0.5330640000000  0.5868550000000  0.5864790000000 1.0
C      1  0.4537840000000  0.5254230000000  0.5135290000000 1.0
C      1  0.4960420000000  0.5087820000000  0.5492140000000 1.0
C      1  0.5657520000000  0.4594920000000  0.3776700000000 1.0
C      1  0.5063190000000  0.4230870000000  0.6212510000000 1.0
C      1  0.3841800000000  0.4469670000000  0.4413780000000 1.0
C      1  0.5856660000000  0.4588410000000  0.3977930000000 1.0
C      1  0.5238820000000  0.5001120000000  0.4894840000000 1.0
C      1  0.4983470000000  0.5753050000000  0.4262790000000 1.0
C      1  0.5869520000000  0.5144760000000  0.4339540000000 1.0
C      1  0.2908630000000  0.4003950000000  0.4160590000000 1.0
C      1  0.5900050000000  0.4375210000000  0.4742350000000 1.0
C      1  0.4740700000000  0.4920130000000  0.5466700000000 1.0
C      1  0.5077250000000  0.6277040000000  0.5008100000000 1.0
C      1  0.3370730000000  0.4234360000000  0.4280020000000 1.0
C      1  0.5193180000000  0.5947860000000  0.5635190000000 1.0
C      1  0.4148030000000  0.5015280000000  0.5727350000000 1.0
C      1  0.5218870000000  0.4979560000000  0.6184170000000 1.0
C      1  0.4170980000000  0.5849820000000  0.5352220000000 1.0
C      1  0.5908990000000  0.5853030000000  0.4781210000000 1.0
C      1  0.5743960000000  0.4830240000000  0.4682620000000 1.0
C      1  0.4707080000000  0.4310500000000  0.5646120000000 1.0
C      1  0.2447280000000  0.3770890000000  0.4043400000000 1.0
C      1  0.3139550000000  0.4119610000000  0.4219930000000 1.0
C      1  0.6606660000000  0.3594870000000  0.4669820000000 1.0
C      1  0.5919130000000  0.5458370000000  0.5673280000000 1.0
C      1  0.5757850000000  0.5432730000000  0.5910230000000 1.0
C      1  0.4917620000000  0.4408940000000  0.3862170000000 1.0
C      1  0.5070310000000  0.3957480000000  0.5787900000000 1.0
C      1  0.5348640000000  0.5149650000000  0.3942540000000 1.0
C      1  0.5850190000000  0.4875800000000  0.4419980000000 1.0
C      1  0.4170170000000  0.5570220000000  0.5379130000000 1.0
C      1  0.5719400000000  0.5973100000000  0.4632650000000 1.0
C      1  0.6034150000000  0.5710690000000  0.4972340000000 1.0
C      1  0.2216670000000  0.3653900000000  0.3985180000000 1.0
C      1  0.5527980000000  0.5506270000000  0.4434150000000 1.0
C      1  0.5805470000000  0.6100660000000  0.5612890000000 1.0
C      1  0.5319400000000  0.6287050000000  0.5127790000000 1.0
C      1  0.4762050000000  0.5562140000000  0.5568770000000 1.0
C      1  0.5308990000000  0.4496730000000  0.4341940000000 1.0
C      1  0.5191800000000  0.5079450000000  0.5345950000000 1.0
C      1  0.5378460000000  0.4239340000000  0.4930280000000 1.0
C      1  0.4728420000000  0.6115140000000  0.5799520000000 1.0
C      1  0.5906080000000  0.4680970000000  0.4224920000000 1.0
C      1  0.3856770000000  0.4485340000000  0.5331090000000 1.0
C      1  0.4645220000000  0.4799240000000  0.5711530000000 1.0
C      1  0.6052070000000  0.5560980000000  0.5210860000000 1.0
C      1  0.5385070000000  0.5282760000000  0.5380350000000 1.0
C      1  0.5531870000000  0.3882910000000  0.5527030000000 1.0
C      1  0.5077540000000  0.4002730000000  0.6067970000000 1.0
C      1  0.5338650000000  0.4670560000000  0.4121670000000 1.0
C      1  0.4636570000000  0.5477720000000  0.6011530000000 1.0
C      1  0.5977160000000  0.5670360000000  0.5476990000000 1.0
C      1  0.4352310000000  0.4378220000000  0.4307330000000 1.0
C      1  0.4600920000000  0.4509190000000  0.4296620000000 1.0
C      1  0.5453700000000  0.5478030000000  0.3603150000000 1.0
C      1  0.5612480000000  0.5168820000000  0.5488580000000 1.0
C      1  0.4755260000000  0.4470210000000  0.4065370000000 1.0
C      1  0.5458850000000  0.5187770000000  0.4872510000000 1.0
C      1  0.4089310000000  0.4362860000000  0.4339130000000 1.0
C      1  0.5506330000000  0.6095860000000  0.5147800000000 1.0
C      1  0.4603720000000  0.5653820000000  0.5787430000000 1.0
C      1  0.5531760000000  0.5305480000000  0.6034510000000 1.0
C      1  0.4024930000000  0.4440720000000  0.5537320000000 1.0
C      1  0.5587630000000  0.4314340000000  0.5841800000000 1.0
C      1  0.4833760000000  0.5218510000000  0.4728810000000 1.0
C      1  0.3844420000000  0.4711510000000  0.4566930000000 1.0
C      1  0.4536150000000  0.4529410000000  0.5694350000000 1.0
C      1  0.4715050000000  0.5842520000000  0.4266020000000 1.0
C      1  0.4761050000000  0.5912180000000  0.5206620000000 1.0
C      1  0.4305390000000  0.5030720000000  0.5962620000000 1.0
C      1  0.4681250000000  0.5375700000000  0.4914750000000 1.0
C      1  0.5704080000000  0.4569720000000  0.4795710000000 1.0
C      1  0.4764900000000  0.5213680000000  0.6038460000000 1.0
C      1  0.5937810000000  0.4203690000000  0.5444650000000 1.0
C      1  0.5422220000000  0.4543050000000  0.5445840000000 1.0
C      1  0.5759600000000  0.4004200000000  0.5455200000000 1.0
C      1  0.4844840000000  0.5337350000000  0.4469990000000 1.0
C      1  0.6018370000000  0.4592160000000  0.5732520000000 1.0
C      1  0.4979990000000  0.6129760000000  0.5697050000000 1.0
C      1  0.5393170000000  0.4546650000000  0.3868440000000 1.0
C      1  0.4382480000000  0.4362160000000  0.5032810000000 1.0
C      1  0.6035610000000  0.4465790000000  0.5480820000000 1.0
C      1  0.4993560000000  0.4985150000000  0.4752880000000 1.0
C      1  0.5499280000000  0.5027750000000  0.6112750000000 1.0
C      1  0.1989870000000  0.3538760000000  0.3927990000000 1.0
C      1  0.5694030000000  0.4754040000000  0.3543700000000 1.0
C      1  0.5293640000000  0.3860370000000  0.5647060000000 1.0
C      1  0.5096200000000  0.4497400000000  0.6129010000000 1.0
C      1  0.4126800000000  0.5096930000000  0.4312160000000 1.0
C      1  0.5812590000000  0.4650970000000  0.3314060000000 1.0
C      1  0.4316920000000  0.4599110000000  0.5132870000000 1.0
C      1  0.4879340000000  0.5724860000000  0.5375300000000 1.0
C      1  0.6081250000000  0.4184050000000  0.4714790000000 1.0
C      1  0.5467630000000  0.5222740000000  0.3698320000000 1.0
C      1  0.5306560000000  0.4948710000000  0.4113790000000 1.0
C      1  0.4257200000000  0.4472940000000  0.5670850000000 1.0
C      1  0.5117660000000  0.4734790000000  0.6274180000000 1.0
C      1  0.5380020000000  0.5600680000000  0.5226030000000 1.0
C      1  0.4318250000000  0.5395650000000  0.5241930000000 1.0
C      1  0.4452400000000  0.4806360000000  0.4650010000000 1.0
C      1  0.5418380000000  0.6002680000000  0.4232650000000 1.0
C      1  0.3787840000000  0.4686980000000  0.4843690000000 1.0
C      1  0.4517370000000  0.5926960000000  0.5744990000000 1.0
C      1  0.5245230000000  0.4882860000000  0.5150460000000 1.0
C      1  0.4591640000000  0.4992310000000  0.5928460000000 1.0
C      1  0.3601780000000  0.4348240000000  0.4341680000000 1.0
C      1  0.4623860000000  0.5281050000000  0.4301230000000 1.0
C      1  0.4456610000000  0.4126550000000  0.4949580000000 1.0
C      1  0.5901830000000  0.4726310000000  0.5931860000000 1.0
C      1  0.4317270000000  0.4843720000000  0.5267780000000 1.0
C      1  0.5226830000000  0.6012760000000  0.4659620000000 1.0
C      1  0.5529410000000  0.4006340000000  0.4311260000000 1.0
C      1  0.5398190000000  0.4461510000000  0.5710020000000 1.0
C      1  0.5171410000000  0.4526820000000  0.5858390000000 1.0
C      1  0.5047510000000  0.5538690000000  0.4446730000000 1.0
C      1  0.5369950000000  0.5470160000000  0.4889280000000 1.0
C      1  0.4378770000000  0.5988770000000  0.5493600000000 1.0
C      1  0.3941730000000  0.4943290000000  0.4434040000000 1.0
C      1  0.5944010000000  0.5076490000000  0.5044800000000 1.0
C      1  0.5924080000000  0.4551960000000  0.3100320000000 1.0
C      1  0.5166400000000  0.4422120000000  0.3759880000000 1.0
C      1  0.4427980000000  0.5767580000000  0.4685040000000 1.0
C      1  0.5262440000000  0.5420160000000  0.6068300000000 1.0
C      1  0.4925450000000  0.4746560000000  0.4609240000000 1.0
C      1  0.5594770000000  0.5846150000000  0.5247370000000 1.0
C      1  0.5486970000000  0.4490180000000  0.4966430000000 1.0
C      1  0.4560950000000  0.4991900000000  0.5256300000000 1.0
C      1  0.5014770000000  0.6057440000000  0.4836550000000 1.0
C      1  0.4650830000000  0.5660740000000  0.4834700000000 1.0
C      1  0.5708180000000  0.4847750000000  0.6069820000000 1.0
C      1  0.5429930000000  0.4245130000000  0.4343270000000 1.0
C      1  0.4094040000000  0.5112310000000  0.6451470000000 1.0
C      1  0.5386510000000  0.4641340000000  0.5187330000000 1.0
C      1  0.5602740000000  0.5019680000000  0.3557910000000 1.0
C      1  0.4493440000000  0.5837790000000  0.4419360000000 1.0
C      1  0.6257930000000  0.3987300000000  0.4698290000000 1.0
C      1  0.4141040000000  0.4936550000000  0.5469890000000 1.0
C      1  0.5130250000000  0.4572280000000  0.4539540000000 1.0
C      1  0.4116990000000  0.5930910000000  0.5082390000000 1.0
C      1  0.4297890000000  0.4976710000000  0.4771780000000 1.0
C      1  0.4862740000000  0.4094060000000  0.5654380000000 1.0
C      1  0.5256330000000  0.5696700000000  0.6055110000000 1.0
C      1  0.5789540000000  0.5877650000000  0.5456060000000 1.0
C      1  0.5298950000000  0.5530550000000  0.4603240000000 1.0
C      1  0.4192280000000  0.5070090000000  0.6213820000000 1.0
C      1  0.6433750000000  0.3789480000000  0.4683900000000 1.0
C      1  0.4211580000000  0.5869960000000  0.4836290000000 1.0
C      1  0.3781260000000  0.4583390000000  0.5091810000000 1.0
C      1  0.4900190000000  0.5327600000000  0.5610200000000 1.0
C      1  0.6111130000000  0.4623110000000  0.5260890000000 1.0
C      1  0.5193730000000  0.5888870000000  0.4132090000000 1.0
C      1  0.4818610000000  0.5872690000000  0.4934560000000 1.0
C      1  0.5468200000000  0.6020440000000  0.4511340000000 1.0
C      1  0.5721270000000  0.5059970000000  0.4861360000000 1.0
C      1  0.5741350000000  0.5377710000000  0.4342100000000 1.0
C      1  0.6082040000000  0.4835500000000  0.5102280000000 1.0
C      1  0.5053160000000  0.5210600000000  0.6109270000000 1.0
C      1  0.4569210000000  0.6090380000000  0.5305520000000 1.0
C      1  0.5879840000000  0.5234920000000  0.5493680000000 1.0
C      1  0.2677890000000  0.3887640000000  0.4101810000000 1.0
C      1  0.5991360000000  0.5281180000000  0.5231120000000 1.0
END
