TITL C-612602-9376-359 2.02437329000048 125000 -701.466291590311 0 0 116 (C1) n - 1
REM
REM in /home/nfs/bkarasulu/CARBON/AIRSS/Generating-Clusters/TERSOFF/Only-C1/FIRE-HFTN
REM
REM
REM
REM
REM
REM ./C.cell (11c1c37f851c82e70ff6c80c92926a4b)
REM AIRSS Version 0.9.1 bugfix July 2018 build 013d7b7c2542+ Fri, 06 Jul 2018 19:26:36 +0100
REM compiler GCC version 9.2.1 20190827 (Red Hat 9.2.1-1)
REM options -cpp -mtune=generic -march=x86-64 -g -O0 -fpre-include=/usr/include/finclude/math-vector-fortran.h
REM seed 1733294816 -708750766 -1253994980 -479351481 1871915712 -739879463 -1223461527 -1446683431 1643529703 1948702518 -418754664 -1576445620 77025669 -2064281084 284244376 677960015 -1391377731 1550175831 -1591716484 909706113 346626973 1472242844 1545652228 -1446188263 2144618606 951665520 -399331711 921271972 2146003172 -916882866 -718483161 -845551131 -1602568382
REM
CELL 1.54180   50.00000   50.00000   50.00000   90.00000   90.00000   90.00000
LATT -1
SFAC C  
C      1  0.5143760000000  0.4309990000000  0.4308940000000 1.0
C      1  0.5324590000000  0.5231510000000  0.5450840000000 1.0
C      1  0.4294860000000  0.5520280000000  0.4532730000000 1.0
C      1  0.4893370000000  0.4701720000000  0.4556390000000 1.0
C      1  0.5270920000000  0.4789260000000  0.5087730000000 1.0
C      1  0.4223070000000  0.4743100000000  0.4644970000000 1.0
C      1  0.4845320000000  0.5431110000000  0.5895310000000 1.0
C      1  0.4744880000000  0.5116970000000  0.5480230000000 1.0
C      1  0.4560910000000  0.5386510000000  0.4522090000000 1.0
C      1  0.4814300000000  0.5779870000000  0.4412630000000 1.0
C      1  0.4470690000000  0.4964580000000  0.5445860000000 1.0
C      1  0.5090040000000  0.4037320000000  0.5547140000000 1.0
C      1  0.5556130000000  0.5081380000000  0.4354970000000 1.0
C      1  0.3997710000000  0.4863150000000  0.4774440000000 1.0
C      1  0.5928260000000  0.5645770000000  0.5091640000000 1.0
C      1  0.5308250000000  0.5807730000000  0.5269690000000 1.0
C      1  0.5704460000000  0.4960900000000  0.5063880000000 1.0
C      1  0.4489460000000  0.4975940000000  0.6009740000000 1.0
C      1  0.4478630000000  0.4887520000000  0.4724790000000 1.0
C      1  0.5067670000000  0.5399700000000  0.6046250000000 1.0
C      1  0.4244610000000  0.5102200000000  0.5564710000000 1.0
C      1  0.4771050000000  0.4401080000000  0.5507110000000 1.0
C      1  0.5538120000000  0.4856330000000  0.5974860000000 1.0
C      1  0.4317540000000  0.5748540000000  0.4708030000000 1.0
C      1  0.5754240000000  0.4913210000000  0.4252870000000 1.0
C      1  0.5084220000000  0.5716880000000  0.5422230000000 1.0
C      1  0.4158450000000  0.5306450000000  0.5376870000000 1.0
C      1  0.4416950000000  0.4724450000000  0.5254470000000 1.0
C      1  0.4654190000000  0.4832600000000  0.4491730000000 1.0
C      1  0.4664260000000  0.4269810000000  0.4219950000000 1.0
C      1  0.4906640000000  0.4429780000000  0.4148640000000 1.0
C      1  0.5308900000000  0.4493640000000  0.4471090000000 1.0
C      1  0.5046100000000  0.4048940000000  0.4409500000000 1.0
C      1  0.4775800000000  0.4020040000000  0.4312720000000 1.0
C      1  0.5266640000000  0.4942760000000  0.6064580000000 1.0
C      1  0.5872450000000  0.5590660000000  0.4833690000000 1.0
C      1  0.6384560000000  0.5030190000000  0.4859890000000 1.0
C      1  0.4288570000000  0.5069880000000  0.5848520000000 1.0
C      1  0.4869390000000  0.4681550000000  0.4018330000000 1.0
C      1  0.5129410000000  0.5182700000000  0.4854210000000 1.0
C      1  0.5832430000000  0.4002530000000  0.5292160000000 1.0
C      1  0.5163930000000  0.4743730000000  0.4454320000000 1.0
C      1  0.5451690000000  0.4991350000000  0.5217500000000 1.0
C      1  0.4778060000000  0.5232640000000  0.5192310000000 1.0
C      1  0.5896910000000  0.5151350000000  0.5665010000000 1.0
C      1  0.5073540000000  0.5858680000000  0.4283480000000 1.0
C      1  0.4983300000000  0.5402090000000  0.4204620000000 1.0
C      1  0.5458470000000  0.4482120000000  0.4725500000000 1.0
C      1  0.5905880000000  0.4549160000000  0.4550520000000 1.0
C      1  0.5780330000000  0.4686440000000  0.5009090000000 1.0
C      1  0.5398860000000  0.5885320000000  0.4785560000000 1.0
C      1  0.4733870000000  0.4887620000000  0.6091550000000 1.0
C      1  0.4562650000000  0.4815080000000  0.5002350000000 1.0
C      1  0.4011990000000  0.5154280000000  0.4769130000000 1.0
C      1  0.5100440000000  0.5436470000000  0.5487990000000 1.0
C      1  0.5804100000000  0.5610420000000  0.5343160000000 1.0
C      1  0.5294610000000  0.4993200000000  0.4429040000000 1.0
C      1  0.4869590000000  0.4499520000000  0.4760160000000 1.0
C      1  0.4540820000000  0.4476510000000  0.5364360000000 1.0
C      1  0.4049310000000  0.3520900000000  0.5977100000000 1.0
C      1  0.4241300000000  0.3668820000000  0.5881060000000 1.0
C      1  0.5100710000000  0.6131420000000  0.4374600000000 1.0
C      1  0.4939570000000  0.4615570000000  0.5573580000000 1.0
C      1  0.4122040000000  0.5273220000000  0.4505880000000 1.0
C      1  0.5008980000000  0.5373080000000  0.5011640000000 1.0
C      1  0.5879060000000  0.5398630000000  0.5518720000000 1.0
C      1  0.4862980000000  0.5343920000000  0.5629790000000 1.0
C      1  0.4821870000000  0.5830480000000  0.5341410000000 1.0
C      1  0.4436500000000  0.3819220000000  0.5783410000000 1.0
C      1  0.4256860000000  0.4521610000000  0.4469730000000 1.0
C      1  0.5231810000000  0.5805790000000  0.4992910000000 1.0
C      1  0.4712800000000  0.5730640000000  0.5065550000000 1.0
C      1  0.4766510000000  0.5502700000000  0.4375090000000 1.0
C      1  0.4519350000000  0.5196180000000  0.4734110000000 1.0
C      1  0.4417920000000  0.4373060000000  0.4311620000000 1.0
C      1  0.4124200000000  0.4685500000000  0.5209750000000 1.0
C      1  0.5171520000000  0.5189130000000  0.4586100000000 1.0
C      1  0.3937970000000  0.4741030000000  0.5022430000000 1.0
C      1  0.5769710000000  0.5351880000000  0.4719730000000 1.0
C      1  0.4734280000000  0.5970720000000  0.4620480000000 1.0
C      1  0.5052180000000  0.4368960000000  0.4933910000000 1.0
C      1  0.5504210000000  0.5799460000000  0.4555130000000 1.0
C      1  0.4830040000000  0.4134620000000  0.5579470000000 1.0
C      1  0.5904300000000  0.4706070000000  0.4332550000000 1.0
C      1  0.5292380000000  0.4524180000000  0.4965720000000 1.0
C      1  0.4277290000000  0.5092930000000  0.4296810000000 1.0
C      1  0.6128140000000  0.5075250000000  0.4871270000000 1.0
C      1  0.4125160000000  0.5261770000000  0.5026570000000 1.0
C      1  0.5345400000000  0.3997440000000  0.5488840000000 1.0
C      1  0.5108270000000  0.3958430000000  0.4668240000000 1.0
C      1  0.4758770000000  0.4944930000000  0.4056300000000 1.0
C      1  0.4630890000000  0.3970140000000  0.5685460000000 1.0
C      1  0.5594260000000  0.3992360000000  0.5397670000000 1.0
C      1  0.4991870000000  0.5647700000000  0.4952780000000 1.0
C      1  0.5002790000000  0.4848140000000  0.6118210000000 1.0
C      1  0.4543190000000  0.4955630000000  0.4252090000000 1.0
C      1  0.4798250000000  0.4957750000000  0.5058350000000 1.0
C      1  0.5460420000000  0.5572710000000  0.4388570000000 1.0
C      1  0.5850330000000  0.5130280000000  0.4883530000000 1.0
C      1  0.4921960000000  0.5178100000000  0.4044540000000 1.0
C      1  0.5078640000000  0.4089540000000  0.4902790000000 1.0
C      1  0.4394780000000  0.5322540000000  0.4954130000000 1.0
C      1  0.4563740000000  0.5859810000000  0.4823490000000 1.0
C      1  0.5210880000000  0.5596660000000  0.4238500000000 1.0
C      1  0.4924830000000  0.4881170000000  0.5551150000000 1.0
C      1  0.4565350000000  0.5462510000000  0.5155720000000 1.0
C      1  0.4911490000000  0.6193590000000  0.4569630000000 1.0
C      1  0.5733090000000  0.4536830000000  0.4771100000000 1.0
C      1  0.4357410000000  0.5512570000000  0.5370950000000 1.0
C      1  0.5618790000000  0.5340530000000  0.4468890000000 1.0
C      1  0.5566340000000  0.5761450000000  0.5370350000000 1.0
C      1  0.5264850000000  0.5219560000000  0.5962120000000 1.0
C      1  0.5658250000000  0.5044460000000  0.5777550000000 1.0
C      1  0.6136550000000  0.5022590000000  0.5691530000000 1.0
C      1  0.5427740000000  0.5208940000000  0.5720250000000 1.0
C      1  0.5061090000000  0.4932440000000  0.4969060000000 1.0
END
