TITL C-612604-1799-8 0.0102149998741019 125000 -797.507438835851 0 0 133 (C1) n - 1
REM
REM in /home/nfs/bkarasulu/CARBON/AIRSS/Generating-Clusters/TERSOFF/Only-C1/FIRE-HFTN
REM
REM
REM
REM
REM
REM ./C.cell (11c1c37f851c82e70ff6c80c92926a4b)
REM AIRSS Version 0.9.1 bugfix July 2018 build 013d7b7c2542+ Fri, 06 Jul 2018 19:26:36 +0100
REM compiler GCC version 9.2.1 20190827 (Red Hat 9.2.1-1)
REM options -cpp -mtune=generic -march=x86-64 -g -O0 -fpre-include=/usr/include/finclude/math-vector-fortran.h
REM seed 504996647 742381005 964421184 1671247000 -531454648 1840787060 -1886151279 -58650599 1211783267 -818962990 -501744575 555934388 -438670562 1609342816 1779462190 651580466 -1766688823 -76373586 -82694743 -168340442 1970089935 611568575 -804409115 -1664976219 1683263886 -1008762586 1068295380 2110687729 -497210546 -1559580888 -1208587683 910808791 741784092
REM
CELL 1.54180   50.00000   50.00000   50.00000   90.00000   90.00000   90.00000
LATT -1
SFAC C  
C      1  0.5311010000000  0.4752390000000  0.4471320000000 1.0
C      1  0.5062920000000  0.4361850000000  0.4931270000000 1.0
C      1  0.5600740000000  0.4792320000000  0.5149760000000 1.0
C      1  0.4198060000000  0.5257510000000  0.5484440000000 1.0
C      1  0.4325140000000  0.5812370000000  0.5231800000000 1.0
C      1  0.4526480000000  0.4785050000000  0.5737140000000 1.0
C      1  0.5858940000000  0.4351300000000  0.5608750000000 1.0
C      1  0.5006310000000  0.5740450000000  0.5753810000000 1.0
C      1  0.5166890000000  0.5130370000000  0.4699030000000 1.0
C      1  0.5986790000000  0.5534900000000  0.5136560000000 1.0
C      1  0.4830120000000  0.5752730000000  0.5538150000000 1.0
C      1  0.5423360000000  0.5189040000000  0.4562740000000 1.0
C      1  0.5784030000000  0.4694440000000  0.4234090000000 1.0
C      1  0.5349450000000  0.4058010000000  0.5141450000000 1.0
C      1  0.6008280000000  0.5099990000000  0.5335590000000 1.0
C      1  0.5026790000000  0.5369960000000  0.4672020000000 1.0
C      1  0.4926670000000  0.4811210000000  0.5004070000000 1.0
C      1  0.4891510000000  0.4501130000000  0.4443760000000 1.0
C      1  0.5159330000000  0.5208310000000  0.5217690000000 1.0
C      1  0.5821630000000  0.4228750000000  0.5094470000000 1.0
C      1  0.5940320000000  0.4884210000000  0.4696350000000 1.0
C      1  0.4384100000000  0.4490690000000  0.4308680000000 1.0
C      1  0.4310140000000  0.5812160000000  0.4445960000000 1.0
C      1  0.4313120000000  0.4958040000000  0.5155790000000 1.0
C      1  0.5627560000000  0.5265440000000  0.4746190000000 1.0
C      1  0.4693020000000  0.5378920000000  0.3946260000000 1.0
C      1  0.4776080000000  0.5801490000000  0.4322690000000 1.0
C      1  0.4582200000000  0.4884630000000  0.4678070000000 1.0
C      1  0.5660410000000  0.5887820000000  0.5338510000000 1.0
C      1  0.5402870000000  0.5959510000000  0.5319090000000 1.0
C      1  0.4627710000000  0.5285110000000  0.5816030000000 1.0
C      1  0.5496880000000  0.5726640000000  0.4817900000000 1.0
C      1  0.5570440000000  0.4753760000000  0.5802930000000 1.0
C      1  0.5224940000000  0.5661360000000  0.5879890000000 1.0
C      1  0.5200550000000  0.4929220000000  0.4251010000000 1.0
C      1  0.4881000000000  0.4128780000000  0.5664780000000 1.0
C      1  0.5906950000000  0.4258970000000  0.5360980000000 1.0
C      1  0.4051190000000  0.4484860000000  0.5014330000000 1.0
C      1  0.5121440000000  0.4670660000000  0.5448340000000 1.0
C      1  0.4849780000000  0.4521150000000  0.5018100000000 1.0
C      1  0.4967260000000  0.5002490000000  0.5213360000000 1.0
C      1  0.5114040000000  0.5614120000000  0.4565490000000 1.0
C      1  0.4851350000000  0.4516450000000  0.5938530000000 1.0
C      1  0.5288870000000  0.4725780000000  0.5875730000000 1.0
C      1  0.4729170000000  0.4779680000000  0.5936280000000 1.0
C      1  0.5288580000000  0.4238500000000  0.5371460000000 1.0
C      1  0.5637320000000  0.3989230000000  0.4756900000000 1.0
C      1  0.4814160000000  0.5646300000000  0.4934470000000 1.0
C      1  0.5152370000000  0.4246490000000  0.5646550000000 1.0
C      1  0.4506980000000  0.5700300000000  0.4258470000000 1.0
C      1  0.5134210000000  0.4484440000000  0.5849060000000 1.0
C      1  0.4611420000000  0.5355100000000  0.5211100000000 1.0
C      1  0.5137810000000  0.5415200000000  0.4156920000000 1.0
C      1  0.4331220000000  0.5696900000000  0.5487510000000 1.0
C      1  0.4673670000000  0.4885530000000  0.4120210000000 1.0
C      1  0.6184890000000  0.4699980000000  0.5064410000000 1.0
C      1  0.4760900000000  0.5518670000000  0.5391800000000 1.0
C      1  0.4943040000000  0.4983070000000  0.4101100000000 1.0
C      1  0.4754990000000  0.4025280000000  0.5435670000000 1.0
C      1  0.6014030000000  0.4641680000000  0.4839880000000 1.0
C      1  0.4650510000000  0.4309530000000  0.5058800000000 1.0
C      1  0.4339880000000  0.4284050000000  0.5442860000000 1.0
C      1  0.4734340000000  0.6002300000000  0.5474300000000 1.0
C      1  0.4056930000000  0.5307840000000  0.4643070000000 1.0
C      1  0.5227360000000  0.5783610000000  0.4754110000000 1.0
C      1  0.5390440000000  0.5180780000000  0.5839650000000 1.0
C      1  0.4580750000000  0.4145630000000  0.4834990000000 1.0
C      1  0.4244880000000  0.4742590000000  0.4345350000000 1.0
C      1  0.5870360000000  0.5134580000000  0.4836880000000 1.0
C      1  0.5165130000000  0.5938160000000  0.5195450000000 1.0
C      1  0.4489910000000  0.5446640000000  0.4132270000000 1.0
C      1  0.4002500000000  0.4821440000000  0.4596170000000 1.0
C      1  0.5363430000000  0.5364400000000  0.5138960000000 1.0
C      1  0.4864590000000  0.5041370000000  0.5915590000000 1.0
C      1  0.4449120000000  0.5911790000000  0.4687320000000 1.0
C      1  0.4401680000000  0.4679520000000  0.4756230000000 1.0
C      1  0.5184250000000  0.4287830000000  0.4458580000000 1.0
C      1  0.5526670000000  0.5464620000000  0.4928480000000 1.0
C      1  0.5617660000000  0.4021520000000  0.5045100000000 1.0
C      1  0.5705500000000  0.5890880000000  0.4736590000000 1.0
C      1  0.5148480000000  0.4054470000000  0.4632400000000 1.0
C      1  0.5016690000000  0.4902400000000  0.4751900000000 1.0
C      1  0.4050800000000  0.5865430000000  0.4381010000000 1.0
C      1  0.4239500000000  0.4446830000000  0.4802050000000 1.0
C      1  0.4903020000000  0.4845000000000  0.5440120000000 1.0
C      1  0.4630550000000  0.4777090000000  0.5477000000000 1.0
C      1  0.4463730000000  0.4749470000000  0.5257230000000 1.0
C      1  0.4571490000000  0.4190950000000  0.5298630000000 1.0
C      1  0.6059530000000  0.4821920000000  0.5285960000000 1.0
C      1  0.4942090000000  0.5261740000000  0.4008940000000 1.0
C      1  0.4837200000000  0.4771130000000  0.4574330000000 1.0
C      1  0.4408300000000  0.4956810000000  0.4219820000000 1.0
C      1  0.4376250000000  0.5234490000000  0.4285500000000 1.0
C      1  0.5901070000000  0.6045960000000  0.4647790000000 1.0
C      1  0.5626380000000  0.5036680000000  0.5739750000000 1.0
C      1  0.5326620000000  0.5210600000000  0.4283080000000 1.0
C      1  0.5169000000000  0.4103080000000  0.4915860000000 1.0
C      1  0.5679640000000  0.4249050000000  0.4628800000000 1.0
C      1  0.4717070000000  0.5963500000000  0.4569560000000 1.0
C      1  0.4662220000000  0.5392090000000  0.4930530000000 1.0
C      1  0.5741180000000  0.4534220000000  0.5766040000000 1.0
C      1  0.5026190000000  0.5650460000000  0.4299750000000 1.0
C      1  0.4370010000000  0.5884930000000  0.4967170000000 1.0
C      1  0.4542870000000  0.5187040000000  0.4736330000000 1.0
C      1  0.5835890000000  0.5137720000000  0.5570190000000 1.0
C      1  0.3784790000000  0.5653980000000  0.4945550000000 1.0
C      1  0.4422640000000  0.4303580000000  0.5722390000000 1.0
C      1  0.5980840000000  0.5254610000000  0.5091230000000 1.0
C      1  0.6097650000000  0.6196650000000  0.4566520000000 1.0
C      1  0.4696460000000  0.4294670000000  0.5825730000000 1.0
C      1  0.5397030000000  0.4640520000000  0.5032180000000 1.0
C      1  0.4022500000000  0.4943490000000  0.5141190000000 1.0
C      1  0.3905890000000  0.5080300000000  0.4571450000000 1.0
C      1  0.5485640000000  0.4331860000000  0.4419870000000 1.0
C      1  0.5160610000000  0.5003260000000  0.5893860000000 1.0
C      1  0.4339960000000  0.4197620000000  0.4725690000000 1.0
C      1  0.4120920000000  0.4373710000000  0.5274290000000 1.0
C      1  0.5901150000000  0.4851560000000  0.4417980000000 1.0
C      1  0.5378820000000  0.4669800000000  0.4736500000000 1.0
C      1  0.5797770000000  0.4719340000000  0.5313080000000 1.0
C      1  0.3947420000000  0.4747390000000  0.4947520000000 1.0
C      1  0.3943380000000  0.5505750000000  0.4801100000000 1.0
C      1  0.4356250000000  0.5440340000000  0.5649440000000 1.0
C      1  0.5608360000000  0.4489950000000  0.4217700000000 1.0
C      1  0.5044640000000  0.5817830000000  0.4971640000000 1.0
C      1  0.4329120000000  0.5286470000000  0.4564080000000 1.0
C      1  0.4645700000000  0.4404490000000  0.4324760000000 1.0
C      1  0.3956910000000  0.5117660000000  0.5375940000000 1.0
C      1  0.5858800000000  0.4392170000000  0.4837590000000 1.0
C      1  0.5872500000000  0.5743210000000  0.5261510000000 1.0
C      1  0.4389420000000  0.5202480000000  0.5270090000000 1.0
C      1  0.5277610000000  0.4513800000000  0.5274460000000 1.0
C      1  0.5384200000000  0.5450670000000  0.5901560000000 1.0
END
