TITL C-612605-9286-918 0.000315390138478184 125000 -420.357932353639 0 0 71 (C1) n - 1
REM
REM in /home/nfs/bkarasulu/CARBON/AIRSS/Generating-Clusters/TERSOFF/Only-C1/FIRE-HFTN
REM
REM
REM
REM
REM
REM ./C.cell (11c1c37f851c82e70ff6c80c92926a4b)
REM AIRSS Version 0.9.1 bugfix July 2018 build 013d7b7c2542+ Fri, 06 Jul 2018 19:26:36 +0100
REM compiler GCC version 9.2.1 20190827 (Red Hat 9.2.1-1)
REM options -cpp -mtune=generic -march=x86-64 -g -O0 -fpre-include=/usr/include/finclude/math-vector-fortran.h
REM seed -613496356 5508067 -669184923 -1847680656 -1184026218 1090062871 -741435870 -27892969 -439358662 698069015 -137185365 1184190607 -1820891360 -441636079 661012423 843104159 282485768 526271916 1235123998 -1430820402 1575016221 -345667351 1104212143 1925912973 1587189424 -520041883 -1849720027 1551989215 647947194 -671246911 -1745596557 -203419860 54444291
REM
CELL 1.54180   50.00000   50.00000   50.00000   90.00000   90.00000   90.00000
LATT -1
SFAC C  
C      1  0.4331230000000  0.5689020000000  0.4549880000000 1.0
C      1  0.4800590000000  0.4283590000000  0.5328720000000 1.0
C      1  0.4351390000000  0.5171310000000  0.5453870000000 1.0
C      1  0.5174930000000  0.4534200000000  0.4344840000000 1.0
C      1  0.5612900000000  0.5223030000000  0.4406410000000 1.0
C      1  0.4898320000000  0.5562890000000  0.4460500000000 1.0
C      1  0.4372660000000  0.4674700000000  0.4878030000000 1.0
C      1  0.5870680000000  0.5285820000000  0.5648170000000 1.0
C      1  0.5160470000000  0.4799800000000  0.5131540000000 1.0
C      1  0.4613130000000  0.5576100000000  0.5250300000000 1.0
C      1  0.4695920000000  0.4588070000000  0.4443480000000 1.0
C      1  0.5567100000000  0.5077140000000  0.5068650000000 1.0
C      1  0.5365450000000  0.5698280000000  0.5375040000000 1.0
C      1  0.4441560000000  0.4747200000000  0.4423380000000 1.0
C      1  0.5434340000000  0.5687200000000  0.4906560000000 1.0
C      1  0.5253950000000  0.4484450000000  0.5458930000000 1.0
C      1  0.5800960000000  0.5075370000000  0.4529460000000 1.0
C      1  0.5113450000000  0.5062770000000  0.4453490000000 1.0
C      1  0.4829240000000  0.4974530000000  0.5570150000000 1.0
C      1  0.4467660000000  0.5414540000000  0.5434210000000 1.0
C      1  0.5110590000000  0.5604440000000  0.5478100000000 1.0
C      1  0.5681610000000  0.4832220000000  0.4951690000000 1.0
C      1  0.4823150000000  0.4843280000000  0.4805130000000 1.0
C      1  0.5525590000000  0.4570190000000  0.4998290000000 1.0
C      1  0.4297650000000  0.4924970000000  0.5311610000000 1.0
C      1  0.4927980000000  0.4956900000000  0.4261350000000 1.0
C      1  0.4995340000000  0.5048690000000  0.4712040000000 1.0
C      1  0.4990060000000  0.5840010000000  0.5079030000000 1.0
C      1  0.4892420000000  0.5136980000000  0.5367370000000 1.0
C      1  0.4883540000000  0.5689490000000  0.5303800000000 1.0
C      1  0.5470000000000  0.4458310000000  0.4733700000000 1.0
C      1  0.5150460000000  0.5728890000000  0.4870250000000 1.0
C      1  0.5176070000000  0.5380280000000  0.5647080000000 1.0
C      1  0.5636700000000  0.5262110000000  0.5508940000000 1.0
C      1  0.4330350000000  0.5211330000000  0.4641780000000 1.0
C      1  0.4693510000000  0.5137390000000  0.4267960000000 1.0
C      1  0.5445920000000  0.4634670000000  0.4293690000000 1.0
C      1  0.4403200000000  0.5484350000000  0.4719850000000 1.0
C      1  0.5622380000000  0.5312950000000  0.5223940000000 1.0
C      1  0.4510960000000  0.5556830000000  0.4977560000000 1.0
C      1  0.5312880000000  0.4571160000000  0.5196070000000 1.0
C      1  0.5617830000000  0.5761550000000  0.4718840000000 1.0
C      1  0.4922800000000  0.4667740000000  0.4284920000000 1.0
C      1  0.4782640000000  0.4022420000000  0.5241850000000 1.0
C      1  0.5755320000000  0.4835690000000  0.4667450000000 1.0
C      1  0.5388490000000  0.5184830000000  0.5637250000000 1.0
C      1  0.5508730000000  0.5575120000000  0.5159390000000 1.0
C      1  0.4484680000000  0.4695660000000  0.5377940000000 1.0
C      1  0.4146350000000  0.5093840000000  0.4834220000000 1.0
C      1  0.4916820000000  0.5254650000000  0.5129080000000 1.0
C      1  0.5010120000000  0.4342600000000  0.5516930000000 1.0
C      1  0.4132770000000  0.4977150000000  0.5081130000000 1.0
C      1  0.4973680000000  0.5289250000000  0.4856410000000 1.0
C      1  0.5224040000000  0.4383280000000  0.4596770000000 1.0
C      1  0.4607630000000  0.4469620000000  0.5223600000000 1.0
C      1  0.5357340000000  0.4909630000000  0.5694960000000 1.0
C      1  0.4972620000000  0.4249420000000  0.5779350000000 1.0
C      1  0.5011550000000  0.5535440000000  0.4717230000000 1.0
C      1  0.4463110000000  0.5044150000000  0.4419490000000 1.0
C      1  0.4570450000000  0.4469830000000  0.4937330000000 1.0
C      1  0.5548770000000  0.4493240000000  0.5846070000000 1.0
C      1  0.4761810000000  0.5413520000000  0.4281030000000 1.0
C      1  0.4255490000000  0.4656700000000  0.4620800000000 1.0
C      1  0.4774000000000  0.4552140000000  0.4729990000000 1.0
C      1  0.5616170000000  0.4624130000000  0.4528890000000 1.0
C      1  0.4926340000000  0.4168020000000  0.6022560000000 1.0
C      1  0.5347960000000  0.5196190000000  0.4384680000000 1.0
C      1  0.5386450000000  0.4628400000000  0.5671460000000 1.0
C      1  0.4653100000000  0.4773210000000  0.5596420000000 1.0
C      1  0.4557580000000  0.4910470000000  0.4906950000000 1.0
C      1  0.5289100000000  0.5026630000000  0.5072180000000 1.0
END
