TITL C-612600-6631-1084 -62214.3420291791 125000 -1140.22047971256 0 0 188 (C1) n - 1
REM
REM in /home/nfs/bkarasulu/CARBON/AIRSS/Generating-Clusters/TERSOFF/Only-C1/FIRE-HFTN
REM
REM
REM
REM
REM
REM ./C.cell (11c1c37f851c82e70ff6c80c92926a4b)
REM AIRSS Version 0.9.1 bugfix July 2018 build 013d7b7c2542+ Fri, 06 Jul 2018 19:26:36 +0100
REM compiler GCC version 9.2.1 20190827 (Red Hat 9.2.1-1)
REM options -cpp -mtune=generic -march=x86-64 -g -O0 -fpre-include=/usr/include/finclude/math-vector-fortran.h
REM seed 1435565119 -805783468 -1808800612 -1494794323 890651480 687640680 -1930538165 -1064518409 2019981612 327194385 548277178 275630745 -1220059716 806890399 -1187459974 245036041 -801133350 -1604843660 932950724 -900993228 -1972717612 -485451207 -257856998 -572285129 33417281 -1694630933 1258426552 1430397390 -607736860 -499858492 -2080605937 -294760282 2135918456
REM
CELL 1.54180   50.00000   50.00000   50.00000   90.00000   90.00000   90.00000
LATT -1
SFAC C  
C      1  0.4848240000000  0.4608000000000  0.6085500000000 1.0
C      1  0.6054480000000  0.4550160000000  0.5450680000000 1.0
C      1  0.4855650000000  0.5146010000000  0.5792130000000 1.0
C      1  0.5910210000000  0.4816670000000  0.3854490000000 1.0
C      1  0.4962060000000  0.5867490000000  0.4305250000000 1.0
C      1  0.5487990000000  0.6123370000000  0.5080880000000 1.0
C      1  0.4040910000000  0.5588660000000  0.5533250000000 1.0
C      1  0.5448390000000  0.5604920000000  0.5256260000000 1.0
C      1  0.4719890000000  0.3809000000000  0.5132350000000 1.0
C      1  0.4806950000000  0.5411720000000  0.4577710000000 1.0
C      1  0.5635030000000  0.4181910000000  0.5427040000000 1.0
C      1  0.5860790000000  0.4347930000000  0.5429050000000 1.0
C      1  0.5594180000000  0.3500940000000  0.4313370000000 1.0
C      1  0.4624070000000  0.3937660000000  0.4649560000000 1.0
C      1  0.6022370000000  0.5451350000000  0.5505990000000 1.0
C      1  0.4882880000000  0.3759990000000  0.5341140000000 1.0
C      1  0.5897430000000  0.5408840000000  0.4597940000000 1.0
C      1  0.5765760000000  0.5719800000000  0.4931870000000 1.0
C      1  0.5177600000000  0.5740170000000  0.4158090000000 1.0
C      1  0.3754720000000  0.4955650000000  0.4884160000000 1.0
C      1  0.5570260000000  0.5869260000000  0.4383540000000 1.0
C      1  0.5781610000000  0.5017230000000  0.5122390000000 1.0
C      1  0.5822210000000  0.4400660000000  0.4381880000000 1.0
C      1  0.5085190000000  0.5371630000000  0.5125300000000 1.0
C      1  0.4192700000000  0.5197760000000  0.4500210000000 1.0
C      1  0.5222730000000  0.6179790000000  0.4951470000000 1.0
C      1  0.4894840000000  0.5421740000000  0.5812800000000 1.0
C      1  0.4133350000000  0.5408930000000  0.4678330000000 1.0
C      1  0.5370060000000  0.3464850000000  0.4453060000000 1.0
C      1  0.6186430000000  0.5007150000000  0.5551120000000 1.0
C      1  0.4639890000000  0.5185800000000  0.4631670000000 1.0
C      1  0.3448580000000  0.5296090000000  0.4625890000000 1.0
C      1  0.5063500000000  0.4979970000000  0.5710400000000 1.0
C      1  0.4394510000000  0.4586770000000  0.5069810000000 1.0
C      1  0.4620610000000  0.5971830000000  0.5375340000000 1.0
C      1  0.5429680000000  0.4051360000000  0.4523950000000 1.0
C      1  0.5557290000000  0.4055720000000  0.5197800000000 1.0
C      1  0.5209830000000  0.6039000000000  0.4699920000000 1.0
C      1  0.5496560000000  0.4369700000000  0.5849490000000 1.0
C      1  0.4554500000000  0.4374160000000  0.4082180000000 1.0
C      1  0.4061880000000  0.4663050000000  0.4642260000000 1.0
C      1  0.4265860000000  0.5872450000000  0.4594920000000 1.0
C      1  0.5381810000000  0.4529820000000  0.4556690000000 1.0
C      1  0.5052310000000  0.6297710000000  0.5149290000000 1.0
C      1  0.5805790000000  0.5561630000000  0.5652370000000 1.0
C      1  0.5575520000000  0.4586400000000  0.4308360000000 1.0
C      1  0.5625340000000  0.6047450000000  0.5555590000000 1.0
C      1  0.4451670000000  0.4707340000000  0.5561100000000 1.0
C      1  0.4194320000000  0.5742980000000  0.5351000000000 1.0
C      1  0.4751510000000  0.5869610000000  0.5167250000000 1.0
C      1  0.6061080000000  0.5129440000000  0.4253870000000 1.0
C      1  0.5762270000000  0.5841240000000  0.5658840000000 1.0
C      1  0.5388680000000  0.5417190000000  0.5470850000000 1.0
C      1  0.5017670000000  0.4866840000000  0.5132880000000 1.0
C      1  0.4539730000000  0.4567290000000  0.4637950000000 1.0
C      1  0.5257430000000  0.3971020000000  0.5647430000000 1.0
C      1  0.4888280000000  0.4885370000000  0.6158360000000 1.0
C      1  0.4356640000000  0.5225970000000  0.5124660000000 1.0
C      1  0.6295650000000  0.4515630000000  0.5324060000000 1.0
C      1  0.5965390000000  0.4484390000000  0.4606550000000 1.0
C      1  0.5731560000000  0.4498250000000  0.4894660000000 1.0
C      1  0.5136470000000  0.5115660000000  0.4298440000000 1.0
C      1  0.5869920000000  0.4156160000000  0.4254350000000 1.0
C      1  0.4656730000000  0.3993610000000  0.4927440000000 1.0
C      1  0.3766880000000  0.5603360000000  0.5508430000000 1.0
C      1  0.4095460000000  0.4386860000000  0.5498910000000 1.0
C      1  0.5428680000000  0.5137390000000  0.4205790000000 1.0
C      1  0.4967630000000  0.4976890000000  0.4099700000000 1.0
C      1  0.6043200000000  0.5161320000000  0.5091750000000 1.0
C      1  0.5069340000000  0.3824290000000  0.5523720000000 1.0
C      1  0.5859600000000  0.3895450000000  0.4200980000000 1.0
C      1  0.4797160000000  0.5847100000000  0.5950490000000 1.0
C      1  0.6006550000000  0.4789880000000  0.5606620000000 1.0
C      1  0.4761820000000  0.5656930000000  0.4989980000000 1.0
C      1  0.5751980000000  0.4491320000000  0.5887710000000 1.0
C      1  0.5103750000000  0.5481220000000  0.6013660000000 1.0
C      1  0.5243280000000  0.4859480000000  0.5550330000000 1.0
C      1  0.3585300000000  0.5132670000000  0.4783550000000 1.0
C      1  0.4763760000000  0.4928990000000  0.5251350000000 1.0
C      1  0.3942070000000  0.4727830000000  0.4919740000000 1.0
C      1  0.4594210000000  0.4251560000000  0.5457440000000 1.0
C      1  0.4838420000000  0.5664670000000  0.4719050000000 1.0
C      1  0.3811110000000  0.4541090000000  0.5126090000000 1.0
C      1  0.6090350000000  0.5239740000000  0.4754900000000 1.0
C      1  0.4149610000000  0.5426080000000  0.5745840000000 1.0
C      1  0.5569340000000  0.4903630000000  0.4317940000000 1.0
C      1  0.4304010000000  0.5065880000000  0.4027110000000 1.0
C      1  0.4882150000000  0.4323710000000  0.5403740000000 1.0
C      1  0.3184080000000  0.5667330000000  0.3983220000000 1.0
C      1  0.5165920000000  0.3565700000000  0.4594070000000 1.0
C      1  0.5614660000000  0.4984720000000  0.4585160000000 1.0
C      1  0.6429350000000  0.5014650000000  0.5679420000000 1.0
C      1  0.4911770000000  0.4548970000000  0.5584520000000 1.0
C      1  0.4469950000000  0.5214310000000  0.6051540000000 1.0
C      1  0.4752070000000  0.4260790000000  0.4966880000000 1.0
C      1  0.5606020000000  0.4941750000000  0.5924390000000 1.0
C      1  0.5079230000000  0.3820850000000  0.4673000000000 1.0
C      1  0.5496400000000  0.5993790000000  0.4628200000000 1.0
C      1  0.5394470000000  0.5063250000000  0.4747860000000 1.0
C      1  0.4219930000000  0.5007090000000  0.5241370000000 1.0
C      1  0.4193900000000  0.4785690000000  0.5071310000000 1.0
C      1  0.4640940000000  0.5188220000000  0.5166750000000 1.0
C      1  0.6055710000000  0.4764640000000  0.4592200000000 1.0
C      1  0.5809270000000  0.4766190000000  0.5817060000000 1.0
C      1  0.4280830000000  0.4925440000000  0.5506640000000 1.0
C      1  0.4516410000000  0.4922260000000  0.3908880000000 1.0
C      1  0.4391890000000  0.3864600000000  0.4530000000000 1.0
C      1  0.5813170000000  0.3618710000000  0.4182150000000 1.0
C      1  0.5123170000000  0.4656240000000  0.4521170000000 1.0
C      1  0.3852600000000  0.5006140000000  0.5694500000000 1.0
C      1  0.4356890000000  0.6188830000000  0.4953530000000 1.0
C      1  0.4738190000000  0.4822540000000  0.4060580000000 1.0
C      1  0.5397170000000  0.5533080000000  0.4759080000000 1.0
C      1  0.5464230000000  0.4163870000000  0.5656090000000 1.0
C      1  0.3770590000000  0.4401360000000  0.4271550000000 1.0
C      1  0.4721410000000  0.4757750000000  0.5487990000000 1.0
C      1  0.5452500000000  0.5660890000000  0.4221070000000 1.0
C      1  0.4812340000000  0.5403870000000  0.5106940000000 1.0
C      1  0.4857880000000  0.6085080000000  0.5812630000000 1.0
C      1  0.4215490000000  0.5706120000000  0.5064550000000 1.0
C      1  0.5170840000000  0.4985020000000  0.6158300000000 1.0
C      1  0.4374190000000  0.4427770000000  0.5532770000000 1.0
C      1  0.5701750000000  0.4636000000000  0.3793940000000 1.0
C      1  0.5652400000000  0.4554750000000  0.3538150000000 1.0
C      1  0.3343510000000  0.5438730000000  0.4428770000000 1.0
C      1  0.5982790000000  0.3462550000000  0.4034460000000 1.0
C      1  0.3962490000000  0.5222020000000  0.5846570000000 1.0
C      1  0.5778550000000  0.4771000000000  0.4975260000000 1.0
C      1  0.5272340000000  0.4124120000000  0.4309260000000 1.0
C      1  0.6182420000000  0.5010490000000  0.4499160000000 1.0
C      1  0.5585240000000  0.5388510000000  0.4210430000000 1.0
C      1  0.5000890000000  0.5361750000000  0.4382380000000 1.0
C      1  0.5520740000000  0.5221370000000  0.5908950000000 1.0
C      1  0.5827870000000  0.4881410000000  0.4713870000000 1.0
C      1  0.3802960000000  0.4771970000000  0.5568580000000 1.0
C      1  0.5687330000000  0.5557630000000  0.4704160000000 1.0
C      1  0.3259200000000  0.5559710000000  0.4208480000000 1.0
C      1  0.4156010000000  0.5178650000000  0.4221390000000 1.0
C      1  0.5449400000000  0.6155440000000  0.5366540000000 1.0
C      1  0.5287690000000  0.4542580000000  0.5929600000000 1.0
C      1  0.4091670000000  0.5656600000000  0.4546380000000 1.0
C      1  0.4702710000000  0.5057860000000  0.6022000000000 1.0
C      1  0.5021960000000  0.6214890000000  0.5644360000000 1.0
C      1  0.5009900000000  0.4527710000000  0.5860050000000 1.0
C      1  0.4225670000000  0.5431540000000  0.4959130000000 1.0
C      1  0.4492650000000  0.4278810000000  0.6318110000000 1.0
C      1  0.5866000000000  0.5340220000000  0.4317630000000 1.0
C      1  0.5174310000000  0.6249250000000  0.5411350000000 1.0
C      1  0.5223590000000  0.5234860000000  0.5327580000000 1.0
C      1  0.3876390000000  0.5248920000000  0.6107320000000 1.0
C      1  0.3873870000000  0.4544500000000  0.5409130000000 1.0
C      1  0.4660130000000  0.5602910000000  0.5840780000000 1.0
C      1  0.4511700000000  0.4877570000000  0.3638120000000 1.0
C      1  0.4381090000000  0.4214180000000  0.3971510000000 1.0
C      1  0.4335610000000  0.4755610000000  0.4592010000000 1.0
C      1  0.5649850000000  0.5980540000000  0.4888330000000 1.0
C      1  0.5021530000000  0.5738790000000  0.6107410000000 1.0
C      1  0.5458740000000  0.4430690000000  0.4825180000000 1.0
C      1  0.5236260000000  0.4954180000000  0.5288860000000 1.0
C      1  0.4410630000000  0.5446210000000  0.5881450000000 1.0
C      1  0.4741890000000  0.4561460000000  0.4174130000000 1.0
C      1  0.5003100000000  0.5870410000000  0.4593610000000 1.0
C      1  0.5263180000000  0.4234650000000  0.4955500000000 1.0
C      1  0.5571280000000  0.5396060000000  0.5688750000000 1.0
C      1  0.5159990000000  0.4952640000000  0.4573240000000 1.0
C      1  0.5000150000000  0.4286030000000  0.5123800000000 1.0
C      1  0.4550400000000  0.6363760000000  0.5011310000000 1.0
C      1  0.4875490000000  0.3968820000000  0.4522900000000 1.0
C      1  0.4938660000000  0.4478320000000  0.4367370000000 1.0
C      1  0.5274210000000  0.5259120000000  0.6072280000000 1.0
C      1  0.5266650000000  0.5565540000000  0.5019270000000 1.0
C      1  0.4370790000000  0.5931740000000  0.5461250000000 1.0
C      1  0.6119900000000  0.5221640000000  0.5369490000000 1.0
C      1  0.4456570000000  0.5943000000000  0.4395170000000 1.0
C      1  0.4687300000000  0.5924810000000  0.4251630000000 1.0
C      1  0.4802600000000  0.6405630000000  0.5089070000000 1.0
C      1  0.5587900000000  0.5202080000000  0.5023910000000 1.0
C      1  0.6042880000000  0.4986410000000  0.4012700000000 1.0
C      1  0.4581210000000  0.4470990000000  0.4896940000000 1.0
C      1  0.5372320000000  0.4795980000000  0.6047860000000 1.0
C      1  0.5545130000000  0.4542350000000  0.4011210000000 1.0
C      1  0.5281710000000  0.4001460000000  0.4770580000000 1.0
C      1  0.4274090000000  0.5931080000000  0.4878130000000 1.0
C      1  0.5691190000000  0.5538190000000  0.5137660000000 1.0
C      1  0.3914120000000  0.4523120000000  0.4451730000000 1.0
C      1  0.4405120000000  0.5032350000000  0.4587360000000 1.0
C      1  0.4996660000000  0.4188420000000  0.4368780000000 1.0
C      1  0.4671040000000  0.4438430000000  0.6215140000000 1.0
END
