TITL C-612605-9286-240 -2987.99183699023 125000 -546.226601408602 0 0 91 (C1) n - 1
REM
REM in /home/nfs/bkarasulu/CARBON/AIRSS/Generating-Clusters/TERSOFF/Only-C1/FIRE-HFTN
REM
REM
REM
REM
REM
REM ./C.cell (11c1c37f851c82e70ff6c80c92926a4b)
REM AIRSS Version 0.9.1 bugfix July 2018 build 013d7b7c2542+ Fri, 06 Jul 2018 19:26:36 +0100
REM compiler GCC version 9.2.1 20190827 (Red Hat 9.2.1-1)
REM options -cpp -mtune=generic -march=x86-64 -g -O0 -fpre-include=/usr/include/finclude/math-vector-fortran.h
REM seed -446019960 -2093706489 253779201 1931873671 1371119094 -799989779 -1514595735 1526844292 -39976707 -1933924585 -1997331793 1971421686 1007953998 -1309075496 -919321734 -471780026 1354817064 -980435249 -1293973367 -1557503487 -1879643982 -614542397 1800863063 -1488790181 1992783030 -183770409 1815185382 -6759088 -2131054203 -174798143 336636458 -1690281973 -1787110549
REM
CELL 1.54180   50.00000   50.00000   50.00000   90.00000   90.00000   90.00000
LATT -1
SFAC C  
C      1  0.5439000000000  0.4345140000000  0.4708770000000 1.0
C      1  0.5652330000000  0.4639950000000  0.4986800000000 1.0
C      1  0.4941620000000  0.4312700000000  0.5590060000000 1.0
C      1  0.4809200000000  0.5497190000000  0.4299850000000 1.0
C      1  0.4595870000000  0.4219100000000  0.5199220000000 1.0
C      1  0.4494900000000  0.4566810000000  0.4528430000000 1.0
C      1  0.5134360000000  0.5034100000000  0.5229940000000 1.0
C      1  0.5471390000000  0.5151650000000  0.4498070000000 1.0
C      1  0.5342210000000  0.4756580000000  0.4095540000000 1.0
C      1  0.4928200000000  0.5943350000000  0.5620140000000 1.0
C      1  0.5821240000000  0.5161940000000  0.4909870000000 1.0
C      1  0.5697960000000  0.5060330000000  0.5160540000000 1.0
C      1  0.5389470000000  0.5741790000000  0.5467820000000 1.0
C      1  0.5194350000000  0.5888410000000  0.5619620000000 1.0
C      1  0.4388000000000  0.4489160000000  0.4793310000000 1.0
C      1  0.5085810000000  0.5378430000000  0.4939780000000 1.0
C      1  0.4389360000000  0.4813110000000  0.4407180000000 1.0
C      1  0.5613960000000  0.5683380000000  0.5035310000000 1.0
C      1  0.4287980000000  0.4705750000000  0.4942610000000 1.0
C      1  0.4691050000000  0.5855930000000  0.5515760000000 1.0
C      1  0.4918490000000  0.4854510000000  0.5348090000000 1.0
C      1  0.4845430000000  0.5059630000000  0.4141420000000 1.0
C      1  0.5454490000000  0.4372570000000  0.4418420000000 1.0
C      1  0.5338500000000  0.5766350000000  0.5161680000000 1.0
C      1  0.5980600000000  0.5392690000000  0.4953720000000 1.0
C      1  0.4659290000000  0.5617160000000  0.5361150000000 1.0
C      1  0.4147260000000  0.4907310000000  0.4800780000000 1.0
C      1  0.4347530000000  0.4742600000000  0.5739090000000 1.0
C      1  0.4252390000000  0.4263990000000  0.5581170000000 1.0
C      1  0.5367730000000  0.5321210000000  0.4928600000000 1.0
C      1  0.5263670000000  0.5302670000000  0.4120170000000 1.0
C      1  0.5410810000000  0.5406620000000  0.4363780000000 1.0
C      1  0.5365500000000  0.4972470000000  0.5605230000000 1.0
C      1  0.4431870000000  0.4841750000000  0.4127530000000 1.0
C      1  0.4616480000000  0.4845070000000  0.5809320000000 1.0
C      1  0.5097280000000  0.5019400000000  0.6006450000000 1.0
C      1  0.4547340000000  0.4280450000000  0.4916550000000 1.0
C      1  0.5012570000000  0.4280210000000  0.4873430000000 1.0
C      1  0.5032760000000  0.5921600000000  0.4461080000000 1.0
C      1  0.5157540000000  0.4472350000000  0.5693430000000 1.0
C      1  0.4323020000000  0.4973000000000  0.5326700000000 1.0
C      1  0.5245840000000  0.5944790000000  0.4915050000000 1.0
C      1  0.4828380000000  0.4594160000000  0.4031710000000 1.0
C      1  0.5543800000000  0.5212350000000  0.5581800000000 1.0
C      1  0.5352520000000  0.5027540000000  0.4033620000000 1.0
C      1  0.5080060000000  0.5562120000000  0.5155360000000 1.0
C      1  0.5178150000000  0.4457550000000  0.4747490000000 1.0
C      1  0.4460440000000  0.4809560000000  0.5141780000000 1.0
C      1  0.5133370000000  0.5104360000000  0.5739110000000 1.0
C      1  0.4852750000000  0.5770430000000  0.4333340000000 1.0
C      1  0.5515380000000  0.5488800000000  0.5555020000000 1.0
C      1  0.4953980000000  0.4477240000000  0.4265320000000 1.0
C      1  0.4423990000000  0.5423170000000  0.4906460000000 1.0
C      1  0.5247170000000  0.5860060000000  0.4631000000000 1.0
C      1  0.5887380000000  0.5623880000000  0.5069090000000 1.0
C      1  0.5255890000000  0.4519270000000  0.4252730000000 1.0
C      1  0.4239080000000  0.4978540000000  0.5594280000000 1.0
C      1  0.4984220000000  0.5122240000000  0.4980060000000 1.0
C      1  0.4915040000000  0.5482820000000  0.5376230000000 1.0
C      1  0.4751850000000  0.4413730000000  0.4481740000000 1.0
C      1  0.5640870000000  0.5045760000000  0.4702580000000 1.0
C      1  0.4859770000000  0.4246140000000  0.5326120000000 1.0
C      1  0.4809330000000  0.4813550000000  0.5605200000000 1.0
C      1  0.5538380000000  0.4379600000000  0.4994430000000 1.0
C      1  0.4379060000000  0.4164370000000  0.5368780000000 1.0
C      1  0.5764360000000  0.4788580000000  0.5195900000000 1.0
C      1  0.5322920000000  0.4623050000000  0.5502880000000 1.0
C      1  0.5412140000000  0.5625340000000  0.4560840000000 1.0
C      1  0.5416320000000  0.5131220000000  0.5153440000000 1.0
C      1  0.4996440000000  0.5315290000000  0.5595650000000 1.0
C      1  0.4297180000000  0.5028460000000  0.4590830000000 1.0
C      1  0.4787330000000  0.5068770000000  0.4425050000000 1.0
C      1  0.5078460000000  0.4266670000000  0.5148440000000 1.0
C      1  0.4746700000000  0.4775950000000  0.5113980000000 1.0
C      1  0.4321540000000  0.5199360000000  0.5766580000000 1.0
C      1  0.4924730000000  0.4859040000000  0.4885070000000 1.0
C      1  0.4551840000000  0.5116640000000  0.5900910000000 1.0
C      1  0.5487390000000  0.4811620000000  0.4813160000000 1.0
C      1  0.4491310000000  0.5539590000000  0.5143120000000 1.0
C      1  0.5515540000000  0.5528030000000  0.4810190000000 1.0
C      1  0.5184020000000  0.4735500000000  0.4801450000000 1.0
C      1  0.5245700000000  0.4991220000000  0.4468720000000 1.0
C      1  0.4671350000000  0.5322250000000  0.4494840000000 1.0
C      1  0.4440340000000  0.5281410000000  0.4656460000000 1.0
C      1  0.5335280000000  0.4394180000000  0.5222690000000 1.0
C      1  0.4772660000000  0.4251750000000  0.4735430000000 1.0
C      1  0.4699500000000  0.4846750000000  0.4025200000000 1.0
C      1  0.5167510000000  0.4539540000000  0.5967070000000 1.0
C      1  0.4973900000000  0.5325890000000  0.4113220000000 1.0
C      1  0.4249620000000  0.4484260000000  0.5731110000000 1.0
C      1  0.5130410000000  0.4769220000000  0.6103070000000 1.0
END
