TITL C-612604-1799-1464 -0.182863345931402 125000 -294.013336751543 0 0 49 (C1) n - 1
REM
REM in /home/nfs/bkarasulu/CARBON/AIRSS/Generating-Clusters/TERSOFF/Only-C1/FIRE-HFTN
REM
REM
REM
REM
REM
REM ./C.cell (11c1c37f851c82e70ff6c80c92926a4b)
REM AIRSS Version 0.9.1 bugfix July 2018 build 013d7b7c2542+ Fri, 06 Jul 2018 19:26:36 +0100
REM compiler GCC version 9.2.1 20190827 (Red Hat 9.2.1-1)
REM options -cpp -mtune=generic -march=x86-64 -g -O0 -fpre-include=/usr/include/finclude/math-vector-fortran.h
REM seed -2101406924 2023550915 -1095510363 16467794 -1237214309 186950394 -1818500127 -2055651213 500621427 -1061394329 -221690837 859013192 1264349870 629687759 -1089783936 99378225 1313808044 1807817395 -1493819117 1173614281 1554941763 497270737 891563278 -1458027869 571763810 -84462087 1291905706 -853929421 797388766 1503260154 -635511535 1016902921 -1186296034
REM
CELL 1.54180   50.00000   50.00000   50.00000   90.00000   90.00000   90.00000
LATT -1
SFAC C  
C      1  0.4787220000000  0.5427730000000  0.4439650000000 1.0
C      1  0.5385820000000  0.4943740000000  0.5372400000000 1.0
C      1  0.5334170000000  0.5064880000000  0.4413250000000 1.0
C      1  0.4877470000000  0.4180020000000  0.4966750000000 1.0
C      1  0.4618340000000  0.5165430000000  0.5030800000000 1.0
C      1  0.4352630000000  0.4707240000000  0.5774180000000 1.0
C      1  0.4519180000000  0.4906120000000  0.5717840000000 1.0
C      1  0.4220810000000  0.4277050000000  0.4632110000000 1.0
C      1  0.4248980000000  0.4464300000000  0.5745920000000 1.0
C      1  0.4238000000000  0.4225350000000  0.5630120000000 1.0
C      1  0.5633130000000  0.5056420000000  0.5280480000000 1.0
C      1  0.5026750000000  0.4514400000000  0.4649250000000 1.0
C      1  0.5035450000000  0.4402280000000  0.4905340000000 1.0
C      1  0.4584160000000  0.5316490000000  0.4572180000000 1.0
C      1  0.5621980000000  0.5822920000000  0.5277090000000 1.0
C      1  0.4206210000000  0.4532720000000  0.4680820000000 1.0
C      1  0.5510870000000  0.5980560000000  0.5091810000000 1.0
C      1  0.5072880000000  0.4926270000000  0.4027180000000 1.0
C      1  0.5858950000000  0.4827610000000  0.4886260000000 1.0
C      1  0.5774050000000  0.4869420000000  0.4636390000000 1.0
C      1  0.5149930000000  0.4888960000000  0.4286400000000 1.0
C      1  0.5259200000000  0.5941620000000  0.4636440000000 1.0
C      1  0.5143930000000  0.5762720000000  0.4474850000000 1.0
C      1  0.5384730000000  0.6017010000000  0.4859460000000 1.0
C      1  0.5193590000000  0.5096270000000  0.5517950000000 1.0
C      1  0.4469480000000  0.5186320000000  0.4793310000000 1.0
C      1  0.5680670000000  0.5567350000000  0.5335760000000 1.0
C      1  0.4866660000000  0.5191680000000  0.5158110000000 1.0
C      1  0.5637230000000  0.5328540000000  0.5195990000000 1.0
C      1  0.5342950000000  0.5362310000000  0.5963160000000 1.0
C      1  0.5059620000000  0.5495630000000  0.4447250000000 1.0
C      1  0.4492280000000  0.3983100000000  0.5254120000000 1.0
C      1  0.4326980000000  0.4050210000000  0.5451060000000 1.0
C      1  0.5268200000000  0.5230170000000  0.5751360000000 1.0
C      1  0.4714020000000  0.5039330000000  0.5596960000000 1.0
C      1  0.3987330000000  0.5220440000000  0.4806340000000 1.0
C      1  0.5538580000000  0.5362930000000  0.4933540000000 1.0
C      1  0.5815010000000  0.4888200000000  0.5143890000000 1.0
C      1  0.5192400000000  0.4521090000000  0.5104610000000 1.0
C      1  0.4689970000000  0.4033500000000  0.5084090000000 1.0
C      1  0.5306300000000  0.4694220000000  0.5270530000000 1.0
C      1  0.4922570000000  0.5111030000000  0.5425100000000 1.0
C      1  0.4212310000000  0.5068190000000  0.4774550000000 1.0
C      1  0.5593650000000  0.4970100000000  0.4467490000000 1.0
C      1  0.5053450000000  0.4675350000000  0.4440090000000 1.0
C      1  0.5286820000000  0.5317550000000  0.4824730000000 1.0
C      1  0.5238390000000  0.5296340000000  0.4546720000000 1.0
C      1  0.4193510000000  0.4793790000000  0.4724190000000 1.0
C      1  0.5073200000000  0.5295140000000  0.5002140000000 1.0
END
