TITL C-612603-7354-1128 0.101223514263203 125000 -565.917762708708 0 0 93 (C1) n - 1
REM
REM in /home/nfs/bkarasulu/CARBON/AIRSS/Generating-Clusters/TERSOFF/Only-C1/FIRE-HFTN
REM
REM
REM
REM
REM
REM ./C.cell (11c1c37f851c82e70ff6c80c92926a4b)
REM AIRSS Version 0.9.1 bugfix July 2018 build 013d7b7c2542+ Fri, 06 Jul 2018 19:26:36 +0100
REM compiler GCC version 9.2.1 20190827 (Red Hat 9.2.1-1)
REM options -cpp -mtune=generic -march=x86-64 -g -O0 -fpre-include=/usr/include/finclude/math-vector-fortran.h
REM seed 1771656373 1243381613 -839618555 -1479822010 -19064368 1220856302 -251911322 19181093 -31082324 2071094241 -1396612440 660465527 2112478861 -1635024002 -1695852376 121904137 -319904347 672279438 -1013661064 -1005875969 -1211104614 -25194917 -1810511129 -1248751104 258804450 -1743588480 -1456478227 -1813563284 532597399 -678232154 1039150760 685482657 -1640511847
REM
CELL 1.54180   50.00000   50.00000   50.00000   90.00000   90.00000   90.00000
LATT -1
SFAC C  
C      1  0.5239310000000  0.4387340000000  0.4142890000000 1.0
C      1  0.5854290000000  0.5421380000000  0.5363180000000 1.0
C      1  0.4949500000000  0.5842080000000  0.4715890000000 1.0
C      1  0.4845710000000  0.5493230000000  0.4369620000000 1.0
C      1  0.5215530000000  0.5230880000000  0.5640720000000 1.0
C      1  0.5482210000000  0.4484120000000  0.5070630000000 1.0
C      1  0.4929780000000  0.4797000000000  0.5282670000000 1.0
C      1  0.5298070000000  0.5238750000000  0.4917500000000 1.0
C      1  0.5975050000000  0.5201440000000  0.5267340000000 1.0
C      1  0.5311870000000  0.5142760000000  0.5184060000000 1.0
C      1  0.4665380000000  0.4908360000000  0.5229600000000 1.0
C      1  0.5691280000000  0.4798440000000  0.5374740000000 1.0
C      1  0.4535820000000  0.5079700000000  0.4108690000000 1.0
C      1  0.4227090000000  0.4810550000000  0.4355090000000 1.0
C      1  0.4787830000000  0.4844150000000  0.5760100000000 1.0
C      1  0.4488090000000  0.4914520000000  0.4757120000000 1.0
C      1  0.5235860000000  0.5281560000000  0.4173180000000 1.0
C      1  0.4840300000000  0.5326100000000  0.4854660000000 1.0
C      1  0.4993960000000  0.4920280000000  0.5942160000000 1.0
C      1  0.5505670000000  0.4674640000000  0.4623650000000 1.0
C      1  0.5702530000000  0.5371370000000  0.4673340000000 1.0
C      1  0.5237550000000  0.4144200000000  0.4858800000000 1.0
C      1  0.4713670000000  0.3972390000000  0.5413020000000 1.0
C      1  0.3885820000000  0.5923580000000  0.5008160000000 1.0
C      1  0.4862810000000  0.4716270000000  0.4155040000000 1.0
C      1  0.5475080000000  0.5439770000000  0.4819130000000 1.0
C      1  0.5052980000000  0.5882730000000  0.5483900000000 1.0
C      1  0.4823750000000  0.5026450000000  0.4160640000000 1.0
C      1  0.4611390000000  0.5891720000000  0.5096990000000 1.0
C      1  0.5672430000000  0.4786220000000  0.4428780000000 1.0
C      1  0.4407460000000  0.5841510000000  0.4901450000000 1.0
C      1  0.4913770000000  0.4370560000000  0.4522790000000 1.0
C      1  0.5857250000000  0.4375070000000  0.4782300000000 1.0
C      1  0.5352620000000  0.5835340000000  0.5095530000000 1.0
C      1  0.4894480000000  0.4662650000000  0.5541910000000 1.0
C      1  0.5301320000000  0.4272980000000  0.5106830000000 1.0
C      1  0.4586830000000  0.5859390000000  0.5382100000000 1.0
C      1  0.4788050000000  0.5541740000000  0.5738040000000 1.0
C      1  0.4984110000000  0.4185030000000  0.4741710000000 1.0
C      1  0.5017610000000  0.4493820000000  0.4275110000000 1.0
C      1  0.4788210000000  0.5794750000000  0.5577760000000 1.0
C      1  0.4627500000000  0.5120410000000  0.5411490000000 1.0
C      1  0.5097480000000  0.4267660000000  0.5316720000000 1.0
C      1  0.5291230000000  0.5851460000000  0.5633090000000 1.0
C      1  0.4727520000000  0.4791080000000  0.4660700000000 1.0
C      1  0.4515410000000  0.4176130000000  0.4875870000000 1.0
C      1  0.4969200000000  0.5264900000000  0.4238200000000 1.0
C      1  0.4283530000000  0.5261390000000  0.4473840000000 1.0
C      1  0.4429670000000  0.3705340000000  0.5771940000000 1.0
C      1  0.4437340000000  0.5374970000000  0.6057300000000 1.0
C      1  0.4798310000000  0.5425250000000  0.5097700000000 1.0
C      1  0.5458720000000  0.4709320000000  0.5232050000000 1.0
C      1  0.5514730000000  0.5704180000000  0.5601180000000 1.0
C      1  0.5214850000000  0.4870100000000  0.5222170000000 1.0
C      1  0.4571830000000  0.3838360000000  0.5592070000000 1.0
C      1  0.4594370000000  0.4628270000000  0.4065910000000 1.0
C      1  0.5621840000000  0.4507710000000  0.4823840000000 1.0
C      1  0.5835400000000  0.5226240000000  0.4495170000000 1.0
C      1  0.4451760000000  0.4360720000000  0.4672630000000 1.0
C      1  0.4814770000000  0.5324570000000  0.5352890000000 1.0
C      1  0.4759130000000  0.5700060000000  0.4552350000000 1.0
C      1  0.4614250000000  0.5073760000000  0.5693580000000 1.0
C      1  0.4210200000000  0.4350390000000  0.4548220000000 1.0
C      1  0.5443660000000  0.4278200000000  0.4023570000000 1.0
C      1  0.4860440000000  0.4123910000000  0.5230500000000 1.0
C      1  0.4782590000000  0.4135500000000  0.4952350000000 1.0
C      1  0.4391650000000  0.4821930000000  0.4122580000000 1.0
C      1  0.4679550000000  0.4517260000000  0.4598530000000 1.0
C      1  0.4602850000000  0.5333520000000  0.5843960000000 1.0
C      1  0.5397740000000  0.5711550000000  0.4845670000000 1.0
C      1  0.6018150000000  0.4957220000000  0.4136790000000 1.0
C      1  0.5234520000000  0.4748650000000  0.4636960000000 1.0
C      1  0.4469820000000  0.4888230000000  0.5033240000000 1.0
C      1  0.5901630000000  0.4943230000000  0.5258940000000 1.0
C      1  0.4883310000000  0.5910900000000  0.4996830000000 1.0
C      1  0.5223560000000  0.5818570000000  0.4650310000000 1.0
C      1  0.5083020000000  0.4442540000000  0.5556660000000 1.0
C      1  0.5293240000000  0.4509530000000  0.5737700000000 1.0
C      1  0.4286740000000  0.4993120000000  0.4571880000000 1.0
C      1  0.4289840000000  0.3574530000000  0.5948870000000 1.0
C      1  0.4138090000000  0.5885900000000  0.4954730000000 1.0
C      1  0.5239340000000  0.4998170000000  0.5819850000000 1.0
C      1  0.5662980000000  0.4800810000000  0.5655000000000 1.0
C      1  0.5095000000000  0.5905160000000  0.5196960000000 1.0
C      1  0.4397620000000  0.5298640000000  0.4227470000000 1.0
C      1  0.5053970000000  0.5162510000000  0.4782680000000 1.0
C      1  0.5000070000000  0.4899540000000  0.4684640000000 1.0
C      1  0.4976500000000  0.5377310000000  0.5585680000000 1.0
C      1  0.5398040000000  0.5272450000000  0.5423860000000 1.0
C      1  0.5847520000000  0.4988920000000  0.4346970000000 1.0
C      1  0.5414230000000  0.4769320000000  0.5779890000000 1.0
C      1  0.4495430000000  0.5743090000000  0.4648300000000 1.0
C      1  0.5597560000000  0.5472720000000  0.5462880000000 1.0
END
