TITL C-612607-4507-567 0.900215848909978 125000 -101.810284116707 0 0 18 (Cs) n - 1
REM
REM in /home/nfs/bkarasulu/CARBON/AIRSS/Generating-Clusters/TERSOFF/Only-C1/FIRE-HFTN
REM
REM
REM
REM
REM
REM ./C.cell (11c1c37f851c82e70ff6c80c92926a4b)
REM AIRSS Version 0.9.1 bugfix July 2018 build 013d7b7c2542+ Fri, 06 Jul 2018 19:26:36 +0100
REM compiler GCC version 9.2.1 20190827 (Red Hat 9.2.1-1)
REM options -cpp -mtune=generic -march=x86-64 -g -O0 -fpre-include=/usr/include/finclude/math-vector-fortran.h
REM seed -695293746 -750520757 673375188 1165789210 71508014 909434616 706038943 1991113276 -1975100602 278078574 1009740272 568486166 368631599 -923972484 -202103481 -940328721 1073462269 -887613464 778981488 -2040939636 -320827252 -763439199 581044214 -741100822 -539446895 -1345311926 -1875792958 -1787565657 -241270966 1134763081 1998976093 -636734382 2107713868
REM
CELL 1.54180   50.00000   50.00000   50.00000   90.00000   90.00000   90.00000
LATT -1
SFAC C  
C      1  0.5471880000000  0.6635090000000  0.4422450000000 1.0
C      1  0.6024510000000  0.5291210000000  0.4769600000000 1.0
C      1  0.5648080000000  0.5893120000000  0.4631600000000 1.0
C      1  0.5361460000000  0.5053830000000  0.4934080000000 1.0
C      1  0.4767210000000  0.4578420000000  0.5163980000000 1.0
C      1  0.5706870000000  0.5644540000000  0.4701700000000 1.0
C      1  0.4172950000000  0.4103020000000  0.5393890000000 1.0
C      1  0.5163380000000  0.4895350000000  0.5010710000000 1.0
C      1  0.3581840000000  0.3630150000000  0.5622570000000 1.0
C      1  0.4371040000000  0.4261480000000  0.5317250000000 1.0
C      1  0.5589040000000  0.6141760000000  0.4561510000000 1.0
C      1  0.3776720000000  0.3786050000000  0.5547180000000 1.0
C      1  0.3974860000000  0.3944550000000  0.5470520000000 1.0
C      1  0.5559300000000  0.5212410000000  0.4857440000000 1.0
C      1  0.5529970000000  0.6390470000000  0.4491400000000 1.0
C      1  0.4569130000000  0.4419950000000  0.5240620000000 1.0
C      1  0.5766470000000  0.5381700000000  0.4776170000000 1.0
C      1  0.4965300000000  0.4736880000000  0.5087350000000 1.0
END
