TITL C-612604-1799-340 33900.0648769455 125000 -754.384956685013 0 0 125 (C1) n - 1
REM
REM in /home/nfs/bkarasulu/CARBON/AIRSS/Generating-Clusters/TERSOFF/Only-C1/FIRE-HFTN
REM
REM
REM
REM
REM
REM ./C.cell (11c1c37f851c82e70ff6c80c92926a4b)
REM AIRSS Version 0.9.1 bugfix July 2018 build 013d7b7c2542+ Fri, 06 Jul 2018 19:26:36 +0100
REM compiler GCC version 9.2.1 20190827 (Red Hat 9.2.1-1)
REM options -cpp -mtune=generic -march=x86-64 -g -O0 -fpre-include=/usr/include/finclude/math-vector-fortran.h
REM seed 410839500 -1059473692 257086562 1655861819 -179526841 1860117217 -2023468924 113456574 1435529117 995318041 302442399 -550388608 -1697751386 1905178021 1046183035 -1587216634 -669738870 1446699176 280477789 1283650065 1208439166 -1613678392 851110950 -1679523394 1439835616 260404665 1980760160 -717630312 791846806 773804592 -886028871 -1813932988 234194405
REM
CELL 1.54180   50.00000   50.00000   50.00000   90.00000   90.00000   90.00000
LATT -1
SFAC C  
C      1  0.5105500000000  0.4898450000000  0.5430910000000 1.0
C      1  0.5122860000000  0.4078110000000  0.5384970000000 1.0
C      1  0.5856500000000  0.4851860000000  0.4322880000000 1.0
C      1  0.5241670000000  0.5316070000000  0.4069080000000 1.0
C      1  0.4112500000000  0.5139000000000  0.5049830000000 1.0
C      1  0.4784610000000  0.5527220000000  0.5152790000000 1.0
C      1  0.5565790000000  0.5562420000000  0.4804460000000 1.0
C      1  0.4396580000000  0.4965730000000  0.4155490000000 1.0
C      1  0.3990730000000  0.4536680000000  0.4613770000000 1.0
C      1  0.5060270000000  0.4286170000000  0.5582860000000 1.0
C      1  0.5186250000000  0.4566140000000  0.6204930000000 1.0
C      1  0.4742080000000  0.5728840000000  0.5344210000000 1.0
C      1  0.4035330000000  0.4674210000000  0.4862070000000 1.0
C      1  0.4752740000000  0.5651920000000  0.5814770000000 1.0
C      1  0.5408000000000  0.4319130000000  0.4755630000000 1.0
C      1  0.5285820000000  0.5943720000000  0.4752170000000 1.0
C      1  0.4520400000000  0.5262800000000  0.5647860000000 1.0
C      1  0.4824890000000  0.4833950000000  0.6184150000000 1.0
C      1  0.4636910000000  0.4541870000000  0.5611250000000 1.0
C      1  0.5864150000000  0.5220470000000  0.4429100000000 1.0
C      1  0.5453670000000  0.5475380000000  0.4188180000000 1.0
C      1  0.5689890000000  0.5303870000000  0.4220290000000 1.0
C      1  0.4896910000000  0.4547350000000  0.6190240000000 1.0
C      1  0.4295380000000  0.5448380000000  0.4694820000000 1.0
C      1  0.4685260000000  0.4608370000000  0.5149720000000 1.0
C      1  0.5814710000000  0.5077540000000  0.5478130000000 1.0
C      1  0.5078980000000  0.4872410000000  0.5145400000000 1.0
C      1  0.5047680000000  0.5247290000000  0.5971040000000 1.0
C      1  0.4805810000000  0.4852680000000  0.4548790000000 1.0
C      1  0.4257310000000  0.5554100000000  0.5216770000000 1.0
C      1  0.4744080000000  0.5368440000000  0.5823600000000 1.0
C      1  0.4110160000000  0.4364730000000  0.5786150000000 1.0
C      1  0.5390360000000  0.4111280000000  0.4948610000000 1.0
C      1  0.4952110000000  0.5312860000000  0.3995960000000 1.0
C      1  0.5376780000000  0.5053330000000  0.3982020000000 1.0
C      1  0.4762140000000  0.6112120000000  0.5647350000000 1.0
C      1  0.4779940000000  0.3682700000000  0.5256260000000 1.0
C      1  0.4933140000000  0.5536040000000  0.4559260000000 1.0
C      1  0.5049480000000  0.5005540000000  0.6106590000000 1.0
C      1  0.5027680000000  0.5391920000000  0.5144570000000 1.0
C      1  0.4825970000000  0.5977270000000  0.4649310000000 1.0
C      1  0.4963870000000  0.3856390000000  0.5334980000000 1.0
C      1  0.4707630000000  0.4530590000000  0.4094640000000 1.0
C      1  0.4750740000000  0.5837840000000  0.5603230000000 1.0
C      1  0.5126450000000  0.4514280000000  0.4347350000000 1.0
C      1  0.5045050000000  0.6087050000000  0.4801060000000 1.0
C      1  0.4832830000000  0.4380900000000  0.5739890000000 1.0
C      1  0.5550130000000  0.4987700000000  0.4690940000000 1.0
C      1  0.5985350000000  0.5171430000000  0.5262920000000 1.0
C      1  0.4882770000000  0.4211330000000  0.4697270000000 1.0
C      1  0.4721490000000  0.5120880000000  0.4616970000000 1.0
C      1  0.4890090000000  0.4380970000000  0.4249280000000 1.0
C      1  0.4545920000000  0.5310120000000  0.4758790000000 1.0
C      1  0.4213170000000  0.5072860000000  0.5311050000000 1.0
C      1  0.5601640000000  0.5927580000000  0.4124930000000 1.0
C      1  0.5341770000000  0.4921040000000  0.4495810000000 1.0
C      1  0.4088710000000  0.5044270000000  0.4560860000000 1.0
C      1  0.4771180000000  0.4357100000000  0.6021700000000 1.0
C      1  0.5638100000000  0.5030080000000  0.4100520000000 1.0
C      1  0.5442520000000  0.5667880000000  0.5227160000000 1.0
C      1  0.4960770000000  0.5267390000000  0.4584970000000 1.0
C      1  0.5364390000000  0.4151890000000  0.5229930000000 1.0
C      1  0.4358830000000  0.5403080000000  0.5433130000000 1.0
C      1  0.4942030000000  0.5083370000000  0.3813570000000 1.0
C      1  0.6212510000000  0.4863400000000  0.4927830000000 1.0
C      1  0.5015890000000  0.5146380000000  0.5519500000000 1.0
C      1  0.5493010000000  0.4388300000000  0.5361080000000 1.0
C      1  0.4902220000000  0.5918640000000  0.4359970000000 1.0
C      1  0.5789300000000  0.5402130000000  0.4875000000000 1.0
C      1  0.5248390000000  0.4737680000000  0.5611930000000 1.0
C      1  0.5216720000000  0.5516930000000  0.5312560000000 1.0
C      1  0.4587130000000  0.3532840000000  0.5165010000000 1.0
C      1  0.5182410000000  0.5374190000000  0.5549120000000 1.0
C      1  0.5939070000000  0.4704100000000  0.4551840000000 1.0
C      1  0.5465590000000  0.4561080000000  0.4882780000000 1.0
C      1  0.5680180000000  0.4750930000000  0.5788030000000 1.0
C      1  0.4557740000000  0.4751590000000  0.4062660000000 1.0
C      1  0.5168420000000  0.5214690000000  0.4758060000000 1.0
C      1  0.5728960000000  0.4570240000000  0.5320780000000 1.0
C      1  0.5093260000000  0.5137200000000  0.5018110000000 1.0
C      1  0.5175860000000  0.4935050000000  0.3813910000000 1.0
C      1  0.5408170000000  0.4798520000000  0.5841460000000 1.0
C      1  0.4247170000000  0.5425220000000  0.4213660000000 1.0
C      1  0.4659990000000  0.5682730000000  0.4258170000000 1.0
C      1  0.4683370000000  0.4641540000000  0.4695970000000 1.0
C      1  0.5278660000000  0.4471480000000  0.5541440000000 1.0
C      1  0.5532580000000  0.4815910000000  0.4908770000000 1.0
C      1  0.4413690000000  0.4724630000000  0.5674370000000 1.0
C      1  0.5275110000000  0.4815830000000  0.6087150000000 1.0
C      1  0.4412070000000  0.4993090000000  0.5600480000000 1.0
C      1  0.4343300000000  0.5582270000000  0.4428280000000 1.0
C      1  0.5221910000000  0.5865720000000  0.4408510000000 1.0
C      1  0.5861010000000  0.5401510000000  0.5147750000000 1.0
C      1  0.4180770000000  0.4552600000000  0.5585620000000 1.0
C      1  0.4778790000000  0.5709520000000  0.4728890000000 1.0
C      1  0.4262670000000  0.4253350000000  0.5980450000000 1.0
C      1  0.4501680000000  0.4639350000000  0.4923280000000 1.0
C      1  0.4790280000000  0.6368830000000  0.5682400000000 1.0
C      1  0.5672690000000  0.5519030000000  0.5343080000000 1.0
C      1  0.4706380000000  0.5421170000000  0.4100720000000 1.0
C      1  0.5643260000000  0.5311980000000  0.5582940000000 1.0
C      1  0.6192150000000  0.5039890000000  0.5129970000000 1.0
C      1  0.4953360000000  0.4625200000000  0.5055100000000 1.0
C      1  0.4668020000000  0.5527250000000  0.4907300000000 1.0
C      1  0.4161750000000  0.5424250000000  0.4967470000000 1.0
C      1  0.5773290000000  0.4793880000000  0.5520860000000 1.0
C      1  0.4453820000000  0.5247950000000  0.4109590000000 1.0
C      1  0.4082180000000  0.4622530000000  0.4369820000000 1.0
C      1  0.5770210000000  0.5181950000000  0.4686500000000 1.0
C      1  0.4560640000000  0.4465070000000  0.5349090000000 1.0
C      1  0.4262650000000  0.4480660000000  0.5309640000000 1.0
C      1  0.4819510000000  0.4172900000000  0.4432570000000 1.0
C      1  0.4237850000000  0.4574350000000  0.5030680000000 1.0
C      1  0.5423220000000  0.5754720000000  0.4242740000000 1.0
C      1  0.5087940000000  0.4787910000000  0.4443360000000 1.0
C      1  0.5337600000000  0.5340740000000  0.5763060000000 1.0
C      1  0.4043930000000  0.4963040000000  0.4833880000000 1.0
C      1  0.4180830000000  0.4890140000000  0.4337120000000 1.0
C      1  0.4514690000000  0.4248620000000  0.6077080000000 1.0
C      1  0.6015240000000  0.4678470000000  0.4837340000000 1.0
C      1  0.5883410000000  0.4555910000000  0.5070650000000 1.0
C      1  0.5444820000000  0.5780610000000  0.4945030000000 1.0
C      1  0.4911900000000  0.4474510000000  0.4804340000000 1.0
C      1  0.5372450000000  0.5393100000000  0.4702290000000 1.0
C      1  0.5321920000000  0.4352290000000  0.4485740000000 1.0
END
