TITL C-612601-4209-60 0.462964284883726 125000 -1131.86218508285 0 0 185 (C1) n - 1
REM
REM in /home/nfs/bkarasulu/CARBON/AIRSS/Generating-Clusters/TERSOFF/Only-C1/FIRE-HFTN
REM
REM
REM
REM
REM
REM ./C.cell (11c1c37f851c82e70ff6c80c92926a4b)
REM AIRSS Version 0.9.1 bugfix July 2018 build 013d7b7c2542+ Fri, 06 Jul 2018 19:26:36 +0100
REM compiler GCC version 9.2.1 20190827 (Red Hat 9.2.1-1)
REM options -cpp -mtune=generic -march=x86-64 -g -O0 -fpre-include=/usr/include/finclude/math-vector-fortran.h
REM seed -1641413573 384999166 1317242134 -809179459 928861197 -408392988 37020547 466840273 -1600865997 918816808 1058132322 1805185950 2036190662 1274281165 -628113313 833837860 -1342130047 -1035298806 -1456511684 -1692686458 -1457010340 161750870 -844927026 -150420703 -397299580 -843395164 -656359120 1851426845 375241348 1694374188 2136758285 1247509601 -1122326153
REM
CELL 1.54180   50.00000   50.00000   50.00000   90.00000   90.00000   90.00000
LATT -1
SFAC C  
C      1  0.5206980000000  0.4964240000000  0.3537930000000 1.0
C      1  0.5246370000000  0.4717690000000  0.4969710000000 1.0
C      1  0.5005770000000  0.4466280000000  0.3949870000000 1.0
C      1  0.4135800000000  0.4723230000000  0.4608340000000 1.0
C      1  0.5266200000000  0.5349120000000  0.5166650000000 1.0
C      1  0.4639610000000  0.6153890000000  0.4617310000000 1.0
C      1  0.4104350000000  0.4556980000000  0.4842820000000 1.0
C      1  0.5253050000000  0.5559660000000  0.4539970000000 1.0
C      1  0.5015070000000  0.4429960000000  0.6080120000000 1.0
C      1  0.3927000000000  0.5078180000000  0.4369320000000 1.0
C      1  0.6370970000000  0.4652290000000  0.5280410000000 1.0
C      1  0.6149120000000  0.5202460000000  0.5609490000000 1.0
C      1  0.5988370000000  0.5369050000000  0.4659370000000 1.0
C      1  0.4805730000000  0.4055460000000  0.5622230000000 1.0
C      1  0.4373710000000  0.5138240000000  0.5984700000000 1.0
C      1  0.4653980000000  0.6121840000000  0.4900900000000 1.0
C      1  0.5459170000000  0.5371020000000  0.4570890000000 1.0
C      1  0.6084940000000  0.5274660000000  0.5127700000000 1.0
C      1  0.5439070000000  0.6074510000000  0.4278080000000 1.0
C      1  0.4927430000000  0.6014480000000  0.5304130000000 1.0
C      1  0.5181580000000  0.6065860000000  0.4195660000000 1.0
C      1  0.4045180000000  0.4289720000000  0.4755370000000 1.0
C      1  0.4449800000000  0.4642130000000  0.5929670000000 1.0
C      1  0.5525200000000  0.5030650000000  0.3124900000000 1.0
C      1  0.4067090000000  0.5599540000000  0.4263740000000 1.0
C      1  0.5618380000000  0.5165810000000  0.4449470000000 1.0
C      1  0.6402430000000  0.4930940000000  0.5312810000000 1.0
C      1  0.3901090000000  0.4130960000000  0.4930150000000 1.0
C      1  0.5381650000000  0.5341440000000  0.6382770000000 1.0
C      1  0.6010180000000  0.4485490000000  0.5623150000000 1.0
C      1  0.4420800000000  0.5134510000000  0.4453170000000 1.0
C      1  0.4623650000000  0.5482210000000  0.5745580000000 1.0
C      1  0.4190700000000  0.4251270000000  0.4514720000000 1.0
C      1  0.5808390000000  0.4811120000000  0.5294810000000 1.0
C      1  0.4778220000000  0.5475390000000  0.4299400000000 1.0
C      1  0.5774350000000  0.5693810000000  0.3761870000000 1.0
C      1  0.4044190000000  0.4595240000000  0.5654750000000 1.0
C      1  0.4517120000000  0.3937270000000  0.5180540000000 1.0
C      1  0.5040690000000  0.4698940000000  0.4454660000000 1.0
C      1  0.5809690000000  0.5589550000000  0.4288240000000 1.0
C      1  0.4305680000000  0.5608410000000  0.5340290000000 1.0
C      1  0.4327910000000  0.4708910000000  0.5291680000000 1.0
C      1  0.4623150000000  0.5556860000000  0.4781750000000 1.0
C      1  0.4520850000000  0.3907060000000  0.4682300000000 1.0
C      1  0.4038430000000  0.5101200000000  0.4123390000000 1.0
C      1  0.4062590000000  0.5361420000000  0.5237570000000 1.0
C      1  0.4416270000000  0.5398240000000  0.5921000000000 1.0
C      1  0.5747860000000  0.5030890000000  0.5876510000000 1.0
C      1  0.5018960000000  0.5137320000000  0.3965840000000 1.0
C      1  0.4252210000000  0.4531040000000  0.4419510000000 1.0
C      1  0.3939770000000  0.4901040000000  0.5102200000000 1.0
C      1  0.4876650000000  0.4225400000000  0.4373680000000 1.0
C      1  0.5148290000000  0.4297400000000  0.4848790000000 1.0
C      1  0.4618880000000  0.4791270000000  0.3878260000000 1.0
C      1  0.5509800000000  0.4836960000000  0.6434560000000 1.0
C      1  0.5509730000000  0.4377400000000  0.6155250000000 1.0
C      1  0.5059490000000  0.5678010000000  0.4951770000000 1.0
C      1  0.5927770000000  0.6012380000000  0.5061760000000 1.0
C      1  0.4740620000000  0.5515480000000  0.5256700000000 1.0
C      1  0.4418080000000  0.4080140000000  0.4478640000000 1.0
C      1  0.5076270000000  0.5151010000000  0.5030940000000 1.0
C      1  0.4786800000000  0.4263510000000  0.6053690000000 1.0
C      1  0.5266440000000  0.4302990000000  0.6022580000000 1.0
C      1  0.6229750000000  0.5150170000000  0.5343560000000 1.0
C      1  0.4725460000000  0.5939600000000  0.4449960000000 1.0
C      1  0.5312730000000  0.4191150000000  0.4290830000000 1.0
C      1  0.5297740000000  0.5119100000000  0.5748080000000 1.0
C      1  0.4129320000000  0.5545400000000  0.4531110000000 1.0
C      1  0.4923860000000  0.4278950000000  0.4657090000000 1.0
C      1  0.3974320000000  0.4158960000000  0.5204820000000 1.0
C      1  0.5557060000000  0.6168790000000  0.5361980000000 1.0
C      1  0.5759600000000  0.4302700000000  0.6044640000000 1.0
C      1  0.3819750000000  0.4374000000000  0.5336890000000 1.0
C      1  0.4409790000000  0.6013020000000  0.5020140000000 1.0
C      1  0.4874360000000  0.5119120000000  0.6204180000000 1.0
C      1  0.5555110000000  0.5987700000000  0.4525380000000 1.0
C      1  0.5948860000000  0.4343340000000  0.5858560000000 1.0
C      1  0.5718490000000  0.4723530000000  0.4671920000000 1.0
C      1  0.5183750000000  0.5473490000000  0.6257300000000 1.0
C      1  0.5798910000000  0.4641280000000  0.5514640000000 1.0
C      1  0.5211660000000  0.5748200000000  0.4734590000000 1.0
C      1  0.4896020000000  0.5423260000000  0.5841600000000 1.0
C      1  0.5929770000000  0.5653270000000  0.4726600000000 1.0
C      1  0.4602930000000  0.4229130000000  0.4310460000000 1.0
C      1  0.5456600000000  0.4415430000000  0.4396340000000 1.0
C      1  0.5049710000000  0.4938040000000  0.3764050000000 1.0
C      1  0.5095360000000  0.4029590000000  0.5610450000000 1.0
C      1  0.5303920000000  0.4386820000000  0.5310480000000 1.0
C      1  0.4917370000000  0.6138390000000  0.5034180000000 1.0
C      1  0.4263020000000  0.5121320000000  0.3975330000000 1.0
C      1  0.3914650000000  0.5201040000000  0.5439170000000 1.0
C      1  0.4657260000000  0.5660310000000  0.4498590000000 1.0
C      1  0.5483600000000  0.5102310000000  0.6445340000000 1.0
C      1  0.4812590000000  0.4898500000000  0.6041850000000 1.0
C      1  0.4793430000000  0.4803960000000  0.4891810000000 1.0
C      1  0.5596250000000  0.4429380000000  0.4664690000000 1.0
C      1  0.3831600000000  0.4919430000000  0.5369140000000 1.0
C      1  0.5044700000000  0.4841940000000  0.5437900000000 1.0
C      1  0.4894120000000  0.4709030000000  0.3830900000000 1.0
C      1  0.4982410000000  0.3826760000000  0.4897910000000 1.0
C      1  0.6017010000000  0.5158520000000  0.4858730000000 1.0
C      1  0.4628520000000  0.6078710000000  0.5691670000000 1.0
C      1  0.5430960000000  0.5937600000000  0.5466390000000 1.0
C      1  0.5206780000000  0.3865120000000  0.5096330000000 1.0
C      1  0.5958950000000  0.4864460000000  0.4783500000000 1.0
C      1  0.5773500000000  0.5785420000000  0.4512830000000 1.0
C      1  0.4663260000000  0.3921370000000  0.5421790000000 1.0
C      1  0.5366440000000  0.4996620000000  0.3328860000000 1.0
C      1  0.4451180000000  0.4973940000000  0.5321080000000 1.0
C      1  0.5387380000000  0.4418900000000  0.5575850000000 1.0
C      1  0.4665410000000  0.4233070000000  0.5795520000000 1.0
C      1  0.4778440000000  0.5065510000000  0.5018340000000 1.0
C      1  0.3827430000000  0.4639630000000  0.5475740000000 1.0
C      1  0.4288830000000  0.5320450000000  0.4615490000000 1.0
C      1  0.4755230000000  0.5254520000000  0.4032290000000 1.0
C      1  0.5130560000000  0.5080550000000  0.4722910000000 1.0
C      1  0.4616360000000  0.4957010000000  0.4428410000000 1.0
C      1  0.5044350000000  0.5238770000000  0.5680170000000 1.0
C      1  0.4611930000000  0.5003260000000  0.5560480000000 1.0
C      1  0.4299330000000  0.4542030000000  0.5529320000000 1.0
C      1  0.4957030000000  0.5378970000000  0.6120600000000 1.0
C      1  0.6178300000000  0.4686810000000  0.4825050000000 1.0
C      1  0.5184500000000  0.3878680000000  0.5381150000000 1.0
C      1  0.5098460000000  0.5163100000000  0.4453300000000 1.0
C      1  0.4546790000000  0.4917360000000  0.5894550000000 1.0
C      1  0.4511070000000  0.5148300000000  0.5075580000000 1.0
C      1  0.4691090000000  0.4557340000000  0.4981450000000 1.0
C      1  0.4543750000000  0.6386410000000  0.4509260000000 1.0
C      1  0.4267020000000  0.4450940000000  0.3825620000000 1.0
C      1  0.6332000000000  0.4574040000000  0.5013140000000 1.0
C      1  0.5823640000000  0.5598050000000  0.5426950000000 1.0
C      1  0.5066190000000  0.4279100000000  0.4162740000000 1.0
C      1  0.5042170000000  0.4679950000000  0.5671000000000 1.0
C      1  0.4830440000000  0.4443530000000  0.5198540000000 1.0
C      1  0.5033370000000  0.5437030000000  0.4417410000000 1.0
C      1  0.5202450000000  0.5624700000000  0.5190160000000 1.0
C      1  0.5062170000000  0.4782670000000  0.4741930000000 1.0
C      1  0.5518600000000  0.5240930000000  0.5216430000000 1.0
C      1  0.5337600000000  0.4687020000000  0.4373190000000 1.0
C      1  0.4454410000000  0.4581970000000  0.3973760000000 1.0
C      1  0.5177320000000  0.4879200000000  0.5192810000000 1.0
C      1  0.4421040000000  0.5892470000000  0.5279140000000 1.0
C      1  0.4549990000000  0.5497810000000  0.5467700000000 1.0
C      1  0.5800860000000  0.5648240000000  0.4017070000000 1.0
C      1  0.5680170000000  0.5031050000000  0.5217950000000 1.0
C      1  0.5176870000000  0.5854930000000  0.5363340000000 1.0
C      1  0.5451100000000  0.3987430000000  0.4976930000000 1.0
C      1  0.4480240000000  0.4440810000000  0.5726400000000 1.0
C      1  0.5506510000000  0.4585710000000  0.6345120000000 1.0
C      1  0.4004890000000  0.4980840000000  0.4623300000000 1.0
C      1  0.5543460000000  0.4653230000000  0.5646900000000 1.0
C      1  0.4678390000000  0.4369660000000  0.4776830000000 1.0
C      1  0.4514570000000  0.4517460000000  0.4258290000000 1.0
C      1  0.5169540000000  0.6177390000000  0.4884770000000 1.0
C      1  0.5346060000000  0.5998200000000  0.4734090000000 1.0
C      1  0.4748540000000  0.4711790000000  0.4367300000000 1.0
C      1  0.4980400000000  0.4684620000000  0.5951060000000 1.0
C      1  0.5965230000000  0.5742990000000  0.4990040000000 1.0
C      1  0.5768680000000  0.6182190000000  0.5195290000000 1.0
C      1  0.4928340000000  0.6004440000000  0.4260850000000 1.0
C      1  0.4884250000000  0.5064690000000  0.5522650000000 1.0
C      1  0.3989810000000  0.5129540000000  0.4948890000000 1.0
C      1  0.5979100000000  0.5145100000000  0.5807110000000 1.0
C      1  0.4081370000000  0.5755350000000  0.4712540000000 1.0
C      1  0.4540940000000  0.5072320000000  0.3941220000000 1.0
C      1  0.6258520000000  0.4502810000000  0.5491870000000 1.0
C      1  0.4015170000000  0.5710440000000  0.4033480000000 1.0
C      1  0.4797170000000  0.5607030000000  0.4991960000000 1.0
C      1  0.4432790000000  0.5348100000000  0.4860480000000 1.0
C      1  0.4661310000000  0.5989410000000  0.5433150000000 1.0
C      1  0.4673740000000  0.3874640000000  0.4929850000000 1.0
C      1  0.5102230000000  0.3818770000000  0.4624780000000 1.0
C      1  0.4186780000000  0.5948840000000  0.4862450000000 1.0
C      1  0.5617680000000  0.5732880000000  0.5537400000000 1.0
C      1  0.5172490000000  0.5081590000000  0.4194450000000 1.0
C      1  0.4244210000000  0.4039470000000  0.5226380000000 1.0
C      1  0.5275690000000  0.4217650000000  0.5747950000000 1.0
C      1  0.5860350000000  0.5317410000000  0.4401710000000 1.0
C      1  0.5439680000000  0.4238470000000  0.4828780000000 1.0
C      1  0.5971740000000  0.5538680000000  0.5191490000000 1.0
C      1  0.5267000000000  0.3941340000000  0.4439090000000 1.0
C      1  0.5089070000000  0.4349780000000  0.5133590000000 1.0
C      1  0.4132370000000  0.4692700000000  0.5081690000000 1.0
C      1  0.5505420000000  0.4920990000000  0.5773930000000 1.0
C      1  0.5554680000000  0.4883360000000  0.4473920000000 1.0
END
