TITL C-612602-9376-1309 0.242584399926419 125000 -435.250885594991 0 0 74 (C1) n - 1
REM
REM in /home/nfs/bkarasulu/CARBON/AIRSS/Generating-Clusters/TERSOFF/Only-C1/FIRE-HFTN
REM
REM
REM
REM
REM
REM ./C.cell (11c1c37f851c82e70ff6c80c92926a4b)
REM AIRSS Version 0.9.1 bugfix July 2018 build 013d7b7c2542+ Fri, 06 Jul 2018 19:26:36 +0100
REM compiler GCC version 9.2.1 20190827 (Red Hat 9.2.1-1)
REM options -cpp -mtune=generic -march=x86-64 -g -O0 -fpre-include=/usr/include/finclude/math-vector-fortran.h
REM seed -1100620436 -775263651 -1204399174 -841685792 13075416 1229252903 -1057661503 1880622658 -1448129762 -1947598602 565090279 -1954237985 777937816 1193848818 316981096 -20702753 1281918311 2027543901 1286224085 -1778683335 1805879245 1057403658 -757283160 469500270 -786368297 -1971527632 -1760317929 -521440127 -390489781 124390687 -1102739599 815447341 1463155852
REM
CELL 1.54180   50.00000   50.00000   50.00000   90.00000   90.00000   90.00000
LATT -1
SFAC C  
C      1  0.4513550000000  0.5086310000000  0.5152030000000 1.0
C      1  0.5247200000000  0.5094650000000  0.4308090000000 1.0
C      1  0.4899950000000  0.4411350000000  0.5142520000000 1.0
C      1  0.5904130000000  0.5174850000000  0.5565670000000 1.0
C      1  0.5788230000000  0.4939150000000  0.4973120000000 1.0
C      1  0.4086230000000  0.4425270000000  0.5678520000000 1.0
C      1  0.5418130000000  0.5082440000000  0.4528470000000 1.0
C      1  0.5717860000000  0.4726390000000  0.5160010000000 1.0
C      1  0.6004500000000  0.5364730000000  0.4245940000000 1.0
C      1  0.4785460000000  0.4647880000000  0.4466790000000 1.0
C      1  0.5221420000000  0.4982720000000  0.5015250000000 1.0
C      1  0.5335430000000  0.5126570000000  0.4799310000000 1.0
C      1  0.3911300000000  0.4314940000000  0.5866930000000 1.0
C      1  0.4127380000000  0.5681150000000  0.5644120000000 1.0
C      1  0.4199180000000  0.4766800000000  0.5350590000000 1.0
C      1  0.5024700000000  0.5145180000000  0.4169870000000 1.0
C      1  0.4535250000000  0.5341280000000  0.3661360000000 1.0
C      1  0.4786410000000  0.4388290000000  0.5400250000000 1.0
C      1  0.5335680000000  0.4512810000000  0.4897470000000 1.0
C      1  0.4416140000000  0.5398370000000  0.4778430000000 1.0
C      1  0.4510570000000  0.4412500000000  0.5440600000000 1.0
C      1  0.4517350000000  0.5354130000000  0.5042460000000 1.0
C      1  0.4359090000000  0.5714370000000  0.5520060000000 1.0
C      1  0.4954060000000  0.4364500000000  0.5624660000000 1.0
C      1  0.5503380000000  0.4314070000000  0.5309290000000 1.0
C      1  0.5797950000000  0.5505930000000  0.4673940000000 1.0
C      1  0.5515560000000  0.4688210000000  0.5976320000000 1.0
C      1  0.5019280000000  0.5855240000000  0.5242990000000 1.0
C      1  0.5023750000000  0.4556610000000  0.4906120000000 1.0
C      1  0.5088340000000  0.5492660000000  0.4878150000000 1.0
C      1  0.4279110000000  0.4923220000000  0.5133730000000 1.0
C      1  0.5403080000000  0.4237890000000  0.5543970000000 1.0
C      1  0.5843630000000  0.5316580000000  0.4466480000000 1.0
C      1  0.5717290000000  0.4830760000000  0.5874420000000 1.0
C      1  0.5724210000000  0.4607670000000  0.4610920000000 1.0
C      1  0.4580720000000  0.5142690000000  0.4362650000000 1.0
C      1  0.5801220000000  0.4869800000000  0.4689520000000 1.0
C      1  0.4641030000000  0.5264890000000  0.3891860000000 1.0
C      1  0.5837520000000  0.4734780000000  0.5416000000000 1.0
C      1  0.4429050000000  0.5417890000000  0.3430900000000 1.0
C      1  0.4848750000000  0.5029810000000  0.4725770000000 1.0
C      1  0.5365460000000  0.5409960000000  0.4877940000000 1.0
C      1  0.5279510000000  0.5030060000000  0.5285430000000 1.0
C      1  0.4817900000000  0.6114960000000  0.5620370000000 1.0
C      1  0.5484210000000  0.4489100000000  0.4656390000000 1.0
C      1  0.5258560000000  0.5110860000000  0.5532450000000 1.0
C      1  0.4947890000000  0.5634400000000  0.5074340000000 1.0
C      1  0.5652540000000  0.5433230000000  0.4907930000000 1.0
C      1  0.4919690000000  0.4193590000000  0.4575780000000 1.0
C      1  0.3898940000000  0.5644830000000  0.5764350000000 1.0
C      1  0.5783140000000  0.5222410000000  0.5064870000000 1.0
C      1  0.4747690000000  0.5186230000000  0.4136690000000 1.0
C      1  0.3991650000000  0.4100350000000  0.6016820000000 1.0
C      1  0.4598210000000  0.5729530000000  0.5381400000000 1.0
C      1  0.4908350000000  0.4459430000000  0.4640280000000 1.0
C      1  0.5881930000000  0.5285830000000  0.5321580000000 1.0
C      1  0.4812390000000  0.5919050000000  0.5433180000000 1.0
C      1  0.5216540000000  0.4352330000000  0.5720700000000 1.0
C      1  0.4755060000000  0.4934430000000  0.5169340000000 1.0
C      1  0.4380860000000  0.4821650000000  0.4656820000000 1.0
C      1  0.4221800000000  0.4840320000000  0.4870960000000 1.0
C      1  0.5319200000000  0.4513930000000  0.5925520000000 1.0
C      1  0.6154750000000  0.5407230000000  0.4037290000000 1.0
C      1  0.4675550000000  0.5556890000000  0.5161850000000 1.0
C      1  0.3661720000000  0.4422760000000  0.5899350000000 1.0
C      1  0.5843470000000  0.4909390000000  0.5637660000000 1.0
C      1  0.4440270000000  0.5340850000000  0.4514360000000 1.0
C      1  0.4324590000000  0.5493230000000  0.3204240000000 1.0
C      1  0.5704530000000  0.5071640000000  0.4510880000000 1.0
C      1  0.4925170000000  0.5307380000000  0.4726860000000 1.0
C      1  0.4262860000000  0.4533330000000  0.5492400000000 1.0
C      1  0.4956240000000  0.4859350000000  0.4956380000000 1.0
C      1  0.4643850000000  0.4901310000000  0.4535310000000 1.0
C      1  0.5512410000000  0.4524830000000  0.5124700000000 1.0
END
