TITL C-612604-1799-46 1.85860300711839e-05 125000 -563.555328930792 0 0 92 (C1) n - 1
REM
REM in /home/nfs/bkarasulu/CARBON/AIRSS/Generating-Clusters/TERSOFF/Only-C1/FIRE-HFTN
REM
REM
REM
REM
REM
REM ./C.cell (11c1c37f851c82e70ff6c80c92926a4b)
REM AIRSS Version 0.9.1 bugfix July 2018 build 013d7b7c2542+ Fri, 06 Jul 2018 19:26:36 +0100
REM compiler GCC version 9.2.1 20190827 (Red Hat 9.2.1-1)
REM options -cpp -mtune=generic -march=x86-64 -g -O0 -fpre-include=/usr/include/finclude/math-vector-fortran.h
REM seed -1946530814 901172921 1176720926 -709624957 1322451929 1601466077 434460650 386620720 387078150 -843676183 1749914094 -1820061419 -1703388320 1533217841 -485232819 1607766895 -1082397595 1699596669 -369775994 1615978445 -1538765967 2030779514 1248791530 924953816 1030985373 -865218157 483712406 -1130754428 1490392095 519829286 -868431797 -1767185147 -2046126016
REM
CELL 1.54180   50.00000   50.00000   50.00000   90.00000   90.00000   90.00000
LATT -1
SFAC C  
C      1  0.4703230000000  0.4117730000000  0.4802720000000 1.0
C      1  0.5075620000000  0.4954400000000  0.5416190000000 1.0
C      1  0.4686530000000  0.5409580000000  0.4669710000000 1.0
C      1  0.4437570000000  0.5654250000000  0.4293340000000 1.0
C      1  0.5070130000000  0.5581070000000  0.5927690000000 1.0
C      1  0.5088840000000  0.5172620000000  0.4663770000000 1.0
C      1  0.5334740000000  0.4464800000000  0.5028070000000 1.0
C      1  0.4321940000000  0.4943310000000  0.4580970000000 1.0
C      1  0.5136280000000  0.5423240000000  0.5373110000000 1.0
C      1  0.4597040000000  0.5940580000000  0.4806810000000 1.0
C      1  0.5647800000000  0.4555800000000  0.5332060000000 1.0
C      1  0.4250440000000  0.5043620000000  0.4861010000000 1.0
C      1  0.4580820000000  0.4250230000000  0.4576850000000 1.0
C      1  0.5629860000000  0.5480940000000  0.4508980000000 1.0
C      1  0.5462370000000  0.5156360000000  0.4956970000000 1.0
C      1  0.4323030000000  0.5264060000000  0.5033790000000 1.0
C      1  0.5009610000000  0.4936920000000  0.4112140000000 1.0
C      1  0.4064160000000  0.4620370000000  0.4802430000000 1.0
C      1  0.4829000000000  0.5859910000000  0.4659180000000 1.0
C      1  0.5869590000000  0.5331050000000  0.4944290000000 1.0
C      1  0.4123670000000  0.4815550000000  0.5014060000000 1.0
C      1  0.4994010000000  0.4100810000000  0.4853610000000 1.0
C      1  0.4641630000000  0.4691380000000  0.4316240000000 1.0
C      1  0.4400250000000  0.5786890000000  0.4915240000000 1.0
C      1  0.5041120000000  0.4122630000000  0.5147560000000 1.0
C      1  0.5191900000000  0.4695200000000  0.4968190000000 1.0
C      1  0.5252250000000  0.4289950000000  0.5236110000000 1.0
C      1  0.4401060000000  0.4348240000000  0.5103660000000 1.0
C      1  0.5308100000000  0.4938440000000  0.5026330000000 1.0
C      1  0.5698820000000  0.4595570000000  0.4778080000000 1.0
C      1  0.4757850000000  0.4292620000000  0.5516350000000 1.0
C      1  0.5170700000000  0.4631990000000  0.5904030000000 1.0
C      1  0.4782330000000  0.4132650000000  0.5277730000000 1.0
C      1  0.5026300000000  0.5711830000000  0.4235510000000 1.0
C      1  0.5221330000000  0.5762850000000  0.5802250000000 1.0
C      1  0.4809890000000  0.5153730000000  0.4714660000000 1.0
C      1  0.5284700000000  0.4382060000000  0.4494960000000 1.0
C      1  0.5223300000000  0.4918360000000  0.5917420000000 1.0
C      1  0.5348440000000  0.5424880000000  0.4960810000000 1.0
C      1  0.5415500000000  0.5438340000000  0.4336980000000 1.0
C      1  0.4577210000000  0.4131220000000  0.5074160000000 1.0
C      1  0.4840370000000  0.5885460000000  0.4368720000000 1.0
C      1  0.4649060000000  0.5203950000000  0.4267840000000 1.0
C      1  0.5869550000000  0.5286330000000  0.5239640000000 1.0
C      1  0.5309290000000  0.5567680000000  0.5201880000000 1.0
C      1  0.4332520000000  0.4486790000000  0.5342650000000 1.0
C      1  0.5495630000000  0.5143420000000  0.5572720000000 1.0
C      1  0.5352230000000  0.5849910000000  0.5585290000000 1.0
C      1  0.5724770000000  0.5097550000000  0.4860060000000 1.0
C      1  0.5266890000000  0.5016070000000  0.4519430000000 1.0
C      1  0.4555880000000  0.4504330000000  0.5534090000000 1.0
C      1  0.4526590000000  0.4958950000000  0.4363090000000 1.0
C      1  0.4865660000000  0.5480690000000  0.5403710000000 1.0
C      1  0.4225270000000  0.4755900000000  0.5281140000000 1.0
C      1  0.4989370000000  0.4278410000000  0.5677680000000 1.0
C      1  0.5238060000000  0.5173100000000  0.5450280000000 1.0
C      1  0.4879480000000  0.4627370000000  0.5967170000000 1.0
C      1  0.4242080000000  0.4643300000000  0.4571550000000 1.0
C      1  0.5187410000000  0.4172270000000  0.4659520000000 1.0
C      1  0.5463870000000  0.5042750000000  0.5836700000000 1.0
C      1  0.4553410000000  0.5429220000000  0.4415560000000 1.0
C      1  0.4936170000000  0.5210110000000  0.4177380000000 1.0
C      1  0.4576650000000  0.4795440000000  0.5619550000000 1.0
C      1  0.5416170000000  0.5805740000000  0.5312770000000 1.0
C      1  0.4485840000000  0.4552620000000  0.4930620000000 1.0
C      1  0.4749950000000  0.4859740000000  0.5842990000000 1.0
C      1  0.4913720000000  0.4686190000000  0.4221350000000 1.0
C      1  0.4956630000000  0.5339640000000  0.5949560000000 1.0
C      1  0.4302830000000  0.5540650000000  0.4968750000000 1.0
C      1  0.5733330000000  0.5088580000000  0.5416500000000 1.0
C      1  0.5145540000000  0.5443750000000  0.4767230000000 1.0
C      1  0.5402920000000  0.4411620000000  0.5470170000000 1.0
C      1  0.4474200000000  0.4490850000000  0.4457270000000 1.0
C      1  0.5096080000000  0.4483870000000  0.4301490000000 1.0
C      1  0.4905800000000  0.5598430000000  0.4737000000000 1.0
C      1  0.5776050000000  0.4803060000000  0.5397880000000 1.0
C      1  0.5829480000000  0.5525600000000  0.4725160000000 1.0
C      1  0.5983750000000  0.5753420000000  0.4718180000000 1.0
C      1  0.5233430000000  0.4434220000000  0.5704480000000 1.0
C      1  0.4580140000000  0.5882400000000  0.4252030000000 1.0
C      1  0.4960410000000  0.5063960000000  0.5900530000000 1.0
C      1  0.5502260000000  0.4568410000000  0.4557680000000 1.0
C      1  0.4436700000000  0.5199260000000  0.5296030000000 1.0
C      1  0.4400490000000  0.4945720000000  0.5425340000000 1.0
C      1  0.5565640000000  0.5982070000000  0.5168510000000 1.0
C      1  0.5617840000000  0.4504530000000  0.5037000000000 1.0
C      1  0.4690870000000  0.4704350000000  0.4873160000000 1.0
C      1  0.5440830000000  0.4825800000000  0.4449740000000 1.0
C      1  0.4949400000000  0.4693080000000  0.4846920000000 1.0
C      1  0.5826660000000  0.4849670000000  0.4781520000000 1.0
C      1  0.5135600000000  0.5443020000000  0.4229730000000 1.0
C      1  0.4618260000000  0.5384740000000  0.5400770000000 1.0
END
