TITL C-612603-7354-475 279.318552993372 125000 -1137.20188512181 0 0 186 (C1) n - 1
REM
REM in /home/nfs/bkarasulu/CARBON/AIRSS/Generating-Clusters/TERSOFF/Only-C1/FIRE-HFTN
REM
REM
REM
REM
REM
REM ./C.cell (11c1c37f851c82e70ff6c80c92926a4b)
REM AIRSS Version 0.9.1 bugfix July 2018 build 013d7b7c2542+ Fri, 06 Jul 2018 19:26:36 +0100
REM compiler GCC version 9.2.1 20190827 (Red Hat 9.2.1-1)
REM options -cpp -mtune=generic -march=x86-64 -g -O0 -fpre-include=/usr/include/finclude/math-vector-fortran.h
REM seed 607846184 -1345485054 331711174 489105176 -1460359404 -293566465 1446552698 -2107450995 -1043370406 -1059831157 -1663132363 1494871270 -620931435 2143289512 1936500550 -673103651 1124067801 -826958710 2147019785 1513481423 1065723195 -474042587 -60722749 -26541388 -822611315 212501329 1516098292 -2136884695 -108904245 -1199192532 1945927380 2110378059 409870488
REM
CELL 1.54180   50.00000   50.00000   50.00000   90.00000   90.00000   90.00000
LATT -1
SFAC C  
C      1  0.4172250000000  0.5523080000000  0.4300240000000 1.0
C      1  0.5010150000000  0.4738570000000  0.6016340000000 1.0
C      1  0.4666080000000  0.3759700000000  0.5354580000000 1.0
C      1  0.5790950000000  0.5415550000000  0.4446690000000 1.0
C      1  0.4674220000000  0.5168500000000  0.5341050000000 1.0
C      1  0.6183590000000  0.4930320000000  0.4663840000000 1.0
C      1  0.5634550000000  0.5257050000000  0.5572380000000 1.0
C      1  0.5672110000000  0.4262310000000  0.4178270000000 1.0
C      1  0.6091750000000  0.4917170000000  0.4401680000000 1.0
C      1  0.4698070000000  0.4651220000000  0.5315940000000 1.0
C      1  0.5150230000000  0.4503920000000  0.5915980000000 1.0
C      1  0.5031800000000  0.6128730000000  0.5252900000000 1.0
C      1  0.5877150000000  0.4150480000000  0.5284380000000 1.0
C      1  0.5625700000000  0.5807090000000  0.5558440000000 1.0
C      1  0.6061750000000  0.4467820000000  0.4826410000000 1.0
C      1  0.5590400000000  0.4217700000000  0.5788010000000 1.0
C      1  0.4227670000000  0.4742420000000  0.5961460000000 1.0
C      1  0.5253800000000  0.5517110000000  0.5077050000000 1.0
C      1  0.5685680000000  0.5497200000000  0.4195690000000 1.0
C      1  0.4056830000000  0.4388390000000  0.5195440000000 1.0
C      1  0.5661090000000  0.5756790000000  0.5048380000000 1.0
C      1  0.4718760000000  0.4870060000000  0.4792420000000 1.0
C      1  0.5568370000000  0.5823940000000  0.4507340000000 1.0
C      1  0.5292810000000  0.4985570000000  0.5697160000000 1.0
C      1  0.5032930000000  0.5728870000000  0.4376430000000 1.0
C      1  0.4797130000000  0.5851560000000  0.4293690000000 1.0
C      1  0.5347490000000  0.3815330000000  0.4521980000000 1.0
C      1  0.5940780000000  0.4882390000000  0.3733520000000 1.0
C      1  0.5227510000000  0.5503150000000  0.4796370000000 1.0
C      1  0.5397710000000  0.4311490000000  0.4110230000000 1.0
C      1  0.3904590000000  0.4790280000000  0.5035330000000 1.0
C      1  0.5050300000000  0.4548260000000  0.4691670000000 1.0
C      1  0.5423750000000  0.3873620000000  0.5040280000000 1.0
C      1  0.4967990000000  0.4146750000000  0.4898040000000 1.0
C      1  0.5577350000000  0.3976680000000  0.5929340000000 1.0
C      1  0.4091590000000  0.4996320000000  0.5959650000000 1.0
C      1  0.5081620000000  0.5459870000000  0.5295090000000 1.0
C      1  0.4312820000000  0.5565530000000  0.5614940000000 1.0
C      1  0.5597760000000  0.4639150000000  0.6068790000000 1.0
C      1  0.5604000000000  0.5313800000000  0.5290300000000 1.0
C      1  0.4505400000000  0.4102010000000  0.5815000000000 1.0
C      1  0.4055430000000  0.5628390000000  0.4821290000000 1.0
C      1  0.4460060000000  0.5515110000000  0.4193200000000 1.0
C      1  0.4844790000000  0.4588150000000  0.3896730000000 1.0
C      1  0.4393150000000  0.5994130000000  0.4065920000000 1.0
C      1  0.5518200000000  0.5545640000000  0.5167910000000 1.0
C      1  0.4031050000000  0.5104170000000  0.5685100000000 1.0
C      1  0.5712790000000  0.5160740000000  0.4545070000000 1.0
C      1  0.5621170000000  0.4899880000000  0.6134780000000 1.0
C      1  0.4151320000000  0.4449940000000  0.3738170000000 1.0
C      1  0.4275210000000  0.4282520000000  0.4411390000000 1.0
C      1  0.4162120000000  0.5502470000000  0.4586110000000 1.0
C      1  0.4618650000000  0.4781590000000  0.5729330000000 1.0
C      1  0.5281700000000  0.5221220000000  0.6260010000000 1.0
C      1  0.5551530000000  0.4645040000000  0.5080660000000 1.0
C      1  0.4665780000000  0.5036490000000  0.5602500000000 1.0
C      1  0.3387680000000  0.4782150000000  0.4938340000000 1.0
C      1  0.3877660000000  0.5478890000000  0.4981020000000 1.0
C      1  0.5240820000000  0.4077410000000  0.4115040000000 1.0
C      1  0.5060580000000  0.4968700000000  0.5846910000000 1.0
C      1  0.4544580000000  0.5369190000000  0.3950160000000 1.0
C      1  0.5844790000000  0.4263740000000  0.4388740000000 1.0
C      1  0.4919900000000  0.4736180000000  0.5168970000000 1.0
C      1  0.4530100000000  0.5462920000000  0.5777050000000 1.0
C      1  0.5790330000000  0.4681050000000  0.5266700000000 1.0
C      1  0.5319010000000  0.4003490000000  0.5274060000000 1.0
C      1  0.4952740000000  0.5662160000000  0.5743830000000 1.0
C      1  0.5476610000000  0.5690720000000  0.4239480000000 1.0
C      1  0.4124120000000  0.4289150000000  0.4649280000000 1.0
C      1  0.4006610000000  0.4316830000000  0.4906030000000 1.0
C      1  0.4603150000000  0.4295700000000  0.5670310000000 1.0
C      1  0.3974060000000  0.5279680000000  0.5136130000000 1.0
C      1  0.4912310000000  0.3738690000000  0.5456100000000 1.0
C      1  0.6320390000000  0.4918790000000  0.5101290000000 1.0
C      1  0.6082730000000  0.5247150000000  0.5558680000000 1.0
C      1  0.5203120000000  0.5609430000000  0.4179570000000 1.0
C      1  0.4547180000000  0.5800930000000  0.4182560000000 1.0
C      1  0.5132180000000  0.5645850000000  0.5521340000000 1.0
C      1  0.5043820000000  0.4477570000000  0.5646670000000 1.0
C      1  0.4743400000000  0.4547100000000  0.5590110000000 1.0
C      1  0.4082560000000  0.5406830000000  0.5709530000000 1.0
C      1  0.4337830000000  0.4879760000000  0.3858080000000 1.0
C      1  0.4204550000000  0.4854610000000  0.5032940000000 1.0
C      1  0.6024870000000  0.4327640000000  0.5094130000000 1.0
C      1  0.4808440000000  0.5899110000000  0.5823750000000 1.0
C      1  0.4436040000000  0.4651800000000  0.5207630000000 1.0
C      1  0.4808680000000  0.5411050000000  0.3845670000000 1.0
C      1  0.4000570000000  0.4600130000000  0.5495360000000 1.0
C      1  0.5801020000000  0.5650110000000  0.4626550000000 1.0
C      1  0.4517480000000  0.3934540000000  0.5217590000000 1.0
C      1  0.5027750000000  0.5028150000000  0.3674620000000 1.0
C      1  0.4760580000000  0.4212510000000  0.4363130000000 1.0
C      1  0.4216990000000  0.5132030000000  0.5138420000000 1.0
C      1  0.4860410000000  0.4634780000000  0.4906910000000 1.0
C      1  0.5877140000000  0.5703760000000  0.5522250000000 1.0
C      1  0.4397990000000  0.5139090000000  0.3876510000000 1.0
C      1  0.5293380000000  0.6016710000000  0.5238620000000 1.0
C      1  0.4576070000000  0.4466470000000  0.3978690000000 1.0
C      1  0.4842640000000  0.4461300000000  0.4479440000000 1.0
C      1  0.5464000000000  0.5197120000000  0.5790260000000 1.0
C      1  0.3951980000000  0.4892150000000  0.5504310000000 1.0
C      1  0.5725570000000  0.4818500000000  0.5509410000000 1.0
C      1  0.5290390000000  0.5268170000000  0.4665690000000 1.0
C      1  0.4432340000000  0.5397880000000  0.4664070000000 1.0
C      1  0.5431470000000  0.3809560000000  0.4778530000000 1.0
C      1  0.4495220000000  0.5486480000000  0.4954010000000 1.0
C      1  0.4777520000000  0.5136190000000  0.4403800000000 1.0
C      1  0.4895860000000  0.3936440000000  0.4725060000000 1.0
C      1  0.5355390000000  0.5960620000000  0.4699580000000 1.0
C      1  0.4852410000000  0.5246140000000  0.3608100000000 1.0
C      1  0.6037730000000  0.5122730000000  0.4833050000000 1.0
C      1  0.5480620000000  0.5089810000000  0.3879000000000 1.0
C      1  0.5414470000000  0.4807390000000  0.5494600000000 1.0
C      1  0.5387040000000  0.4892650000000  0.5179390000000 1.0
C      1  0.4513980000000  0.4284670000000  0.4221250000000 1.0
C      1  0.5867780000000  0.4469970000000  0.4588930000000 1.0
C      1  0.5085580000000  0.5416020000000  0.3983350000000 1.0
C      1  0.6037510000000  0.4560310000000  0.5261370000000 1.0
C      1  0.6192900000000  0.5192540000000  0.5060140000000 1.0
C      1  0.4348810000000  0.4597860000000  0.3856430000000 1.0
C      1  0.4745610000000  0.5633970000000  0.4969490000000 1.0
C      1  0.4752570000000  0.4296790000000  0.4996180000000 1.0
C      1  0.5256330000000  0.4495100000000  0.5470340000000 1.0
C      1  0.5461290000000  0.5965380000000  0.4995920000000 1.0
C      1  0.3644160000000  0.4785170000000  0.4984670000000 1.0
C      1  0.4506950000000  0.4783930000000  0.4622430000000 1.0
C      1  0.5390730000000  0.4408720000000  0.5030710000000 1.0
C      1  0.4343940000000  0.5906040000000  0.6029660000000 1.0
C      1  0.4659980000000  0.4680850000000  0.4406260000000 1.0
C      1  0.4053960000000  0.5473160000000  0.6004470000000 1.0
C      1  0.5891190000000  0.5656170000000  0.4909310000000 1.0
C      1  0.4116410000000  0.4550070000000  0.5763200000000 1.0
C      1  0.4953330000000  0.5206790000000  0.5265790000000 1.0
C      1  0.4759630000000  0.4783030000000  0.6169800000000 1.0
C      1  0.4510290000000  0.5978980000000  0.5321370000000 1.0
C      1  0.5326660000000  0.4291920000000  0.5285640000000 1.0
C      1  0.5281470000000  0.4569830000000  0.4181580000000 1.0
C      1  0.5213340000000  0.5165710000000  0.3865200000000 1.0
C      1  0.5205660000000  0.6218060000000  0.4640320000000 1.0
C      1  0.4952750000000  0.6310970000000  0.4671820000000 1.0
C      1  0.5413350000000  0.4678090000000  0.4414170000000 1.0
C      1  0.5159480000000  0.3921470000000  0.4334570000000 1.0
C      1  0.5351520000000  0.5840890000000  0.5471730000000 1.0
C      1  0.5016220000000  0.4693250000000  0.4114640000000 1.0
C      1  0.4772940000000  0.6096620000000  0.5323440000000 1.0
C      1  0.5748050000000  0.4194350000000  0.5534330000000 1.0
C      1  0.5718010000000  0.4991610000000  0.3813550000000 1.0
C      1  0.4806380000000  0.5426710000000  0.5810090000000 1.0
C      1  0.4522990000000  0.5938970000000  0.5810200000000 1.0
C      1  0.4285830000000  0.5722650000000  0.4975930000000 1.0
C      1  0.5044250000000  0.5150090000000  0.6370480000000 1.0
C      1  0.5157510000000  0.5027840000000  0.4660520000000 1.0
C      1  0.4058970000000  0.5217470000000  0.6139010000000 1.0
C      1  0.6096710000000  0.5467840000000  0.5127580000000 1.0
C      1  0.5122820000000  0.5750710000000  0.4663280000000 1.0
C      1  0.4819780000000  0.4879760000000  0.4257310000000 1.0
C      1  0.6054220000000  0.5501320000000  0.5414030000000 1.0
C      1  0.4695630000000  0.6283990000000  0.4749690000000 1.0
C      1  0.5490880000000  0.5149040000000  0.6078080000000 1.0
C      1  0.5809680000000  0.4930150000000  0.4401390000000 1.0
C      1  0.5194690000000  0.4325770000000  0.4836030000000 1.0
C      1  0.4389340000000  0.5972370000000  0.5060720000000 1.0
C      1  0.4893050000000  0.5808510000000  0.4835530000000 1.0
C      1  0.4864330000000  0.5156590000000  0.5779020000000 1.0
C      1  0.4519620000000  0.4755210000000  0.5998580000000 1.0
C      1  0.4468360000000  0.5264010000000  0.5159720000000 1.0
C      1  0.5233650000000  0.4763090000000  0.4609210000000 1.0
C      1  0.5860970000000  0.5066990000000  0.5581890000000 1.0
C      1  0.4486940000000  0.6165030000000  0.4873250000000 1.0
C      1  0.4154240000000  0.5722660000000  0.6093600000000 1.0
C      1  0.4879570000000  0.5064170000000  0.4665540000000 1.0
C      1  0.4337780000000  0.4391410000000  0.5199840000000 1.0
C      1  0.4923160000000  0.4760910000000  0.3676210000000 1.0
C      1  0.4589320000000  0.5347980000000  0.4422860000000 1.0
C      1  0.5586430000000  0.5108440000000  0.5085690000000 1.0
C      1  0.4902740000000  0.3981460000000  0.4445130000000 1.0
C      1  0.5750610000000  0.5128670000000  0.4833570000000 1.0
C      1  0.5445010000000  0.4441990000000  0.5928050000000 1.0
C      1  0.4825310000000  0.4987050000000  0.6361100000000 1.0
C      1  0.5689500000000  0.4685390000000  0.4477110000000 1.0
C      1  0.4525640000000  0.4198170000000  0.5123770000000 1.0
C      1  0.5090450000000  0.4962330000000  0.5185420000000 1.0
C      1  0.6244300000000  0.4723470000000  0.4864470000000 1.0
C      1  0.4262510000000  0.4821380000000  0.4741360000000 1.0
C      1  0.4406330000000  0.5844020000000  0.5553540000000 1.0
C      1  0.5153840000000  0.3851180000000  0.5441160000000 1.0
END
