TITL C-612601-4209-228 0.110122303487675 125000 -214.503410298225 0 0 36 (C1) n - 1
REM
REM in /home/nfs/bkarasulu/CARBON/AIRSS/Generating-Clusters/TERSOFF/Only-C1/FIRE-HFTN
REM
REM
REM
REM
REM
REM ./C.cell (11c1c37f851c82e70ff6c80c92926a4b)
REM AIRSS Version 0.9.1 bugfix July 2018 build 013d7b7c2542+ Fri, 06 Jul 2018 19:26:36 +0100
REM compiler GCC version 9.2.1 20190827 (Red Hat 9.2.1-1)
REM options -cpp -mtune=generic -march=x86-64 -g -O0 -fpre-include=/usr/include/finclude/math-vector-fortran.h
REM seed -1886160385 899479577 -1237941387 249518733 620724409 -1376882483 1701599859 -1301318417 473566297 -2070948494 -1378502411 -912486492 -298361276 -699365615 1723509403 -1636358770 1899956072 -1637871329 -389266461 -804381356 -724294067 896215030 899569395 1584397645 -1791356005 1676584860 1948145346 836918425 1331413947 1877101168 1769344265 -659404975 587524782
REM
CELL 1.54180   50.00000   50.00000   50.00000   90.00000   90.00000   90.00000
LATT -1
SFAC C  
C      1  0.4815400000000  0.5341690000000  0.4599090000000 1.0
C      1  0.4855900000000  0.5100420000000  0.6014410000000 1.0
C      1  0.5272080000000  0.4884110000000  0.3977580000000 1.0
C      1  0.5139110000000  0.4579250000000  0.5178050000000 1.0
C      1  0.4370520000000  0.5195320000000  0.5164410000000 1.0
C      1  0.5030300000000  0.4716580000000  0.4678400000000 1.0
C      1  0.5315700000000  0.5133680000000  0.6167620000000 1.0
C      1  0.4458060000000  0.4796250000000  0.4639060000000 1.0
C      1  0.5274660000000  0.5136840000000  0.4066500000000 1.0
C      1  0.5031000000000  0.4523290000000  0.4234010000000 1.0
C      1  0.5769280000000  0.4784210000000  0.5920930000000 1.0
C      1  0.4598300000000  0.5100460000000  0.6053910000000 1.0
C      1  0.4751000000000  0.5365140000000  0.4882670000000 1.0
C      1  0.4922710000000  0.5446710000000  0.5084630000000 1.0
C      1  0.5068630000000  0.4587620000000  0.4922210000000 1.0
C      1  0.4578230000000  0.5231380000000  0.4465720000000 1.0
C      1  0.5124440000000  0.4980630000000  0.4645540000000 1.0
C      1  0.4882320000000  0.4606380000000  0.4458970000000 1.0
C      1  0.4567630000000  0.4852990000000  0.4183080000000 1.0
C      1  0.5064020000000  0.5227730000000  0.4521220000000 1.0
C      1  0.5193600000000  0.5280700000000  0.4277920000000 1.0
C      1  0.5601220000000  0.4756180000000  0.5714720000000 1.0
C      1  0.5559220000000  0.5066570000000  0.6255960000000 1.0
C      1  0.5221020000000  0.5065330000000  0.5691500000000 1.0
C      1  0.5757550000000  0.4916210000000  0.6154640000000 1.0
C      1  0.4515300000000  0.5298490000000  0.3983550000000 1.0
C      1  0.5180410000000  0.4641630000000  0.4045200000000 1.0
C      1  0.5233290000000  0.4664350000000  0.5411020000000 1.0
C      1  0.4446880000000  0.5076970000000  0.4684680000000 1.0
C      1  0.5129690000000  0.5101060000000  0.5959870000000 1.0
C      1  0.5174670000000  0.5268510000000  0.5504390000000 1.0
C      1  0.5351430000000  0.4825130000000  0.5606790000000 1.0
C      1  0.5070940000000  0.5402890000000  0.5300500000000 1.0
C      1  0.4614120000000  0.4698140000000  0.4419740000000 1.0
C      1  0.4551470000000  0.5136920000000  0.4199290000000 1.0
C      1  0.4509930000000  0.5210270000000  0.4932220000000 1.0
END
