TITL C-612600-6631-1497 20415.5491676212 125000 -855.483911940224 0 0 142 (C1) n - 1
REM
REM in /home/nfs/bkarasulu/CARBON/AIRSS/Generating-Clusters/TERSOFF/Only-C1/FIRE-HFTN
REM
REM
REM
REM
REM
REM ./C.cell (11c1c37f851c82e70ff6c80c92926a4b)
REM AIRSS Version 0.9.1 bugfix July 2018 build 013d7b7c2542+ Fri, 06 Jul 2018 19:26:36 +0100
REM compiler GCC version 9.2.1 20190827 (Red Hat 9.2.1-1)
REM options -cpp -mtune=generic -march=x86-64 -g -O0 -fpre-include=/usr/include/finclude/math-vector-fortran.h
REM seed 494688005 576070304 1613756822 1321132194 524236059 -568433252 1174472880 2096652133 -1827460298 2001611931 3792632 -310249959 -1849443459 -386767328 -650568508 677012006 1353034669 660912981 1578719748 249419269 -1664040038 11236407 1043163024 -1943968878 -1656344350 -1014943189 -1695765800 -122977973 -20176956 -2120944131 1681883351 1010882480 1477513981
REM
CELL 1.54180   50.00000   50.00000   50.00000   90.00000   90.00000   90.00000
LATT -1
SFAC C  
C      1  0.4100230000000  0.4406460000000  0.4053480000000 1.0
C      1  0.5196610000000  0.5122160000000  0.4687190000000 1.0
C      1  0.5064770000000  0.4218380000000  0.5435670000000 1.0
C      1  0.4948170000000  0.6078810000000  0.4998130000000 1.0
C      1  0.4079620000000  0.4379670000000  0.4924200000000 1.0
C      1  0.4779400000000  0.4223800000000  0.4865740000000 1.0
C      1  0.4870430000000  0.5521690000000  0.4045100000000 1.0
C      1  0.5891890000000  0.4640810000000  0.4584020000000 1.0
C      1  0.4693660000000  0.5844770000000  0.4635260000000 1.0
C      1  0.6372730000000  0.5328600000000  0.5875430000000 1.0
C      1  0.5830110000000  0.4869370000000  0.4390330000000 1.0
C      1  0.5689960000000  0.4071540000000  0.4939920000000 1.0
C      1  0.5421940000000  0.5513690000000  0.4697860000000 1.0
C      1  0.4758720000000  0.4830470000000  0.6133980000000 1.0
C      1  0.3963960000000  0.5639820000000  0.4469280000000 1.0
C      1  0.4650120000000  0.4305900000000  0.4620260000000 1.0
C      1  0.5382310000000  0.6203620000000  0.5148840000000 1.0
C      1  0.5661810000000  0.5526550000000  0.4532280000000 1.0
C      1  0.4713930000000  0.5563240000000  0.4594030000000 1.0
C      1  0.5048360000000  0.4506980000000  0.5323140000000 1.0
C      1  0.3847110000000  0.4313480000000  0.5331070000000 1.0
C      1  0.4350100000000  0.4401380000000  0.3961160000000 1.0
C      1  0.4911550000000  0.6003820000000  0.4725990000000 1.0
C      1  0.5000290000000  0.5076910000000  0.4205570000000 1.0
C      1  0.4720900000000  0.5069310000000  0.5365400000000 1.0
C      1  0.5914410000000  0.5222750000000  0.4805580000000 1.0
C      1  0.5324580000000  0.5964800000000  0.4371120000000 1.0
C      1  0.5715120000000  0.5099980000000  0.4289380000000 1.0
C      1  0.5561020000000  0.6230370000000  0.4950780000000 1.0
C      1  0.4542100000000  0.4349420000000  0.5323730000000 1.0
C      1  0.4828040000000  0.5074700000000  0.4424960000000 1.0
C      1  0.5104970000000  0.6052920000000  0.4528050000000 1.0
C      1  0.4113550000000  0.5541750000000  0.4266800000000 1.0
C      1  0.5374250000000  0.5158050000000  0.5591990000000 1.0
C      1  0.4379670000000  0.5450270000000  0.4279380000000 1.0
C      1  0.4912300000000  0.5346870000000  0.4681610000000 1.0
C      1  0.5395270000000  0.4692720000000  0.4669120000000 1.0
C      1  0.5076690000000  0.5840750000000  0.5728310000000 1.0
C      1  0.5636320000000  0.5006970000000  0.5159270000000 1.0
C      1  0.5165940000000  0.5570680000000  0.5770680000000 1.0
C      1  0.4570450000000  0.4099050000000  0.4448140000000 1.0
C      1  0.4058130000000  0.4320190000000  0.5497190000000 1.0
C      1  0.5072550000000  0.4255210000000  0.4861480000000 1.0
C      1  0.5658540000000  0.5146310000000  0.4915670000000 1.0
C      1  0.4707690000000  0.4594110000000  0.5710320000000 1.0
C      1  0.3678590000000  0.4399100000000  0.4373010000000 1.0
C      1  0.6149240000000  0.5197330000000  0.5848310000000 1.0
C      1  0.6053490000000  0.4765580000000  0.5369170000000 1.0
C      1  0.5564290000000  0.5613030000000  0.5239170000000 1.0
C      1  0.5143030000000  0.4736540000000  0.5885020000000 1.0
C      1  0.4052900000000  0.5222870000000  0.5720670000000 1.0
C      1  0.5173290000000  0.4854030000000  0.4691410000000 1.0
C      1  0.4910410000000  0.5050420000000  0.5571890000000 1.0
C      1  0.5169580000000  0.5395900000000  0.6004860000000 1.0
C      1  0.6023440000000  0.4736520000000  0.4831640000000 1.0
C      1  0.4699380000000  0.4852900000000  0.4559240000000 1.0
C      1  0.5178780000000  0.4918070000000  0.5652400000000 1.0
C      1  0.5660380000000  0.4109350000000  0.5203180000000 1.0
C      1  0.5898800000000  0.5490390000000  0.4698430000000 1.0
C      1  0.4475760000000  0.3664920000000  0.4167510000000 1.0
C      1  0.5200760000000  0.4944840000000  0.5194360000000 1.0
C      1  0.4693840000000  0.5098420000000  0.6060660000000 1.0
C      1  0.5345590000000  0.5466720000000  0.4171320000000 1.0
C      1  0.5094970000000  0.4556150000000  0.4100790000000 1.0
C      1  0.4762670000000  0.4906880000000  0.4842720000000 1.0
C      1  0.4461560000000  0.5099910000000  0.5891230000000 1.0
C      1  0.4442320000000  0.5487730000000  0.5562710000000 1.0
C      1  0.5267500000000  0.5427740000000  0.5552690000000 1.0
C      1  0.5706220000000  0.4405930000000  0.4548980000000 1.0
C      1  0.5935490000000  0.5687360000000  0.4899870000000 1.0
C      1  0.4912870000000  0.5285620000000  0.6080060000000 1.0
C      1  0.4323760000000  0.5322350000000  0.5754360000000 1.0
C      1  0.5133570000000  0.5643840000000  0.5056260000000 1.0
C      1  0.4872480000000  0.4669000000000  0.5930950000000 1.0
C      1  0.5131000000000  0.4509080000000  0.5018560000000 1.0
C      1  0.3826500000000  0.4351880000000  0.5054070000000 1.0
C      1  0.5915120000000  0.4828390000000  0.5622650000000 1.0
C      1  0.5594450000000  0.5367900000000  0.4292430000000 1.0
C      1  0.5569780000000  0.6068410000000  0.4463880000000 1.0
C      1  0.4637420000000  0.4577430000000  0.4524750000000 1.0
C      1  0.5086110000000  0.5329140000000  0.4113170000000 1.0
C      1  0.4875400000000  0.4430250000000  0.3977680000000 1.0
C      1  0.5576640000000  0.4183760000000  0.4708200000000 1.0
C      1  0.4614870000000  0.4398180000000  0.3930330000000 1.0
C      1  0.5944100000000  0.4670400000000  0.5106570000000 1.0
C      1  0.3606010000000  0.4362890000000  0.4881680000000 1.0
C      1  0.4147850000000  0.4192990000000  0.4737710000000 1.0
C      1  0.5277510000000  0.4154210000000  0.4676370000000 1.0
C      1  0.4598450000000  0.4824910000000  0.5277520000000 1.0
C      1  0.4042500000000  0.4948830000000  0.5756730000000 1.0
C      1  0.3983500000000  0.5695240000000  0.4731260000000 1.0
C      1  0.5360630000000  0.4619270000000  0.6014060000000 1.0
C      1  0.5095230000000  0.4837200000000  0.4097880000000 1.0
C      1  0.5672590000000  0.5155280000000  0.5959910000000 1.0
C      1  0.4724940000000  0.5207790000000  0.4900770000000 1.0
C      1  0.4591840000000  0.5479800000000  0.4087530000000 1.0
C      1  0.5786610000000  0.5708110000000  0.5124450000000 1.0
C      1  0.4469330000000  0.5412810000000  0.4547770000000 1.0
C      1  0.3870010000000  0.4406670000000  0.4187580000000 1.0
C      1  0.4304910000000  0.4842780000000  0.5824840000000 1.0
C      1  0.5567180000000  0.4292390000000  0.5373910000000 1.0
C      1  0.5434440000000  0.5268100000000  0.6047350000000 1.0
C      1  0.5468130000000  0.4544040000000  0.4440140000000 1.0
C      1  0.5200160000000  0.4171310000000  0.4399550000000 1.0
C      1  0.5695620000000  0.4650730000000  0.5660510000000 1.0
C      1  0.5283000000000  0.5489300000000  0.5260820000000 1.0
C      1  0.5908430000000  0.5057580000000  0.5809710000000 1.0
C      1  0.5595840000000  0.5111190000000  0.5418380000000 1.0
C      1  0.5271700000000  0.5761660000000  0.4176590000000 1.0
C      1  0.4678770000000  0.4165850000000  0.5136830000000 1.0
C      1  0.5182080000000  0.4146370000000  0.5670610000000 1.0
C      1  0.5639550000000  0.4704690000000  0.5142910000000 1.0
C      1  0.5212890000000  0.5206020000000  0.5160360000000 1.0
C      1  0.5432480000000  0.5234050000000  0.4772380000000 1.0
C      1  0.4503730000000  0.5495210000000  0.5285600000000 1.0
C      1  0.4245980000000  0.4587350000000  0.5007810000000 1.0
C      1  0.6103810000000  0.5013400000000  0.4804960000000 1.0
C      1  0.3570320000000  0.4382940000000  0.4616600000000 1.0
C      1  0.5128540000000  0.6099040000000  0.5219780000000 1.0
C      1  0.5434200000000  0.4592130000000  0.4945050000000 1.0
C      1  0.4745970000000  0.4579860000000  0.5396160000000 1.0
C      1  0.4681170000000  0.5289380000000  0.5189240000000 1.0
C      1  0.4127920000000  0.5700190000000  0.4956610000000 1.0
C      1  0.4992300000000  0.4749550000000  0.4890370000000 1.0
C      1  0.4366420000000  0.4826770000000  0.5092160000000 1.0
C      1  0.4413250000000  0.4595700000000  0.5729930000000 1.0
C      1  0.5530700000000  0.4591060000000  0.5416000000000 1.0
C      1  0.4430570000000  0.5239260000000  0.4774050000000 1.0
C      1  0.4332480000000  0.5644700000000  0.5119620000000 1.0
C      1  0.4282850000000  0.5056330000000  0.4936040000000 1.0
C      1  0.4524660000000  0.3876540000000  0.4311630000000 1.0
C      1  0.5603320000000  0.4569900000000  0.5912110000000 1.0
C      1  0.5010920000000  0.5773170000000  0.4044070000000 1.0
C      1  0.5161750000000  0.5579870000000  0.4788430000000 1.0
C      1  0.4466620000000  0.5980430000000  0.4561160000000 1.0
C      1  0.4974140000000  0.5979440000000  0.5942310000000 1.0
C      1  0.5087480000000  0.5975070000000  0.5474450000000 1.0
C      1  0.5242110000000  0.4728580000000  0.5417300000000 1.0
C      1  0.4325350000000  0.4399660000000  0.5525780000000 1.0
C      1  0.5639370000000  0.6178920000000  0.4699610000000 1.0
C      1  0.5270160000000  0.4418600000000  0.4276300000000 1.0
C      1  0.4885110000000  0.4041540000000  0.5298710000000 1.0
END
