TITL C-612606-7351-1024 0.130762512111075 125000 -557.668384835605 0 0 92 (C1) n - 1
REM
REM in /home/nfs/bkarasulu/CARBON/AIRSS/Generating-Clusters/TERSOFF/Only-C1/FIRE-HFTN
REM
REM
REM
REM
REM
REM ./C.cell (11c1c37f851c82e70ff6c80c92926a4b)
REM AIRSS Version 0.9.1 bugfix July 2018 build 013d7b7c2542+ Fri, 06 Jul 2018 19:26:36 +0100
REM compiler GCC version 9.2.1 20190827 (Red Hat 9.2.1-1)
REM options -cpp -mtune=generic -march=x86-64 -g -O0 -fpre-include=/usr/include/finclude/math-vector-fortran.h
REM seed -1033953613 -839857943 1174235678 -1088030224 -1102970974 -1321186270 -931686651 1371401067 545788529 -712219374 -696039802 968677115 -26304538 915623513 312787007 790337839 -1518627551 -2145749271 -1873351091 -1543386626 209761225 1024415100 -169105258 -908498565 -914079949 -1129658650 -258311652 -234798800 -572645221 649687570 -18838026 2003486994 -1056500289
REM
CELL 1.54180   50.00000   50.00000   50.00000   90.00000   90.00000   90.00000
LATT -1
SFAC C  
C      1  0.5538650000000  0.4912720000000  0.4322920000000 1.0
C      1  0.4250490000000  0.4118240000000  0.5003030000000 1.0
C      1  0.4963410000000  0.4699290000000  0.5910700000000 1.0
C      1  0.4799000000000  0.4482780000000  0.5508280000000 1.0
C      1  0.5024660000000  0.4969010000000  0.4672700000000 1.0
C      1  0.4963410000000  0.6046850000000  0.4855730000000 1.0
C      1  0.5426840000000  0.4885970000000  0.5882150000000 1.0
C      1  0.4649770000000  0.5920240000000  0.5280130000000 1.0
C      1  0.4943490000000  0.5389440000000  0.4832580000000 1.0
C      1  0.5844950000000  0.5576000000000  0.5024790000000 1.0
C      1  0.5189360000000  0.4818930000000  0.6038130000000 1.0
C      1  0.5220970000000  0.3998530000000  0.4795040000000 1.0
C      1  0.5162510000000  0.4547200000000  0.5131600000000 1.0
C      1  0.5580510000000  0.5536110000000  0.4467900000000 1.0
C      1  0.5632310000000  0.5281840000000  0.5601810000000 1.0
C      1  0.4962900000000  0.5468030000000  0.5100990000000 1.0
C      1  0.4320360000000  0.5408110000000  0.4873330000000 1.0
C      1  0.4908170000000  0.5597760000000  0.5687140000000 1.0
C      1  0.5266270000000  0.5109350000000  0.4701120000000 1.0
C      1  0.4537970000000  0.4593810000000  0.4353200000000 1.0
C      1  0.4782970000000  0.4886400000000  0.5782020000000 1.0
C      1  0.4684710000000  0.5519010000000  0.5527870000000 1.0
C      1  0.4896330000000  0.4738290000000  0.4597400000000 1.0
C      1  0.5311510000000  0.5589890000000  0.4532220000000 1.0
C      1  0.5261230000000  0.5260050000000  0.4032010000000 1.0
C      1  0.4405780000000  0.3921600000000  0.4477430000000 1.0
C      1  0.5485060000000  0.4638140000000  0.5743270000000 1.0
C      1  0.4811910000000  0.5146640000000  0.4748600000000 1.0
C      1  0.5021330000000  0.5372470000000  0.4072600000000 1.0
C      1  0.5582930000000  0.5546820000000  0.5480940000000 1.0
C      1  0.5151010000000  0.4038380000000  0.5069300000000 1.0
C      1  0.5413330000000  0.5039310000000  0.4923020000000 1.0
C      1  0.5082860000000  0.4820030000000  0.5194250000000 1.0
C      1  0.4990810000000  0.5382900000000  0.5856130000000 1.0
C      1  0.4815820000000  0.5155570000000  0.5858850000000 1.0
C      1  0.4930680000000  0.5956750000000  0.5346450000000 1.0
C      1  0.5047930000000  0.6072370000000  0.5112090000000 1.0
C      1  0.4552290000000  0.5036100000000  0.4781000000000 1.0
C      1  0.5079030000000  0.5781790000000  0.5540860000000 1.0
C      1  0.5059350000000  0.4287450000000  0.5159820000000 1.0
C      1  0.4046410000000  0.4013830000000  0.5135800000000 1.0
C      1  0.4787830000000  0.4345500000000  0.5250230000000 1.0
C      1  0.5747930000000  0.5332310000000  0.4571360000000 1.0
C      1  0.5947870000000  0.5086830000000  0.5226500000000 1.0
C      1  0.5296440000000  0.4446240000000  0.5681660000000 1.0
C      1  0.5316820000000  0.5646630000000  0.5430360000000 1.0
C      1  0.4726070000000  0.4769680000000  0.5519560000000 1.0
C      1  0.5388340000000  0.4662910000000  0.4342670000000 1.0
C      1  0.4765090000000  0.5390630000000  0.5289630000000 1.0
C      1  0.5770390000000  0.5626590000000  0.5279210000000 1.0
C      1  0.4510010000000  0.4157500000000  0.4584650000000 1.0
C      1  0.4667000000000  0.5520260000000  0.4386860000000 1.0
C      1  0.4313450000000  0.4751270000000  0.4454320000000 1.0
C      1  0.4786610000000  0.5319110000000  0.4220820000000 1.0
C      1  0.4814990000000  0.4913730000000  0.5289000000000 1.0
C      1  0.5262210000000  0.5339740000000  0.5914850000000 1.0
C      1  0.5740960000000  0.5083310000000  0.5421240000000 1.0
C      1  0.4501900000000  0.5825480000000  0.5072400000000 1.0
C      1  0.5216450000000  0.5545710000000  0.5184520000000 1.0
C      1  0.5060430000000  0.4098200000000  0.4587340000000 1.0
C      1  0.4964030000000  0.4303170000000  0.4414150000000 1.0
C      1  0.4170730000000  0.5551110000000  0.5684720000000 1.0
C      1  0.4421210000000  0.5542790000000  0.5613380000000 1.0
C      1  0.5884310000000  0.4919100000000  0.4729560000000 1.0
C      1  0.5948360000000  0.5107050000000  0.4943480000000 1.0
C      1  0.5135260000000  0.5804620000000  0.4484550000000 1.0
C      1  0.3845800000000  0.3909980000000  0.5265930000000 1.0
C      1  0.5178880000000  0.4484890000000  0.4326920000000 1.0
C      1  0.4468190000000  0.4222240000000  0.4863250000000 1.0
C      1  0.4326860000000  0.4999960000000  0.4598390000000 1.0
C      1  0.5013290000000  0.4474330000000  0.5722070000000 1.0
C      1  0.5452660000000  0.3865530000000  0.4733140000000 1.0
C      1  0.5730370000000  0.5035410000000  0.4507330000000 1.0
C      1  0.4727960000000  0.5041030000000  0.4235280000000 1.0
C      1  0.4473710000000  0.5657500000000  0.4841250000000 1.0
C      1  0.5331080000000  0.4956050000000  0.5174810000000 1.0
C      1  0.5444960000000  0.5085700000000  0.4117340000000 1.0
C      1  0.4785250000000  0.4579700000000  0.4809950000000 1.0
C      1  0.4662130000000  0.4335080000000  0.4414820000000 1.0
C      1  0.4648590000000  0.5144380000000  0.5224400000000 1.0
C      1  0.4752980000000  0.4783910000000  0.4349090000000 1.0
C      1  0.4457550000000  0.5177910000000  0.5017300000000 1.0
C      1  0.4902380000000  0.5876360000000  0.4637310000000 1.0
C      1  0.5467830000000  0.5169100000000  0.5817290000000 1.0
C      1  0.5872480000000  0.5369590000000  0.4834650000000 1.0
C      1  0.4651210000000  0.4399920000000  0.4991480000000 1.0
C      1  0.4187660000000  0.5256460000000  0.4648440000000 1.0
C      1  0.5170370000000  0.3829090000000  0.5245380000000 1.0
C      1  0.4662310000000  0.5702480000000  0.4612830000000 1.0
C      1  0.5195040000000  0.5387710000000  0.4685220000000 1.0
C      1  0.5536920000000  0.4902870000000  0.5352610000000 1.0
C      1  0.4309540000000  0.3699330000000  0.4381270000000 1.0
END
