TITL C-612601-4209-1097 1.25583114289828 125000 -132.845386918794 0 0 23 (C1) n - 1
REM
REM in /home/nfs/bkarasulu/CARBON/AIRSS/Generating-Clusters/TERSOFF/Only-C1/FIRE-HFTN
REM
REM
REM
REM
REM
REM ./C.cell (11c1c37f851c82e70ff6c80c92926a4b)
REM AIRSS Version 0.9.1 bugfix July 2018 build 013d7b7c2542+ Fri, 06 Jul 2018 19:26:36 +0100
REM compiler GCC version 9.2.1 20190827 (Red Hat 9.2.1-1)
REM options -cpp -mtune=generic -march=x86-64 -g -O0 -fpre-include=/usr/include/finclude/math-vector-fortran.h
REM seed 378518840 966699560 1217443638 -1969709995 1765850498 -1844710115 -756978360 -1151481857 237435466 1767480098 -383634860 1058080148 1458040672 -422379666 2026539926 1969966043 1386744622 1985076332 899363643 1890868198 587654008 -1655563271 1373570838 444613113 -1820680028 -776267996 -1864481364 -1773373426 1945997266 221744979 -1164729424 1285346746 1058153924
REM
CELL 1.54180   50.00000   50.00000   50.00000   90.00000   90.00000   90.00000
LATT -1
SFAC C  
C      1  0.4752580000000  0.5264290000000  0.4611410000000 1.0
C      1  0.5720910000000  0.5182710000000  0.5132230000000 1.0
C      1  0.4810620000000  0.5280680000000  0.4892740000000 1.0
C      1  0.4591170000000  0.4667440000000  0.5930700000000 1.0
C      1  0.5017190000000  0.5026220000000  0.3666620000000 1.0
C      1  0.4745900000000  0.4778540000000  0.5746480000000 1.0
C      1  0.4281640000000  0.4445220000000  0.6299170000000 1.0
C      1  0.5033970000000  0.4981540000000  0.3410320000000 1.0
C      1  0.5185520000000  0.5116160000000  0.4654330000000 1.0
C      1  0.4974500000000  0.5162130000000  0.4459750000000 1.0
C      1  0.5050690000000  0.5003410000000  0.5376000000000 1.0
C      1  0.5469560000000  0.5188180000000  0.5223350000000 1.0
C      1  0.4983910000000  0.5116830000000  0.4187690000000 1.0
C      1  0.4436420000000  0.4556340000000  0.6114910000000 1.0
C      1  0.4900250000000  0.4889890000000  0.5562100000000 1.0
C      1  0.4647950000000  0.5379210000000  0.5085910000000 1.0
C      1  0.5449480000000  0.5058860000000  0.4587710000000 1.0
C      1  0.4129400000000  0.4335920000000  0.6480400000000 1.0
C      1  0.5081810000000  0.5175370000000  0.4921940000000 1.0
C      1  0.5706220000000  0.5067640000000  0.4661830000000 1.0
C      1  0.5200460000000  0.5125800000000  0.5173990000000 1.0
C      1  0.5000140000000  0.5071640000000  0.3927200000000 1.0
C      1  0.5829710000000  0.5125940000000  0.4893220000000 1.0
END
