TITL C-612606-7351-178 0.00577454315050494 125000 -438.768241471414 0 0 73 (C1) n - 1
REM
REM in /home/nfs/bkarasulu/CARBON/AIRSS/Generating-Clusters/TERSOFF/Only-C1/FIRE-HFTN
REM
REM
REM
REM
REM
REM ./C.cell (11c1c37f851c82e70ff6c80c92926a4b)
REM AIRSS Version 0.9.1 bugfix July 2018 build 013d7b7c2542+ Fri, 06 Jul 2018 19:26:36 +0100
REM compiler GCC version 9.2.1 20190827 (Red Hat 9.2.1-1)
REM options -cpp -mtune=generic -march=x86-64 -g -O0 -fpre-include=/usr/include/finclude/math-vector-fortran.h
REM seed -1452437512 32869672 -1698932555 -162363784 512546455 1274754975 363737234 -1404023758 -229616982 1507876801 -900017598 521827903 -1618784930 -2104089650 -1465203418 -1847126983 444691631 1233985759 1766868087 1683197313 1470325216 -1968318024 411861906 -1032471077 1571326786 2033840017 -254435736 -1326372454 1857331662 -1794472851 -974377159 -93554124 -498975583
REM
CELL 1.54180   50.00000   50.00000   50.00000   90.00000   90.00000   90.00000
LATT -1
SFAC C  
C      1  0.4452160000000  0.5182460000000  0.5535250000000 1.0
C      1  0.5753520000000  0.5139710000000  0.5039220000000 1.0
C      1  0.4504350000000  0.4469210000000  0.4579930000000 1.0
C      1  0.4473080000000  0.5461550000000  0.5118210000000 1.0
C      1  0.4280420000000  0.5529900000000  0.4503000000000 1.0
C      1  0.6045370000000  0.4832690000000  0.5364350000000 1.0
C      1  0.4729460000000  0.4603400000000  0.4473510000000 1.0
C      1  0.5192750000000  0.4416970000000  0.5632470000000 1.0
C      1  0.4945540000000  0.5507960000000  0.4214040000000 1.0
C      1  0.5182280000000  0.5201280000000  0.5672650000000 1.0
C      1  0.5494830000000  0.4623300000000  0.5284090000000 1.0
C      1  0.5224270000000  0.4700550000000  0.4910780000000 1.0
C      1  0.5608930000000  0.4418710000000  0.5120520000000 1.0
C      1  0.4616600000000  0.4992500000000  0.4994620000000 1.0
C      1  0.5343240000000  0.4022210000000  0.5034450000000 1.0
C      1  0.4674350000000  0.6126520000000  0.4541040000000 1.0
C      1  0.4951920000000  0.4356490000000  0.5531790000000 1.0
C      1  0.5053750000000  0.4971340000000  0.5568280000000 1.0
C      1  0.5702140000000  0.4637560000000  0.4473380000000 1.0
C      1  0.4803630000000  0.4381330000000  0.5293790000000 1.0
C      1  0.6097330000000  0.4745260000000  0.5116380000000 1.0
C      1  0.6051090000000  0.4717280000000  0.4853940000000 1.0
C      1  0.4824700000000  0.5713870000000  0.4332390000000 1.0
C      1  0.5565280000000  0.4234010000000  0.4670390000000 1.0
C      1  0.5543100000000  0.4202350000000  0.4949210000000 1.0
C      1  0.4912910000000  0.4996280000000  0.4226270000000 1.0
C      1  0.4383530000000  0.4380790000000  0.4802070000000 1.0
C      1  0.4435550000000  0.4705110000000  0.5429190000000 1.0
C      1  0.5328450000000  0.5336110000000  0.4990920000000 1.0
C      1  0.4818900000000  0.4885480000000  0.5698130000000 1.0
C      1  0.4382930000000  0.4374510000000  0.5070430000000 1.0
C      1  0.5007510000000  0.5422470000000  0.5685680000000 1.0
C      1  0.4196780000000  0.5318060000000  0.5142280000000 1.0
C      1  0.4360650000000  0.5268230000000  0.4432610000000 1.0
C      1  0.4032820000000  0.5620670000000  0.4428240000000 1.0
C      1  0.4989090000000  0.5247630000000  0.4174280000000 1.0
C      1  0.4474530000000  0.5028200000000  0.4399990000000 1.0
C      1  0.4836590000000  0.4887480000000  0.5135670000000 1.0
C      1  0.4984150000000  0.4505060000000  0.4560230000000 1.0
C      1  0.4157400000000  0.5132180000000  0.4917520000000 1.0
C      1  0.4245230000000  0.4856330000000  0.5272390000000 1.0
C      1  0.5501380000000  0.4439510000000  0.4486160000000 1.0
C      1  0.5133310000000  0.5324460000000  0.4791740000000 1.0
C      1  0.4206420000000  0.5137410000000  0.5377630000000 1.0
C      1  0.6178700000000  0.5433910000000  0.4940380000000 1.0
C      1  0.4942330000000  0.4319610000000  0.5046100000000 1.0
C      1  0.5413050000000  0.4541800000000  0.5542700000000 1.0
C      1  0.4868450000000  0.5347720000000  0.4790640000000 1.0
C      1  0.4450750000000  0.5698300000000  0.4937100000000 1.0
C      1  0.5706060000000  0.5098330000000  0.5666500000000 1.0
C      1  0.5910430000000  0.4712630000000  0.4626050000000 1.0
C      1  0.5460020000000  0.5194080000000  0.5709900000000 1.0
C      1  0.5028730000000  0.4508660000000  0.4843870000000 1.0
C      1  0.4652680000000  0.5850330000000  0.4507950000000 1.0
C      1  0.5907440000000  0.4963580000000  0.5552960000000 1.0
C      1  0.5970860000000  0.5284050000000  0.4988300000000 1.0
C      1  0.5347380000000  0.5583360000000  0.5123970000000 1.0
C      1  0.4532970000000  0.4469920000000  0.5293030000000 1.0
C      1  0.4454200000000  0.5703990000000  0.4651510000000 1.0
C      1  0.4558850000000  0.4913790000000  0.5599830000000 1.0
C      1  0.4701310000000  0.4863730000000  0.4357400000000 1.0
C      1  0.5078650000000  0.4071040000000  0.5044420000000 1.0
C      1  0.5477630000000  0.5104180000000  0.5065720000000 1.0
C      1  0.4693610000000  0.6383710000000  0.4578430000000 1.0
C      1  0.4337020000000  0.4911800000000  0.4994910000000 1.0
C      1  0.5335710000000  0.4848260000000  0.5147000000000 1.0
C      1  0.5226920000000  0.4470380000000  0.4414200000000 1.0
C      1  0.5179910000000  0.5763820000000  0.5230160000000 1.0
C      1  0.5074890000000  0.4909110000000  0.5292850000000 1.0
C      1  0.4944100000000  0.5757420000000  0.5359060000000 1.0
C      1  0.4825770000000  0.5547350000000  0.5506100000000 1.0
C      1  0.4651190000000  0.5272500000000  0.4946150000000 1.0
C      1  0.4588170000000  0.5418260000000  0.5413710000000 1.0
END
