TITL C-612600-6631-1131 -3.75998575980014e-06 125000 -312.600300851942 0 0 53 (C1) n - 1
REM
REM in /home/nfs/bkarasulu/CARBON/AIRSS/Generating-Clusters/TERSOFF/Only-C1/FIRE-HFTN
REM
REM
REM
REM
REM
REM ./C.cell (11c1c37f851c82e70ff6c80c92926a4b)
REM AIRSS Version 0.9.1 bugfix July 2018 build 013d7b7c2542+ Fri, 06 Jul 2018 19:26:36 +0100
REM compiler GCC version 9.2.1 20190827 (Red Hat 9.2.1-1)
REM options -cpp -mtune=generic -march=x86-64 -g -O0 -fpre-include=/usr/include/finclude/math-vector-fortran.h
REM seed 442530168 -743418068 -290665998 -1064824736 -178677961 -1965511842 134559622 93379818 2063149600 1507557701 -2000003246 1271473328 255193572 1853568346 1158526331 550516540 -465957785 -312278972 1277561610 796769309 -1399388703 -2041694249 1469928222 1946856084 2050721095 -748458501 -1066602571 -1080440950 530746725 1571510033 -954639820 331509214 -2014809283
REM
CELL 1.54180   50.00000   50.00000   50.00000   90.00000   90.00000   90.00000
LATT -1
SFAC C  
C      1  0.5523490000000  0.4643150000000  0.4969090000000 1.0
C      1  0.4978440000000  0.4984860000000  0.5012780000000 1.0
C      1  0.4498680000000  0.4835030000000  0.5619220000000 1.0
C      1  0.4827360000000  0.4703110000000  0.6022510000000 1.0
C      1  0.5159620000000  0.5869760000000  0.4333140000000 1.0
C      1  0.5858600000000  0.4823410000000  0.5336020000000 1.0
C      1  0.4418990000000  0.4333530000000  0.4494850000000 1.0
C      1  0.5207880000000  0.4687510000000  0.5540530000000 1.0
C      1  0.4531790000000  0.5537050000000  0.5175870000000 1.0
C      1  0.4436290000000  0.5856320000000  0.4658560000000 1.0
C      1  0.4554970000000  0.5166370000000  0.4423990000000 1.0
C      1  0.4837420000000  0.4319770000000  0.5088200000000 1.0
C      1  0.5509270000000  0.5237450000000  0.4774310000000 1.0
C      1  0.5525070000000  0.5018590000000  0.4597720000000 1.0
C      1  0.4429260000000  0.5168660000000  0.4882020000000 1.0
C      1  0.4521550000000  0.5048830000000  0.4179670000000 1.0
C      1  0.5279790000000  0.4481350000000  0.5365770000000 1.0
C      1  0.4607530000000  0.5447400000000  0.4450690000000 1.0
C      1  0.5376240000000  0.5233420000000  0.4147640000000 1.0
C      1  0.4788970000000  0.5569260000000  0.4276110000000 1.0
C      1  0.5303960000000  0.5868460000000  0.4815780000000 1.0
C      1  0.5247530000000  0.5956240000000  0.4570050000000 1.0
C      1  0.4637820000000  0.4522900000000  0.5943840000000 1.0
C      1  0.5326410000000  0.5645440000000  0.4960440000000 1.0
C      1  0.5649660000000  0.5071050000000  0.5727430000000 1.0
C      1  0.4651880000000  0.4283950000000  0.5275440000000 1.0
C      1  0.4540490000000  0.4538440000000  0.4600570000000 1.0
C      1  0.4697450000000  0.5027000000000  0.5692080000000 1.0
C      1  0.5745680000000  0.4688610000000  0.5135940000000 1.0
C      1  0.4683280000000  0.5289630000000  0.5601450000000 1.0
C      1  0.5153530000000  0.4238710000000  0.4445230000000 1.0
C      1  0.5028540000000  0.4489120000000  0.4927750000000 1.0
C      1  0.4518960000000  0.4365140000000  0.5491720000000 1.0
C      1  0.4504380000000  0.5592250000000  0.4676770000000 1.0
C      1  0.5170510000000  0.4890320000000  0.5732080000000 1.0
C      1  0.5328620000000  0.5366510000000  0.4946470000000 1.0
C      1  0.5052160000000  0.5640310000000  0.4212250000000 1.0
C      1  0.4654640000000  0.4767360000000  0.4712370000000 1.0
C      1  0.4912690000000  0.4912190000000  0.5846470000000 1.0
C      1  0.5347410000000  0.4234040000000  0.5461360000000 1.0
C      1  0.5827520000000  0.4976560000000  0.5552080000000 1.0
C      1  0.5222590000000  0.5446510000000  0.4102700000000 1.0
C      1  0.5528070000000  0.4764500000000  0.4715790000000 1.0
C      1  0.4615980000000  0.5472350000000  0.5420130000000 1.0
C      1  0.5392910000000  0.5046660000000  0.5797960000000 1.0
C      1  0.4471490000000  0.5445420000000  0.4919450000000 1.0
C      1  0.5487360000000  0.5068560000000  0.4325340000000 1.0
C      1  0.5122990000000  0.5205530000000  0.5048040000000 1.0
C      1  0.5285670000000  0.4533790000000  0.5084630000000 1.0
C      1  0.4885900000000  0.4754410000000  0.4880480000000 1.0
C      1  0.5091320000000  0.4355290000000  0.4669690000000 1.0
C      1  0.4532860000000  0.5018860000000  0.4667310000000 1.0
C      1  0.4508540000000  0.4559070000000  0.5692230000000 1.0
END
