TITL C-612605-9286-683 1.26268421878727 125000 -157.648659801801 0 0 28 (C1) n - 1
REM
REM in /home/nfs/bkarasulu/CARBON/AIRSS/Generating-Clusters/TERSOFF/Only-C1/FIRE-HFTN
REM
REM
REM
REM
REM
REM ./C.cell (11c1c37f851c82e70ff6c80c92926a4b)
REM AIRSS Version 0.9.1 bugfix July 2018 build 013d7b7c2542+ Fri, 06 Jul 2018 19:26:36 +0100
REM compiler GCC version 9.2.1 20190827 (Red Hat 9.2.1-1)
REM options -cpp -mtune=generic -march=x86-64 -g -O0 -fpre-include=/usr/include/finclude/math-vector-fortran.h
REM seed -1622102262 1669088997 545139328 -903068546 -947290751 -909836409 467296497 2061615296 -1921748755 -1118096178 -1861177451 1287039744 1042193122 549751988 -470480435 -1661404104 -1915318775 482698421 921358194 25956642 -1922211713 -1341143275 1182537463 1797363416 -2035564413 -342120725 -1944459682 370739783 744694894 921522523 -2113009652 937900374 1617715792
REM
CELL 1.54180   50.00000   50.00000   50.00000   90.00000   90.00000   90.00000
LATT -1
SFAC C  
C      1  0.4023730000000  0.4305840000000  0.3827890000000 1.0
C      1  0.5332360000000  0.5771640000000  0.5156390000000 1.0
C      1  0.5763290000000  0.5407440000000  0.5831340000000 1.0
C      1  0.4086020000000  0.4504540000000  0.4009100000000 1.0
C      1  0.4484190000000  0.4849120000000  0.4538680000000 1.0
C      1  0.5755080000000  0.4721700000000  0.6119500000000 1.0
C      1  0.5126270000000  0.4897590000000  0.5289120000000 1.0
C      1  0.4704370000000  0.4144680000000  0.4223510000000 1.0
C      1  0.4839770000000  0.4996450000000  0.4902650000000 1.0
C      1  0.5357550000000  0.6019230000000  0.5079000000000 1.0
C      1  0.5304310000000  0.4936760000000  0.5485570000000 1.0
C      1  0.5701140000000  0.4925470000000  0.5966270000000 1.0
C      1  0.5132400000000  0.5333420000000  0.5107070000000 1.0
C      1  0.5307700000000  0.5506850000000  0.5241890000000 1.0
C      1  0.4305030000000  0.4763000000000  0.4347220000000 1.0
C      1  0.3937730000000  0.4746470000000  0.4063410000000 1.0
C      1  0.4516680000000  0.4324660000000  0.4206500000000 1.0
C      1  0.3970530000000  0.4114900000000  0.3658690000000 1.0
C      1  0.6124300000000  0.5562930000000  0.6196610000000 1.0
C      1  0.5026560000000  0.5073380000000  0.5093170000000 1.0
C      1  0.4064170000000  0.4895690000000  0.4258620000000 1.0
C      1  0.5645190000000  0.5565140000000  0.5621200000000 1.0
C      1  0.5460840000000  0.5145640000000  0.5582470000000 1.0
C      1  0.5457460000000  0.5413800000000  0.5461890000000 1.0
C      1  0.5645320000000  0.5143200000000  0.5804720000000 1.0
C      1  0.5949000000000  0.5490660000000  0.6017830000000 1.0
C      1  0.4661620000000  0.4923340000000  0.4720780000000 1.0
C      1  0.4317390000000  0.4516460000000  0.4188900000000 1.0
END
