TITL C-612604-1799-192 0.00163922199034256 125000 -938.363670445174 0 0 151 (C1) n - 1
REM
REM in /home/nfs/bkarasulu/CARBON/AIRSS/Generating-Clusters/TERSOFF/Only-C1/FIRE-HFTN
REM
REM
REM
REM
REM
REM ./C.cell (11c1c37f851c82e70ff6c80c92926a4b)
REM AIRSS Version 0.9.1 bugfix July 2018 build 013d7b7c2542+ Fri, 06 Jul 2018 19:26:36 +0100
REM compiler GCC version 9.2.1 20190827 (Red Hat 9.2.1-1)
REM options -cpp -mtune=generic -march=x86-64 -g -O0 -fpre-include=/usr/include/finclude/math-vector-fortran.h
REM seed 686505377 -2089441674 -1342777102 542772228 1458054417 742150459 1043348726 1713640817 1183816114 993068099 -163731366 -1979181719 2114310082 1651120362 -1861943561 348034686 -616017471 1044553936 -1326319184 2035344727 822642674 -2058590663 -569794958 264501241 207340377 -980421298 1016013188 -1660281733 -1117262420 465599097 152747033 -1854311073 -545961795
REM
CELL 1.54180   50.00000   50.00000   50.00000   90.00000   90.00000   90.00000
LATT -1
SFAC C  
C      1  0.4699500000000  0.5036970000000  0.5938160000000 1.0
C      1  0.5104510000000  0.4016510000000  0.4451060000000 1.0
C      1  0.4312680000000  0.4254830000000  0.5607230000000 1.0
C      1  0.5876280000000  0.4404170000000  0.6004220000000 1.0
C      1  0.4797890000000  0.4459080000000  0.5213420000000 1.0
C      1  0.4169250000000  0.4609770000000  0.5287780000000 1.0
C      1  0.6145670000000  0.4500760000000  0.4932600000000 1.0
C      1  0.5525230000000  0.5320340000000  0.5814140000000 1.0
C      1  0.5740790000000  0.5214370000000  0.4917940000000 1.0
C      1  0.4398890000000  0.4422470000000  0.3959690000000 1.0
C      1  0.4584030000000  0.5215350000000  0.5348960000000 1.0
C      1  0.4253240000000  0.4644150000000  0.3914970000000 1.0
C      1  0.4916010000000  0.5548880000000  0.5292270000000 1.0
C      1  0.5219220000000  0.4881550000000  0.5528550000000 1.0
C      1  0.5350270000000  0.5157160000000  0.3729530000000 1.0
C      1  0.4252520000000  0.5720000000000  0.5668260000000 1.0
C      1  0.5080040000000  0.6123420000000  0.4978470000000 1.0
C      1  0.4447420000000  0.4421490000000  0.5794020000000 1.0
C      1  0.5500470000000  0.4866470000000  0.5491910000000 1.0
C      1  0.4288450000000  0.4652420000000  0.5841540000000 1.0
C      1  0.5362770000000  0.5595470000000  0.4191570000000 1.0
C      1  0.4727200000000  0.4437510000000  0.5841080000000 1.0
C      1  0.4928790000000  0.5664540000000  0.5973420000000 1.0
C      1  0.5305030000000  0.5271770000000  0.5099320000000 1.0
C      1  0.5209880000000  0.4928560000000  0.6023570000000 1.0
C      1  0.5476570000000  0.4205540000000  0.5849760000000 1.0
C      1  0.5763880000000  0.4175340000000  0.5897040000000 1.0
C      1  0.5080910000000  0.4627330000000  0.5547200000000 1.0
C      1  0.5317020000000  0.3942520000000  0.4656780000000 1.0
C      1  0.5070250000000  0.5110020000000  0.5628610000000 1.0
C      1  0.6164130000000  0.5133410000000  0.5459170000000 1.0
C      1  0.4261540000000  0.5122300000000  0.4142200000000 1.0
C      1  0.5243810000000  0.3762080000000  0.4896480000000 1.0
C      1  0.6116160000000  0.5761990000000  0.4690710000000 1.0
C      1  0.4627100000000  0.3843350000000  0.4559530000000 1.0
C      1  0.5492760000000  0.4845540000000  0.4104510000000 1.0
C      1  0.5135970000000  0.5501560000000  0.5094820000000 1.0
C      1  0.4980320000000  0.5059420000000  0.5901010000000 1.0
C      1  0.4828180000000  0.5777180000000  0.4302480000000 1.0
C      1  0.4549870000000  0.4446330000000  0.4403600000000 1.0
C      1  0.4434240000000  0.5325480000000  0.4049000000000 1.0
C      1  0.5584450000000  0.5729440000000  0.4614370000000 1.0
C      1  0.4598480000000  0.4350210000000  0.4147240000000 1.0
C      1  0.5581210000000  0.5312510000000  0.5131130000000 1.0
C      1  0.5456880000000  0.5533680000000  0.4447510000000 1.0
C      1  0.4687040000000  0.6013610000000  0.5203260000000 1.0
C      1  0.5038070000000  0.5971820000000  0.4336870000000 1.0
C      1  0.5099690000000  0.4214920000000  0.4225980000000 1.0
C      1  0.4698100000000  0.4320190000000  0.4979740000000 1.0
C      1  0.3925030000000  0.4971810000000  0.4964960000000 1.0
C      1  0.4648970000000  0.4895060000000  0.4589060000000 1.0
C      1  0.3813940000000  0.6066960000000  0.5556260000000 1.0
C      1  0.5733340000000  0.4286900000000  0.4779630000000 1.0
C      1  0.4143010000000  0.4362140000000  0.5421990000000 1.0
C      1  0.4655240000000  0.5434410000000  0.5177990000000 1.0
C      1  0.4700170000000  0.4965360000000  0.5256770000000 1.0
C      1  0.4725470000000  0.6211440000000  0.5618550000000 1.0
C      1  0.4490120000000  0.5294920000000  0.5603240000000 1.0
C      1  0.4663240000000  0.3581780000000  0.4487000000000 1.0
C      1  0.3831590000000  0.4761120000000  0.4828730000000 1.0
C      1  0.4365880000000  0.3942820000000  0.4595110000000 1.0
C      1  0.5950170000000  0.4994180000000  0.5894150000000 1.0
C      1  0.5344720000000  0.4028550000000  0.5669620000000 1.0
C      1  0.5074160000000  0.4404550000000  0.4729270000000 1.0
C      1  0.5485790000000  0.5676070000000  0.5453700000000 1.0
C      1  0.5437670000000  0.4613230000000  0.5073340000000 1.0
C      1  0.5316630000000  0.4402750000000  0.4212460000000 1.0
C      1  0.4889250000000  0.4832910000000  0.3881500000000 1.0
C      1  0.4585590000000  0.6220670000000  0.5379600000000 1.0
C      1  0.5473420000000  0.5068040000000  0.5978980000000 1.0
C      1  0.4934570000000  0.4567550000000  0.3906280000000 1.0
C      1  0.4117770000000  0.5729720000000  0.5415890000000 1.0
C      1  0.4653390000000  0.5768550000000  0.4540360000000 1.0
C      1  0.3908370000000  0.5897280000000  0.5363900000000 1.0
C      1  0.5708860000000  0.4892690000000  0.6006470000000 1.0
C      1  0.5182420000000  0.4655140000000  0.4692040000000 1.0
C      1  0.4856880000000  0.5831000000000  0.5374070000000 1.0
C      1  0.4879620000000  0.5561410000000  0.4106010000000 1.0
C      1  0.4933770000000  0.5437730000000  0.4667630000000 1.0
C      1  0.3931110000000  0.6067670000000  0.5803210000000 1.0
C      1  0.5290830000000  0.4395510000000  0.5177470000000 1.0
C      1  0.4466830000000  0.5077750000000  0.5776000000000 1.0
C      1  0.5153920000000  0.5540170000000  0.4011890000000 1.0
C      1  0.4169200000000  0.4880410000000  0.5401700000000 1.0
C      1  0.5751830000000  0.4962690000000  0.4501560000000 1.0
C      1  0.5286270000000  0.3895040000000  0.5159880000000 1.0
C      1  0.4896600000000  0.5992940000000  0.5613520000000 1.0
C      1  0.5655880000000  0.5445020000000  0.5371920000000 1.0
C      1  0.4159530000000  0.5070550000000  0.5090870000000 1.0
C      1  0.4660010000000  0.5517670000000  0.4684660000000 1.0
C      1  0.4626000000000  0.4694000000000  0.5255810000000 1.0
C      1  0.5334450000000  0.5990360000000  0.4985220000000 1.0
C      1  0.4140740000000  0.5901600000000  0.5859200000000 1.0
C      1  0.4672470000000  0.5627010000000  0.5906130000000 1.0
C      1  0.5493080000000  0.4140420000000  0.4798410000000 1.0
C      1  0.4242000000000  0.5101940000000  0.4421580000000 1.0
C      1  0.4918740000000  0.5005950000000  0.5087270000000 1.0
C      1  0.3856340000000  0.4516520000000  0.4724850000000 1.0
C      1  0.5287440000000  0.3884360000000  0.5444560000000 1.0
C      1  0.4984410000000  0.4549860000000  0.5806590000000 1.0
C      1  0.4870980000000  0.4221080000000  0.4788430000000 1.0
C      1  0.5395300000000  0.5582740000000  0.5736850000000 1.0
C      1  0.4527080000000  0.5421230000000  0.4924010000000 1.0
C      1  0.4142240000000  0.4084920000000  0.4623970000000 1.0
C      1  0.6011970000000  0.5168430000000  0.4977990000000 1.0
C      1  0.5374080000000  0.4152770000000  0.5068560000000 1.0
C      1  0.4490890000000  0.4497960000000  0.4871660000000 1.0
C      1  0.4830980000000  0.5089500000000  0.3937990000000 1.0
C      1  0.5240790000000  0.6039620000000  0.4502690000000 1.0
C      1  0.5088080000000  0.5594870000000  0.4839060000000 1.0
C      1  0.4471380000000  0.5552450000000  0.5722130000000 1.0
C      1  0.4275010000000  0.4887800000000  0.5683590000000 1.0
C      1  0.5185820000000  0.5676070000000  0.5899100000000 1.0
C      1  0.5055720000000  0.4460480000000  0.5322590000000 1.0
C      1  0.5679500000000  0.4612430000000  0.6038190000000 1.0
C      1  0.4714540000000  0.5336540000000  0.4026930000000 1.0
C      1  0.5612200000000  0.5139380000000  0.4670000000000 1.0
C      1  0.5423190000000  0.4473940000000  0.5981380000000 1.0
C      1  0.5715090000000  0.4622710000000  0.5129520000000 1.0
C      1  0.4666630000000  0.5996230000000  0.4714280000000 1.0
C      1  0.5297790000000  0.4789430000000  0.4910900000000 1.0
C      1  0.5300830000000  0.4687620000000  0.4236220000000 1.0
C      1  0.3966980000000  0.4282390000000  0.4661240000000 1.0
C      1  0.4355890000000  0.5187750000000  0.4895550000000 1.0
C      1  0.4413540000000  0.5061320000000  0.4640710000000 1.0
C      1  0.5188000000000  0.5024160000000  0.5024950000000 1.0
C      1  0.5973300000000  0.5155400000000  0.5663400000000 1.0
C      1  0.6172380000000  0.5139880000000  0.5191050000000 1.0
C      1  0.5754580000000  0.4877040000000  0.4238470000000 1.0
C      1  0.5416100000000  0.5938680000000  0.4708500000000 1.0
C      1  0.5723700000000  0.4762400000000  0.5375960000000 1.0
C      1  0.5379150000000  0.5275760000000  0.4554870000000 1.0
C      1  0.5128070000000  0.4777670000000  0.4445830000000 1.0
C      1  0.5005440000000  0.5358010000000  0.5514700000000 1.0
C      1  0.4874090000000  0.4337490000000  0.4071650000000 1.0
C      1  0.5941620000000  0.4917570000000  0.4023690000000 1.0
C      1  0.5518620000000  0.4961350000000  0.3833850000000 1.0
C      1  0.4201100000000  0.4897770000000  0.3983400000000 1.0
C      1  0.5224030000000  0.5386050000000  0.3787080000000 1.0
C      1  0.5188200000000  0.4632980000000  0.5995570000000 1.0
C      1  0.5874710000000  0.4472470000000  0.4947550000000 1.0
C      1  0.4563510000000  0.4616700000000  0.4622580000000 1.0
C      1  0.4929150000000  0.4981090000000  0.4493660000000 1.0
C      1  0.5079360000000  0.5225990000000  0.4551000000000 1.0
C      1  0.5805540000000  0.4961680000000  0.3786830000000 1.0
C      1  0.4384550000000  0.4620600000000  0.5104610000000 1.0
C      1  0.5429070000000  0.5872390000000  0.5240810000000 1.0
C      1  0.5859290000000  0.5733720000000  0.4657020000000 1.0
C      1  0.4850630000000  0.4010730000000  0.4599350000000 1.0
C      1  0.4801490000000  0.6071300000000  0.4952020000000 1.0
C      1  0.5738400000000  0.5303480000000  0.5608570000000 1.0
END
