TITL C-612607-4507-463 -0.0296789030610779 125000 -220.932980442485 0 0 37 (C1) n - 1
REM
REM in /home/nfs/bkarasulu/CARBON/AIRSS/Generating-Clusters/TERSOFF/Only-C1/FIRE-HFTN
REM
REM
REM
REM
REM
REM ./C.cell (11c1c37f851c82e70ff6c80c92926a4b)
REM AIRSS Version 0.9.1 bugfix July 2018 build 013d7b7c2542+ Fri, 06 Jul 2018 19:26:36 +0100
REM compiler GCC version 9.2.1 20190827 (Red Hat 9.2.1-1)
REM options -cpp -mtune=generic -march=x86-64 -g -O0 -fpre-include=/usr/include/finclude/math-vector-fortran.h
REM seed -599549614 -1711231275 -352510075 -1106160409 1603301170 1370275205 -1641945145 779133883 840170070 1025456206 -1084292320 -164889651 1297716410 -2000249596 -1415079331 1611753929 1353272065 -2057813279 -1050134881 1013582311 -969084115 1670677792 -1144538084 1564901061 380694823 787551112 -932760303 1062760639 170508847 -1443403570 -161771901 1048553201 886818758
REM
CELL 1.54180   50.00000   50.00000   50.00000   90.00000   90.00000   90.00000
LATT -1
SFAC C  
C      1  0.5193330000000  0.5298060000000  0.5268030000000 1.0
C      1  0.5101090000000  0.4821490000000  0.4549590000000 1.0
C      1  0.4792140000000  0.4762320000000  0.5466570000000 1.0
C      1  0.5385160000000  0.4264560000000  0.5201270000000 1.0
C      1  0.4743270000000  0.5375110000000  0.5157470000000 1.0
C      1  0.4912630000000  0.5556690000000  0.4999750000000 1.0
C      1  0.4712210000000  0.4627510000000  0.5674770000000 1.0
C      1  0.4474670000000  0.4347490000000  0.4759290000000 1.0
C      1  0.4435740000000  0.4273330000000  0.4486410000000 1.0
C      1  0.4315470000000  0.4574670000000  0.4830710000000 1.0
C      1  0.4930650000000  0.5176460000000  0.5259420000000 1.0
C      1  0.5663000000000  0.5180130000000  0.5494230000000 1.0
C      1  0.5909700000000  0.5277060000000  0.5521420000000 1.0
C      1  0.6068080000000  0.5482020000000  0.5456190000000 1.0
C      1  0.6053350000000  0.5710700000000  0.5318320000000 1.0
C      1  0.4863940000000  0.5549090000000  0.4722440000000 1.0
C      1  0.4898410000000  0.4885920000000  0.4731800000000 1.0
C      1  0.4334390000000  0.4452670000000  0.4306430000000 1.0
C      1  0.4698820000000  0.5074910000000  0.4651780000000 1.0
C      1  0.4330950000000  0.5198470000000  0.4932370000000 1.0
C      1  0.4901370000000  0.4759770000000  0.4989670000000 1.0
C      1  0.4716330000000  0.4318120000000  0.4895990000000 1.0
C      1  0.5179820000000  0.5543750000000  0.5111460000000 1.0
C      1  0.5620510000000  0.5845190000000  0.5091890000000 1.0
C      1  0.4780790000000  0.5335930000000  0.4579040000000 1.0
C      1  0.4294830000000  0.4794930000000  0.4648690000000 1.0
C      1  0.5608330000000  0.4179790000000  0.5306000000000 1.0
C      1  0.5290520000000  0.4753050000000  0.4384240000000 1.0
C      1  0.5159490000000  0.4355430000000  0.5096410000000 1.0
C      1  0.5414870000000  0.5197590000000  0.5400730000000 1.0
C      1  0.4470100000000  0.5335950000000  0.5117100000000 1.0
C      1  0.4877410000000  0.4900180000000  0.5238480000000 1.0
C      1  0.4423910000000  0.5033260000000  0.4723610000000 1.0
C      1  0.5873000000000  0.5847960000000  0.5176950000000 1.0
C      1  0.5381380000000  0.5730380000000  0.5075680000000 1.0
C      1  0.4927650000000  0.4473620000000  0.4996570000000 1.0
C      1  0.4262710000000  0.4706420000000  0.4379220000000 1.0
END
