TITL C-612601-4209-365 19.2281521347239 125000 -300.931886498863 0 0 52 (C1) n - 1
REM
REM in /home/nfs/bkarasulu/CARBON/AIRSS/Generating-Clusters/TERSOFF/Only-C1/FIRE-HFTN
REM
REM
REM
REM
REM
REM ./C.cell (11c1c37f851c82e70ff6c80c92926a4b)
REM AIRSS Version 0.9.1 bugfix July 2018 build 013d7b7c2542+ Fri, 06 Jul 2018 19:26:36 +0100
REM compiler GCC version 9.2.1 20190827 (Red Hat 9.2.1-1)
REM options -cpp -mtune=generic -march=x86-64 -g -O0 -fpre-include=/usr/include/finclude/math-vector-fortran.h
REM seed -2031886851 -1529277550 -1738861049 2141874186 1534184925 -1914653979 1179662873 -588124040 -906897067 -1033898151 53949456 559660673 421946533 -237047381 1022330144 -2129024070 -653725158 -2001045018 -1567879891 -2011873771 -738811157 -41521200 -1389943801 125344797 2062858634 -1121401800 -1731750313 -1221614506 -120576302 -1782878624 1124022213 1546752093 -473786376
REM
CELL 1.54180   50.00000   50.00000   50.00000   90.00000   90.00000   90.00000
LATT -1
SFAC C  
C      1  0.4605260000000  0.4167890000000  0.4476540000000 1.0
C      1  0.5064080000000  0.6636950000000  0.5456450000000 1.0
C      1  0.5101760000000  0.4506240000000  0.4974180000000 1.0
C      1  0.5104680000000  0.4958040000000  0.4434640000000 1.0
C      1  0.5501240000000  0.5225220000000  0.5197960000000 1.0
C      1  0.5376260000000  0.6006660000000  0.5295920000000 1.0
C      1  0.5426280000000  0.5735640000000  0.5313080000000 1.0
C      1  0.5224020000000  0.5468840000000  0.4417040000000 1.0
C      1  0.4815190000000  0.3857000000000  0.5152590000000 1.0
C      1  0.4829720000000  0.4856060000000  0.5213680000000 1.0
C      1  0.4768760000000  0.3532040000000  0.5586820000000 1.0
C      1  0.4901910000000  0.4595090000000  0.5161320000000 1.0
C      1  0.5179840000000  0.6126040000000  0.4849390000000 1.0
C      1  0.4792680000000  0.3690540000000  0.5375970000000 1.0
C      1  0.4802620000000  0.3970030000000  0.4441900000000 1.0
C      1  0.4929350000000  0.4113800000000  0.5181360000000 1.0
C      1  0.5263970000000  0.4306270000000  0.4577610000000 1.0
C      1  0.5007330000000  0.4042230000000  0.4255540000000 1.0
C      1  0.5310330000000  0.6192770000000  0.5508810000000 1.0
C      1  0.5465530000000  0.5476590000000  0.5274030000000 1.0
C      1  0.4808330000000  0.5322410000000  0.4999690000000 1.0
C      1  0.4727210000000  0.3761170000000  0.4895580000000 1.0
C      1  0.5542160000000  0.4984330000000  0.5107160000000 1.0
C      1  0.4492850000000  0.3622300000000  0.4869950000000 1.0
C      1  0.4589330000000  0.6712290000000  0.5381540000000 1.0
C      1  0.5152130000000  0.4215820000000  0.5023750000000 1.0
C      1  0.5145030000000  0.4547280000000  0.4691980000000 1.0
C      1  0.4760050000000  0.5305800000000  0.5453980000000 1.0
C      1  0.4942790000000  0.6273340000000  0.4891810000000 1.0
C      1  0.5212030000000  0.5943040000000  0.4643240000000 1.0
C      1  0.4595490000000  0.4433310000000  0.4506390000000 1.0
C      1  0.5210380000000  0.4212810000000  0.4316300000000 1.0
C      1  0.4987120000000  0.4730640000000  0.4546160000000 1.0
C      1  0.4832300000000  0.6443710000000  0.5065950000000 1.0
C      1  0.5282840000000  0.6465840000000  0.5410180000000 1.0
C      1  0.5402420000000  0.6442670000000  0.5145750000000 1.0
C      1  0.4535420000000  0.4908220000000  0.4537180000000 1.0
C      1  0.4745420000000  0.5573020000000  0.5372290000000 1.0
C      1  0.5080610000000  0.6836160000000  0.5643310000000 1.0
C      1  0.5183170000000  0.5207900000000  0.4394260000000 1.0
C      1  0.5230550000000  0.5720110000000  0.4501220000000 1.0
C      1  0.5266620000000  0.4099720000000  0.4788150000000 1.0
C      1  0.4703500000000  0.4691950000000  0.4528390000000 1.0
C      1  0.4800980000000  0.5130010000000  0.5221970000000 1.0
C      1  0.4774770000000  0.5583120000000  0.5095430000000 1.0
C      1  0.4744160000000  0.3373180000000  0.5797570000000 1.0
C      1  0.5376490000000  0.6168300000000  0.5049170000000 1.0
C      1  0.4719960000000  0.3216930000000  0.6004850000000 1.0
C      1  0.4890870000000  0.3815850000000  0.4668640000000 1.0
C      1  0.4798180000000  0.4352670000000  0.5281110000000 1.0
C      1  0.4825610000000  0.6599410000000  0.5300820000000 1.0
C      1  0.5170350000000  0.3842780000000  0.4721410000000 1.0
END
