TITL C-612601-4209-80 10.1501750210241 125000 -328.894277238497 0 0 56 (C1) n - 1
REM
REM in /home/nfs/bkarasulu/CARBON/AIRSS/Generating-Clusters/TERSOFF/Only-C1/FIRE-HFTN
REM
REM
REM
REM
REM
REM ./C.cell (11c1c37f851c82e70ff6c80c92926a4b)
REM AIRSS Version 0.9.1 bugfix July 2018 build 013d7b7c2542+ Fri, 06 Jul 2018 19:26:36 +0100
REM compiler GCC version 9.2.1 20190827 (Red Hat 9.2.1-1)
REM options -cpp -mtune=generic -march=x86-64 -g -O0 -fpre-include=/usr/include/finclude/math-vector-fortran.h
REM seed -1016328727 95652914 1358865323 -253853318 1441593201 1510956376 -66774020 -1320113892 2058127221 -833229740 -1699662983 -988331487 1377297707 2061833690 1671011488 232062208 -169852552 -1401813953 1868006288 -1701021435 663950070 -1542551550 1667550333 318799326 764044207 1522515613 -722562482 430293399 1518296663 -1352129744 1426820488 -1561573818 919071081
REM
CELL 1.54180   50.00000   50.00000   50.00000   90.00000   90.00000   90.00000
LATT -1
SFAC C  
C      1  0.4747070000000  0.4415540000000  0.5403100000000 1.0
C      1  0.4650540000000  0.5219910000000  0.5258860000000 1.0
C      1  0.5268390000000  0.5161720000000  0.5845450000000 1.0
C      1  0.4516590000000  0.4447980000000  0.5245240000000 1.0
C      1  0.4336890000000  0.4877760000000  0.5044290000000 1.0
C      1  0.5232280000000  0.5428030000000  0.4896800000000 1.0
C      1  0.4366670000000  0.4619500000000  0.5106160000000 1.0
C      1  0.4803570000000  0.4617270000000  0.5592270000000 1.0
C      1  0.5145730000000  0.4114700000000  0.5206040000000 1.0
C      1  0.5052660000000  0.4984110000000  0.5811190000000 1.0
C      1  0.4890750000000  0.4682050000000  0.4427730000000 1.0
C      1  0.5628270000000  0.4193000000000  0.5773410000000 1.0
C      1  0.4677710000000  0.6213760000000  0.4231340000000 1.0
C      1  0.5463270000000  0.5364990000000  0.5013620000000 1.0
C      1  0.5303970000000  0.4646660000000  0.5314120000000 1.0
C      1  0.5550000000000  0.4256430000000  0.4967010000000 1.0
C      1  0.3875770000000  0.5707700000000  0.4604440000000 1.0
C      1  0.5771390000000  0.4731060000000  0.4948220000000 1.0
C      1  0.5213450000000  0.5504690000000  0.5510950000000 1.0
C      1  0.5609990000000  0.5185660000000  0.5170710000000 1.0
C      1  0.4844970000000  0.4889840000000  0.5648140000000 1.0
C      1  0.4534830000000  0.5437190000000  0.3905410000000 1.0
C      1  0.4633690000000  0.5269120000000  0.4078340000000 1.0
C      1  0.5156230000000  0.4730890000000  0.5109740000000 1.0
C      1  0.4444530000000  0.5116620000000  0.5098860000000 1.0
C      1  0.4919860000000  0.4870740000000  0.4644810000000 1.0
C      1  0.4703650000000  0.5080450000000  0.5497730000000 1.0
C      1  0.4937840000000  0.4222070000000  0.5333270000000 1.0
C      1  0.4839660000000  0.5414030000000  0.5173240000000 1.0
C      1  0.5573170000000  0.4417610000000  0.5653310000000 1.0
C      1  0.5029970000000  0.4813740000000  0.4891860000000 1.0
C      1  0.5558550000000  0.5149060000000  0.5450930000000 1.0
C      1  0.4621600000000  0.5572890000000  0.4592030000000 1.0
C      1  0.5694060000000  0.4476780000000  0.4926280000000 1.0
C      1  0.4247660000000  0.5967080000000  0.4418750000000 1.0
C      1  0.4973760000000  0.5900510000000  0.4371640000000 1.0
C      1  0.4734120000000  0.5084810000000  0.4257840000000 1.0
C      1  0.5374140000000  0.4055200000000  0.5053660000000 1.0
C      1  0.4946250000000  0.6143140000000  0.4239040000000 1.0
C      1  0.5530590000000  0.3288410000000  0.4864040000000 1.0
C      1  0.5428100000000  0.3789050000000  0.4987140000000 1.0
C      1  0.4952040000000  0.5411400000000  0.4910900000000 1.0
C      1  0.5479750000000  0.3536710000000  0.4925090000000 1.0
C      1  0.4714040000000  0.5803230000000  0.4456690000000 1.0
C      1  0.4784220000000  0.4805390000000  0.4205050000000 1.0
C      1  0.4990870000000  0.5549590000000  0.5369250000000 1.0
C      1  0.4518310000000  0.6011640000000  0.4363330000000 1.0
C      1  0.4796280000000  0.5368470000000  0.4678760000000 1.0
C      1  0.4140780000000  0.5742840000000  0.4554940000000 1.0
C      1  0.4341630000000  0.5559430000000  0.4633460000000 1.0
C      1  0.5378030000000  0.5210720000000  0.6090670000000 1.0
C      1  0.4816610000000  0.5125250000000  0.4537500000000 1.0
C      1  0.5630390000000  0.4893930000000  0.5552320000000 1.0
C      1  0.5753030000000  0.4982440000000  0.5035990000000 1.0
C      1  0.5504780000000  0.4645760000000  0.5510270000000 1.0
C      1  0.5367070000000  0.5291470000000  0.5608790000000 1.0
END
