TITL C-612603-7354-733 0.427261724944954 125000 -831.011437633009 0 0 137 (C1) n - 1
REM
REM in /home/nfs/bkarasulu/CARBON/AIRSS/Generating-Clusters/TERSOFF/Only-C1/FIRE-HFTN
REM
REM
REM
REM
REM
REM ./C.cell (11c1c37f851c82e70ff6c80c92926a4b)
REM AIRSS Version 0.9.1 bugfix July 2018 build 013d7b7c2542+ Fri, 06 Jul 2018 19:26:36 +0100
REM compiler GCC version 9.2.1 20190827 (Red Hat 9.2.1-1)
REM options -cpp -mtune=generic -march=x86-64 -g -O0 -fpre-include=/usr/include/finclude/math-vector-fortran.h
REM seed 407307797 484164065 102257323 -1578714186 -1658034476 -1133575611 -1917891881 284416512 1351831381 527963854 701129852 -940041255 -1074848927 179119046 -1946204345 1796076703 1670666331 1566266475 -882172762 743870898 -325450871 163323171 -1743428259 1802019327 1492368404 -1001719558 -579118199 1899479670 20673976 1850984992 -183211621 1601963509 -1673334703
REM
CELL 1.54180   50.00000   50.00000   50.00000   90.00000   90.00000   90.00000
LATT -1
SFAC C  
C      1  0.5452330000000  0.4465610000000  0.4943790000000 1.0
C      1  0.5270600000000  0.5696870000000  0.5534900000000 1.0
C      1  0.4860750000000  0.6247190000000  0.4850730000000 1.0
C      1  0.5894210000000  0.5426310000000  0.4585360000000 1.0
C      1  0.4869570000000  0.4777950000000  0.5475790000000 1.0
C      1  0.3953790000000  0.5176780000000  0.5213400000000 1.0
C      1  0.5953210000000  0.4203500000000  0.4895210000000 1.0
C      1  0.5801200000000  0.4818480000000  0.5666180000000 1.0
C      1  0.4384640000000  0.4975700000000  0.4315720000000 1.0
C      1  0.4704890000000  0.5425190000000  0.5237350000000 1.0
C      1  0.4587380000000  0.5595760000000  0.6232900000000 1.0
C      1  0.4985520000000  0.4624670000000  0.4672800000000 1.0
C      1  0.4452880000000  0.3927470000000  0.4748380000000 1.0
C      1  0.5790970000000  0.5036480000000  0.4282650000000 1.0
C      1  0.4561920000000  0.4537430000000  0.4901730000000 1.0
C      1  0.5038590000000  0.5556240000000  0.3881320000000 1.0
C      1  0.5335590000000  0.5569690000000  0.4243150000000 1.0
C      1  0.4345280000000  0.4077740000000  0.5248690000000 1.0
C      1  0.4571730000000  0.5954550000000  0.4507810000000 1.0
C      1  0.3757140000000  0.4985240000000  0.5173730000000 1.0
C      1  0.5069010000000  0.4240100000000  0.5555170000000 1.0
C      1  0.5634050000000  0.5167420000000  0.5185050000000 1.0
C      1  0.5667500000000  0.5799000000000  0.4730860000000 1.0
C      1  0.5323400000000  0.4303930000000  0.4492700000000 1.0
C      1  0.4979650000000  0.5412830000000  0.5237820000000 1.0
C      1  0.4606880000000  0.5425560000000  0.4420830000000 1.0
C      1  0.5015160000000  0.6112810000000  0.5061480000000 1.0
C      1  0.5229990000000  0.5339040000000  0.4378410000000 1.0
C      1  0.5551930000000  0.4883040000000  0.4365780000000 1.0
C      1  0.4963410000000  0.4087940000000  0.4300410000000 1.0
C      1  0.4227110000000  0.4932210000000  0.4568750000000 1.0
C      1  0.4725140000000  0.4525130000000  0.5434280000000 1.0
C      1  0.4801770000000  0.4932950000000  0.6112270000000 1.0
C      1  0.4779420000000  0.4459970000000  0.5948590000000 1.0
C      1  0.5701340000000  0.4625870000000  0.4947000000000 1.0
C      1  0.5764740000000  0.5672920000000  0.4982020000000 1.0
C      1  0.5196520000000  0.5283510000000  0.5981170000000 1.0
C      1  0.4801280000000  0.4930890000000  0.5249820000000 1.0
C      1  0.5500110000000  0.5291360000000  0.5962530000000 1.0
C      1  0.4062260000000  0.5311470000000  0.4972120000000 1.0
C      1  0.4830630000000  0.5134440000000  0.4089300000000 1.0
C      1  0.5003630000000  0.4932790000000  0.5058400000000 1.0
C      1  0.4502020000000  0.5131700000000  0.4918800000000 1.0
C      1  0.5009520000000  0.5508800000000  0.5896500000000 1.0
C      1  0.5734000000000  0.5536440000000  0.5615150000000 1.0
C      1  0.4981130000000  0.4903710000000  0.4195240000000 1.0
C      1  0.5127640000000  0.3923620000000  0.4743840000000 1.0
C      1  0.4166830000000  0.5222250000000  0.5414820000000 1.0
C      1  0.5330000000000  0.5143330000000  0.3971120000000 1.0
C      1  0.4886200000000  0.4309590000000  0.5343690000000 1.0
C      1  0.4539730000000  0.5645700000000  0.4848470000000 1.0
C      1  0.5738000000000  0.5283320000000  0.4769540000000 1.0
C      1  0.5440780000000  0.5251000000000  0.5381910000000 1.0
C      1  0.4438610000000  0.4531440000000  0.5454780000000 1.0
C      1  0.5751120000000  0.5651210000000  0.4476300000000 1.0
C      1  0.6109120000000  0.4915910000000  0.4751530000000 1.0
C      1  0.5250100000000  0.5368180000000  0.4821420000000 1.0
C      1  0.5339510000000  0.4565630000000  0.5906550000000 1.0
C      1  0.5097290000000  0.4878220000000  0.5616490000000 1.0
C      1  0.5065800000000  0.5397990000000  0.4604510000000 1.0
C      1  0.5009760000000  0.5681750000000  0.5651810000000 1.0
C      1  0.4814330000000  0.5941360000000  0.5208890000000 1.0
C      1  0.5070520000000  0.5016460000000  0.6048320000000 1.0
C      1  0.5182250000000  0.5708680000000  0.4053540000000 1.0
C      1  0.4802380000000  0.5565780000000  0.6081060000000 1.0
C      1  0.5166570000000  0.4057950000000  0.4502610000000 1.0
C      1  0.4684480000000  0.4094980000000  0.4364090000000 1.0
C      1  0.4814490000000  0.4442930000000  0.4868010000000 1.0
C      1  0.5236710000000  0.4877210000000  0.4063490000000 1.0
C      1  0.4560920000000  0.5583520000000  0.5429820000000 1.0
C      1  0.4154530000000  0.4650740000000  0.4652100000000 1.0
C      1  0.5964110000000  0.5048820000000  0.5597780000000 1.0
C      1  0.4003590000000  0.4641710000000  0.4913830000000 1.0
C      1  0.4907320000000  0.4251440000000  0.5064540000000 1.0
C      1  0.5277600000000  0.6051160000000  0.4977580000000 1.0
C      1  0.5746520000000  0.4901020000000  0.5070110000000 1.0
C      1  0.4370570000000  0.5613290000000  0.6376580000000 1.0
C      1  0.4349210000000  0.5002050000000  0.5418110000000 1.0
C      1  0.5017740000000  0.4010190000000  0.4972520000000 1.0
C      1  0.5470790000000  0.5203640000000  0.4729430000000 1.0
C      1  0.5348050000000  0.4300270000000  0.5492700000000 1.0
C      1  0.5752650000000  0.5391420000000  0.5035690000000 1.0
C      1  0.5390530000000  0.4430880000000  0.5230960000000 1.0
C      1  0.5408800000000  0.4695980000000  0.4197790000000 1.0
C      1  0.4830800000000  0.4427100000000  0.4002660000000 1.0
C      1  0.4180710000000  0.4838040000000  0.6038470000000 1.0
C      1  0.4227720000000  0.5130600000000  0.4792180000000 1.0
C      1  0.4157760000000  0.5563360000000  0.5104290000000 1.0
C      1  0.5545420000000  0.4934910000000  0.5698890000000 1.0
C      1  0.4269760000000  0.4358100000000  0.5304070000000 1.0
C      1  0.6142060000000  0.4628330000000  0.4752550000000 1.0
C      1  0.5389940000000  0.5101930000000  0.4475540000000 1.0
C      1  0.5482850000000  0.5521510000000  0.5481920000000 1.0
C      1  0.4650090000000  0.4716080000000  0.5992970000000 1.0
C      1  0.4250000000000  0.4346480000000  0.4613280000000 1.0
C      1  0.4725490000000  0.5074090000000  0.4725640000000 1.0
C      1  0.4614590000000  0.5890340000000  0.4981410000000 1.0
C      1  0.4646000000000  0.6084720000000  0.4755320000000 1.0
C      1  0.4573660000000  0.5410380000000  0.4991760000000 1.0
C      1  0.4444780000000  0.4727180000000  0.4181180000000 1.0
C      1  0.4354810000000  0.4771980000000  0.5590080000000 1.0
C      1  0.4531600000000  0.4994450000000  0.5190640000000 1.0
C      1  0.4462270000000  0.4132930000000  0.4536470000000 1.0
C      1  0.5177230000000  0.5457770000000  0.5068390000000 1.0
C      1  0.4392520000000  0.4777070000000  0.5875150000000 1.0
C      1  0.4680600000000  0.4575450000000  0.4196070000000 1.0
C      1  0.5329900000000  0.5051890000000  0.5552530000000 1.0
C      1  0.4277260000000  0.5504690000000  0.5377730000000 1.0
C      1  0.5502430000000  0.4421500000000  0.5713170000000 1.0
C      1  0.4138290000000  0.4220230000000  0.4870200000000 1.0
C      1  0.4299340000000  0.3997570000000  0.4975770000000 1.0
C      1  0.4567990000000  0.5204750000000  0.4228940000000 1.0
C      1  0.5767800000000  0.4535130000000  0.5675700000000 1.0
C      1  0.5620700000000  0.5540650000000  0.4234500000000 1.0
C      1  0.4775800000000  0.5788350000000  0.5479830000000 1.0
C      1  0.5934140000000  0.4473840000000  0.4863680000000 1.0
C      1  0.5363940000000  0.4705120000000  0.5295960000000 1.0
C      1  0.5274440000000  0.4483800000000  0.4711500000000 1.0
C      1  0.5791320000000  0.5308870000000  0.5771640000000 1.0
C      1  0.5645690000000  0.5258450000000  0.4111740000000 1.0
C      1  0.3779440000000  0.4782310000000  0.5000340000000 1.0
C      1  0.6039840000000  0.4977480000000  0.5047170000000 1.0
C      1  0.4883300000000  0.4693330000000  0.4372420000000 1.0
C      1  0.5456120000000  0.5978710000000  0.4788330000000 1.0
C      1  0.5047780000000  0.5277540000000  0.3927840000000 1.0
C      1  0.4807660000000  0.5306920000000  0.4589680000000 1.0
C      1  0.5259380000000  0.4890170000000  0.5137570000000 1.0
C      1  0.6101680000000  0.5049040000000  0.5333850000000 1.0
C      1  0.4926740000000  0.4894300000000  0.4798170000000 1.0
C      1  0.4545990000000  0.6078300000000  0.4266980000000 1.0
C      1  0.4943280000000  0.4285540000000  0.5814270000000 1.0
C      1  0.4528870000000  0.5669060000000  0.4553370000000 1.0
C      1  0.6010740000000  0.5009590000000  0.4483070000000 1.0
C      1  0.5168160000000  0.4791430000000  0.5887730000000 1.0
C      1  0.5307020000000  0.4427030000000  0.4225450000000 1.0
C      1  0.5059720000000  0.4292020000000  0.4108070000000 1.0
C      1  0.4095630000000  0.4424270000000  0.5075440000000 1.0
END
