TITL C-612602-9376-1357 8.12015452698481e-05 125000 -666.305879845007 0 0 109 (C1) n - 1
REM
REM in /home/nfs/bkarasulu/CARBON/AIRSS/Generating-Clusters/TERSOFF/Only-C1/FIRE-HFTN
REM
REM
REM
REM
REM
REM ./C.cell (11c1c37f851c82e70ff6c80c92926a4b)
REM AIRSS Version 0.9.1 bugfix July 2018 build 013d7b7c2542+ Fri, 06 Jul 2018 19:26:36 +0100
REM compiler GCC version 9.2.1 20190827 (Red Hat 9.2.1-1)
REM options -cpp -mtune=generic -march=x86-64 -g -O0 -fpre-include=/usr/include/finclude/math-vector-fortran.h
REM seed 1503375341 -1431215513 -1035708276 176676116 -589519593 -1163982143 1185103087 -1863323927 1737200136 779806916 942923388 1632383230 885801675 1658095917 382004375 -114830823 1092035119 -772288788 450788960 1615727757 -506994376 -1855945126 -969528252 -1336715006 239435658 947323372 -1887352362 -1604023640 -335297015 -1826116326 -947498485 1590241970 115133099
REM
CELL 1.54180   50.00000   50.00000   50.00000   90.00000   90.00000   90.00000
LATT -1
SFAC C  
C      1  0.5550070000000  0.4394060000000  0.5059720000000 1.0
C      1  0.4598800000000  0.4868460000000  0.4149290000000 1.0
C      1  0.5308120000000  0.4795880000000  0.5013480000000 1.0
C      1  0.4014320000000  0.4967670000000  0.4609640000000 1.0
C      1  0.5642070000000  0.5264760000000  0.4360620000000 1.0
C      1  0.4637400000000  0.5284710000000  0.3933360000000 1.0
C      1  0.5421140000000  0.4734680000000  0.4752490000000 1.0
C      1  0.4571530000000  0.5424740000000  0.4395880000000 1.0
C      1  0.5342050000000  0.5307440000000  0.6031210000000 1.0
C      1  0.5754050000000  0.5373740000000  0.5335470000000 1.0
C      1  0.4341960000000  0.3956360000000  0.5488740000000 1.0
C      1  0.3754440000000  0.5074190000000  0.5556280000000 1.0
C      1  0.5181570000000  0.5434080000000  0.5086300000000 1.0
C      1  0.4772670000000  0.5027930000000  0.3975400000000 1.0
C      1  0.5727760000000  0.4515600000000  0.5290710000000 1.0
C      1  0.5011810000000  0.6146110000000  0.5332230000000 1.0
C      1  0.5529420000000  0.5090980000000  0.4166620000000 1.0
C      1  0.4458150000000  0.4740100000000  0.5584730000000 1.0
C      1  0.4590850000000  0.5326200000000  0.5358270000000 1.0
C      1  0.5909160000000  0.5834070000000  0.5373670000000 1.0
C      1  0.5632110000000  0.5147120000000  0.5263600000000 1.0
C      1  0.4324740000000  0.4647550000000  0.4436120000000 1.0
C      1  0.5264510000000  0.4701630000000  0.4526370000000 1.0
C      1  0.6130310000000  0.5245240000000  0.4949500000000 1.0
C      1  0.6032740000000  0.4794910000000  0.4414620000000 1.0
C      1  0.5215410000000  0.5470870000000  0.5842340000000 1.0
C      1  0.5437540000000  0.5712260000000  0.5419680000000 1.0
C      1  0.5969370000000  0.5171130000000  0.4727710000000 1.0
C      1  0.3770380000000  0.5016220000000  0.5293560000000 1.0
C      1  0.5054710000000  0.5022760000000  0.3968760000000 1.0
C      1  0.5201410000000  0.4882840000000  0.5586540000000 1.0
C      1  0.5492590000000  0.4126000000000  0.4948070000000 1.0
C      1  0.4174100000000  0.5303670000000  0.5627850000000 1.0
C      1  0.5326640000000  0.4066030000000  0.4742400000000 1.0
C      1  0.4137230000000  0.4381050000000  0.5355120000000 1.0
C      1  0.5150980000000  0.4172500000000  0.4547300000000 1.0
C      1  0.5746370000000  0.6088450000000  0.4695340000000 1.0
C      1  0.4146780000000  0.5494940000000  0.4956460000000 1.0
C      1  0.5153470000000  0.4938130000000  0.4420060000000 1.0
C      1  0.5252190000000  0.5502180000000  0.5353130000000 1.0
C      1  0.5025670000000  0.5106820000000  0.5543700000000 1.0
C      1  0.5146260000000  0.5362160000000  0.5582830000000 1.0
C      1  0.4229540000000  0.4597680000000  0.5507950000000 1.0
C      1  0.4704750000000  0.5530900000000  0.5194140000000 1.0
C      1  0.4173770000000  0.4893520000000  0.4392030000000 1.0
C      1  0.4415770000000  0.4254000000000  0.4977200000000 1.0
C      1  0.4714310000000  0.4685050000000  0.5160540000000 1.0
C      1  0.4575750000000  0.3999900000000  0.5359000000000 1.0
C      1  0.5710020000000  0.5648670000000  0.5377180000000 1.0
C      1  0.4756610000000  0.5097370000000  0.5435910000000 1.0
C      1  0.4925130000000  0.4026060000000  0.4454170000000 1.0
C      1  0.4514060000000  0.4776180000000  0.5856160000000 1.0
C      1  0.5722570000000  0.5610670000000  0.4682930000000 1.0
C      1  0.5459060000000  0.4771820000000  0.5659370000000 1.0
C      1  0.4130190000000  0.4125060000000  0.5476050000000 1.0
C      1  0.4668750000000  0.5459900000000  0.3729140000000 1.0
C      1  0.6125060000000  0.4863490000000  0.5267660000000 1.0
C      1  0.5714680000000  0.4910670000000  0.4052760000000 1.0
C      1  0.5349130000000  0.5371940000000  0.4882310000000 1.0
C      1  0.5251300000000  0.5030790000000  0.4170710000000 1.0
C      1  0.5332740000000  0.5892910000000  0.5616130000000 1.0
C      1  0.5319390000000  0.5891610000000  0.4785660000000 1.0
C      1  0.4424270000000  0.5606250000000  0.4546570000000 1.0
C      1  0.5190800000000  0.4438400000000  0.4460330000000 1.0
C      1  0.4909090000000  0.5436110000000  0.5029150000000 1.0
C      1  0.4914110000000  0.5034310000000  0.4537910000000 1.0
C      1  0.3968070000000  0.5062750000000  0.5096970000000 1.0
C      1  0.5251320000000  0.5752850000000  0.5848950000000 1.0
C      1  0.4640220000000  0.4840350000000  0.5388200000000 1.0
C      1  0.4457100000000  0.5305450000000  0.4162070000000 1.0
C      1  0.4186420000000  0.4399800000000  0.5071490000000 1.0
C      1  0.5196300000000  0.6119840000000  0.5525370000000 1.0
C      1  0.4307010000000  0.5309040000000  0.5379130000000 1.0
C      1  0.4740610000000  0.4820430000000  0.4618940000000 1.0
C      1  0.4477100000000  0.4166910000000  0.4718810000000 1.0
C      1  0.4668990000000  0.4088460000000  0.4551270000000 1.0
C      1  0.5646720000000  0.4569150000000  0.4820510000000 1.0
C      1  0.4623390000000  0.4207910000000  0.5173930000000 1.0
C      1  0.5506690000000  0.5097060000000  0.6044020000000 1.0
C      1  0.5927500000000  0.4793030000000  0.4168120000000 1.0
C      1  0.5438330000000  0.4995060000000  0.5160490000000 1.0
C      1  0.4911480000000  0.5977080000000  0.5129020000000 1.0
C      1  0.5183890000000  0.4243170000000  0.5494770000000 1.0
C      1  0.5574450000000  0.4890560000000  0.5887270000000 1.0
C      1  0.4251740000000  0.5621430000000  0.4748120000000 1.0
C      1  0.4346300000000  0.5038710000000  0.4207050000000 1.0
C      1  0.4604880000000  0.4700480000000  0.4395170000000 1.0
C      1  0.5575430000000  0.4533930000000  0.5541840000000 1.0
C      1  0.5080060000000  0.4385240000000  0.5273000000000 1.0
C      1  0.4679840000000  0.5816070000000  0.5194110000000 1.0
C      1  0.5594390000000  0.5861070000000  0.4721160000000 1.0
C      1  0.4063080000000  0.4611670000000  0.4935040000000 1.0
C      1  0.4144290000000  0.5285580000000  0.5141830000000 1.0
C      1  0.3936820000000  0.5203650000000  0.5707360000000 1.0
C      1  0.5980600000000  0.4885900000000  0.4675670000000 1.0
C      1  0.4698460000000  0.4771030000000  0.4892280000000 1.0
C      1  0.5083640000000  0.5939170000000  0.4906130000000 1.0
C      1  0.4003830000000  0.4882630000000  0.4879710000000 1.0
C      1  0.5274690000000  0.4528870000000  0.5127340000000 1.0
C      1  0.5786790000000  0.5349970000000  0.4589650000000 1.0
C      1  0.5893620000000  0.4699410000000  0.4875080000000 1.0
C      1  0.4808980000000  0.4418090000000  0.5209180000000 1.0
C      1  0.5942070000000  0.4676350000000  0.5164000000000 1.0
C      1  0.4444340000000  0.5938270000000  0.5262130000000 1.0
C      1  0.4958070000000  0.3826500000000  0.4269770000000 1.0
C      1  0.6203530000000  0.5102590000000  0.5167840000000 1.0
C      1  0.5425340000000  0.4298530000000  0.5606400000000 1.0
C      1  0.4799310000000  0.5290230000000  0.4501550000000 1.0
C      1  0.4580600000000  0.4826250000000  0.6103100000000 1.0
END
