TITL C-612600-6631-347 326.660121745544 125000 -1016.02189472777 0 0 167 (C1) n - 1
REM
REM in /home/nfs/bkarasulu/CARBON/AIRSS/Generating-Clusters/TERSOFF/Only-C1/FIRE-HFTN
REM
REM
REM
REM
REM
REM ./C.cell (11c1c37f851c82e70ff6c80c92926a4b)
REM AIRSS Version 0.9.1 bugfix July 2018 build 013d7b7c2542+ Fri, 06 Jul 2018 19:26:36 +0100
REM compiler GCC version 9.2.1 20190827 (Red Hat 9.2.1-1)
REM options -cpp -mtune=generic -march=x86-64 -g -O0 -fpre-include=/usr/include/finclude/math-vector-fortran.h
REM seed 1234308318 -1051761974 738205347 1365082918 -606024889 1822271772 -2145823871 494277145 1180222111 1294947399 -297236757 833071093 -1817482982 -867478265 512645058 -1867135126 -1650706967 -1623859456 1566594917 1884273174 -1702554387 -824655596 -469586055 -560525336 -1188985169 -436624039 -457729893 958620290 1645496047 1431141761 -524388356 -119270504 1891354030
REM
CELL 1.54180   50.00000   50.00000   50.00000   90.00000   90.00000   90.00000
LATT -1
SFAC C  
C      1  0.4130660000000  0.4944810000000  0.4263420000000 1.0
C      1  0.5248610000000  0.4231120000000  0.6021940000000 1.0
C      1  0.4356200000000  0.5454930000000  0.6016810000000 1.0
C      1  0.5168470000000  0.4120240000000  0.4406600000000 1.0
C      1  0.4938470000000  0.4490340000000  0.6272500000000 1.0
C      1  0.4602690000000  0.4316090000000  0.4151090000000 1.0
C      1  0.4811790000000  0.3968940000000  0.5031740000000 1.0
C      1  0.4732870000000  0.4659960000000  0.5090780000000 1.0
C      1  0.5614340000000  0.5238680000000  0.5170480000000 1.0
C      1  0.5129490000000  0.5758240000000  0.4175400000000 1.0
C      1  0.5823850000000  0.4317580000000  0.4615370000000 1.0
C      1  0.4746660000000  0.4552490000000  0.4091950000000 1.0
C      1  0.4937430000000  0.6136770000000  0.5289800000000 1.0
C      1  0.5752600000000  0.5651310000000  0.4072920000000 1.0
C      1  0.4162380000000  0.4503700000000  0.5900830000000 1.0
C      1  0.5845240000000  0.5451050000000  0.5539500000000 1.0
C      1  0.3966900000000  0.4291610000000  0.4321600000000 1.0
C      1  0.5658110000000  0.5388760000000  0.4022090000000 1.0
C      1  0.5621280000000  0.4884010000000  0.4241790000000 1.0
C      1  0.4623410000000  0.5681080000000  0.4973730000000 1.0
C      1  0.4698200000000  0.5260630000000  0.5331050000000 1.0
C      1  0.5000260000000  0.5156850000000  0.4494080000000 1.0
C      1  0.4580300000000  0.5494010000000  0.5193360000000 1.0
C      1  0.5222450000000  0.4374300000000  0.4773470000000 1.0
C      1  0.4048580000000  0.4760150000000  0.4472690000000 1.0
C      1  0.5382520000000  0.5386550000000  0.3937280000000 1.0
C      1  0.4870620000000  0.4831230000000  0.5805220000000 1.0
C      1  0.4341240000000  0.4919900000000  0.5228430000000 1.0
C      1  0.4493450000000  0.4814760000000  0.4725340000000 1.0
C      1  0.4863210000000  0.5045870000000  0.5995400000000 1.0
C      1  0.4126400000000  0.4864550000000  0.4000720000000 1.0
C      1  0.5264740000000  0.4394630000000  0.5505670000000 1.0
C      1  0.5914010000000  0.4604190000000  0.4565450000000 1.0
C      1  0.5632810000000  0.5524350000000  0.4733240000000 1.0
C      1  0.4983610000000  0.5281590000000  0.5278650000000 1.0
C      1  0.5611300000000  0.5857530000000  0.4177330000000 1.0
C      1  0.5062130000000  0.5213960000000  0.5014920000000 1.0
C      1  0.5732760000000  0.5523210000000  0.5792350000000 1.0
C      1  0.4645040000000  0.5094240000000  0.6169880000000 1.0
C      1  0.5273100000000  0.3901000000000  0.5234160000000 1.0
C      1  0.4059440000000  0.5315700000000  0.4562130000000 1.0
C      1  0.4783990000000  0.5089360000000  0.3871590000000 1.0
C      1  0.4752650000000  0.6301040000000  0.5207340000000 1.0
C      1  0.5120930000000  0.4480210000000  0.6059020000000 1.0
C      1  0.5451040000000  0.4053620000000  0.5067800000000 1.0
C      1  0.5656090000000  0.4195080000000  0.4422170000000 1.0
C      1  0.6468260000000  0.5368420000000  0.5895170000000 1.0
C      1  0.5598050000000  0.5332970000000  0.5949570000000 1.0
C      1  0.4653910000000  0.5167140000000  0.4113480000000 1.0
C      1  0.4404840000000  0.5756030000000  0.4791460000000 1.0
C      1  0.3611980000000  0.5367520000000  0.5686980000000 1.0
C      1  0.4944150000000  0.5236220000000  0.4762920000000 1.0
C      1  0.6110530000000  0.5358100000000  0.5490970000000 1.0
C      1  0.4972770000000  0.4872250000000  0.3816900000000 1.0
C      1  0.3978910000000  0.5244280000000  0.5050750000000 1.0
C      1  0.4524040000000  0.4829770000000  0.5002460000000 1.0
C      1  0.5462380000000  0.4814150000000  0.5486760000000 1.0
C      1  0.4592290000000  0.4185530000000  0.5044200000000 1.0
C      1  0.5948950000000  0.5952290000000  0.5134440000000 1.0
C      1  0.5147870000000  0.5982250000000  0.5387020000000 1.0
C      1  0.6185850000000  0.5262720000000  0.5235570000000 1.0
C      1  0.5039630000000  0.4338700000000  0.4549490000000 1.0
C      1  0.5740700000000  0.5159320000000  0.4185670000000 1.0
C      1  0.4570720000000  0.5006490000000  0.5426410000000 1.0
C      1  0.5206450000000  0.5199640000000  0.4323040000000 1.0
C      1  0.4373720000000  0.4200680000000  0.4827360000000 1.0
C      1  0.4124440000000  0.5734440000000  0.4825040000000 1.0
C      1  0.6148100000000  0.4270620000000  0.4968160000000 1.0
C      1  0.5093650000000  0.4305650000000  0.5333440000000 1.0
C      1  0.5117120000000  0.5491500000000  0.5416790000000 1.0
C      1  0.5233820000000  0.5719670000000  0.5257590000000 1.0
C      1  0.3865040000000  0.5280470000000  0.5689260000000 1.0
C      1  0.4066960000000  0.4468150000000  0.4503760000000 1.0
C      1  0.4748320000000  0.5016450000000  0.4356530000000 1.0
C      1  0.4609910000000  0.4495790000000  0.5505460000000 1.0
C      1  0.4880760000000  0.3892590000000  0.5536770000000 1.0
C      1  0.4639830000000  0.4423700000000  0.5221330000000 1.0
C      1  0.5105760000000  0.4668120000000  0.5841660000000 1.0
C      1  0.5533020000000  0.6150540000000  0.5006160000000 1.0
C      1  0.5410900000000  0.4448910000000  0.4094480000000 1.0
C      1  0.4436110000000  0.4067370000000  0.4576290000000 1.0
C      1  0.5880990000000  0.5230800000000  0.4431840000000 1.0
C      1  0.5660410000000  0.4493490000000  0.5190120000000 1.0
C      1  0.4656900000000  0.5249630000000  0.4756640000000 1.0
C      1  0.5293750000000  0.4640990000000  0.5632000000000 1.0
C      1  0.5380760000000  0.5915450000000  0.4595260000000 1.0
C      1  0.5382060000000  0.5674550000000  0.4760450000000 1.0
C      1  0.5438880000000  0.4733410000000  0.4059950000000 1.0
C      1  0.4055570000000  0.4630350000000  0.4937330000000 1.0
C      1  0.4877620000000  0.5719780000000  0.4316380000000 1.0
C      1  0.5112710000000  0.5165700000000  0.6054800000000 1.0
C      1  0.6207180000000  0.4898610000000  0.4295770000000 1.0
C      1  0.4008190000000  0.5589000000000  0.4606770000000 1.0
C      1  0.6241030000000  0.4524230000000  0.4943160000000 1.0
C      1  0.4926460000000  0.3867580000000  0.4780150000000 1.0
C      1  0.3999510000000  0.4854190000000  0.4746720000000 1.0
C      1  0.4849000000000  0.4616590000000  0.3834560000000 1.0
C      1  0.5539430000000  0.5722670000000  0.5264100000000 1.0
C      1  0.5257350000000  0.5165880000000  0.4050370000000 1.0
C      1  0.5439260000000  0.6144540000000  0.4751360000000 1.0
C      1  0.4383200000000  0.4331170000000  0.5911450000000 1.0
C      1  0.4556640000000  0.5045160000000  0.4587780000000 1.0
C      1  0.3968040000000  0.5721440000000  0.5055900000000 1.0
C      1  0.6299030000000  0.5361930000000  0.5697090000000 1.0
C      1  0.5000230000000  0.4716090000000  0.5048960000000 1.0
C      1  0.4139040000000  0.4691040000000  0.5203070000000 1.0
C      1  0.5412320000000  0.4222220000000  0.4274000000000 1.0
C      1  0.4143190000000  0.5147050000000  0.5262860000000 1.0
C      1  0.4394680000000  0.5184080000000  0.6071110000000 1.0
C      1  0.4460380000000  0.5757220000000  0.4510510000000 1.0
C      1  0.5086020000000  0.5523180000000  0.5686710000000 1.0
C      1  0.3998150000000  0.5136540000000  0.4786160000000 1.0
C      1  0.5361030000000  0.5879800000000  0.4314060000000 1.0
C      1  0.3181380000000  0.5515490000000  0.5514410000000 1.0
C      1  0.4151150000000  0.4395780000000  0.4787040000000 1.0
C      1  0.4572050000000  0.4574430000000  0.4612220000000 1.0
C      1  0.4980080000000  0.3899360000000  0.5266900000000 1.0
C      1  0.4644500000000  0.4027440000000  0.5613540000000 1.0
C      1  0.4678220000000  0.4780200000000  0.5590580000000 1.0
C      1  0.4894070000000  0.5737610000000  0.4865050000000 1.0
C      1  0.5680090000000  0.4229480000000  0.5084470000000 1.0
C      1  0.5672320000000  0.5794880000000  0.5838980000000 1.0
C      1  0.4461110000000  0.5360390000000  0.4213760000000 1.0
C      1  0.5321440000000  0.4106950000000  0.4826500000000 1.0
C      1  0.3828120000000  0.5481850000000  0.5111860000000 1.0
C      1  0.5607010000000  0.4982620000000  0.5044040000000 1.0
C      1  0.5874240000000  0.5675680000000  0.4757370000000 1.0
C      1  0.6109540000000  0.4718960000000  0.4787250000000 1.0
C      1  0.4207690000000  0.5223310000000  0.4330120000000 1.0
C      1  0.4697360000000  0.4381980000000  0.6314400000000 1.0
C      1  0.4101080000000  0.4755990000000  0.5961080000000 1.0
C      1  0.5066880000000  0.3846110000000  0.5744530000000 1.0
C      1  0.4065450000000  0.5213900000000  0.5525920000000 1.0
C      1  0.6168850000000  0.5001130000000  0.4762920000000 1.0
C      1  0.5622790000000  0.4994480000000  0.4752680000000 1.0
C      1  0.5163560000000  0.5690560000000  0.4962390000000 1.0
C      1  0.5212700000000  0.5616060000000  0.3941580000000 1.0
C      1  0.5884140000000  0.4212610000000  0.4880190000000 1.0
C      1  0.4593440000000  0.5614870000000  0.4298420000000 1.0
C      1  0.4496910000000  0.4288110000000  0.6164760000000 1.0
C      1  0.5497570000000  0.5988030000000  0.5778050000000 1.0
C      1  0.3444960000000  0.5457620000000  0.5479040000000 1.0
C      1  0.5108500000000  0.4716440000000  0.4371550000000 1.0
C      1  0.5689590000000  0.5259470000000  0.4649890000000 1.0
C      1  0.6092240000000  0.4649140000000  0.4318100000000 1.0
C      1  0.4505380000000  0.4129160000000  0.4320840000000 1.0
C      1  0.6036620000000  0.5818450000000  0.4916410000000 1.0
C      1  0.3575960000000  0.5482260000000  0.5231320000000 1.0
C      1  0.5372180000000  0.5226080000000  0.6042930000000 1.0
C      1  0.4346500000000  0.5707430000000  0.5952970000000 1.0
C      1  0.5668640000000  0.5472480000000  0.5316790000000 1.0
C      1  0.4896490000000  0.5811500000000  0.4590850000000 1.0
C      1  0.5588700000000  0.4764400000000  0.5232390000000 1.0
C      1  0.5669280000000  0.5967110000000  0.5177360000000 1.0
C      1  0.5205080000000  0.4605560000000  0.4921470000000 1.0
C      1  0.5296880000000  0.6058230000000  0.5615710000000 1.0
C      1  0.4675390000000  0.5055570000000  0.6439750000000 1.0
C      1  0.6212840000000  0.5158020000000  0.4991160000000 1.0
C      1  0.6129780000000  0.5096940000000  0.4490380000000 1.0
C      1  0.4777440000000  0.4409570000000  0.4588120000000 1.0
C      1  0.5236580000000  0.4907620000000  0.3934860000000 1.0
C      1  0.5175040000000  0.3931130000000  0.4638330000000 1.0
C      1  0.4537400000000  0.4280460000000  0.5678770000000 1.0
C      1  0.4191820000000  0.4995300000000  0.6033110000000 1.0
C      1  0.4848550000000  0.4745200000000  0.4285070000000 1.0
C      1  0.5212400000000  0.3986510000000  0.5919970000000 1.0
C      1  0.5670960000000  0.4797080000000  0.4531980000000 1.0
END
