TITL C-612605-9286-1345 -0.0388431923676198 125000 -359.055163908279 0 0 60 (C1) n - 1
REM
REM in /home/nfs/bkarasulu/CARBON/AIRSS/Generating-Clusters/TERSOFF/Only-C1/FIRE-HFTN
REM
REM
REM
REM
REM
REM ./C.cell (11c1c37f851c82e70ff6c80c92926a4b)
REM AIRSS Version 0.9.1 bugfix July 2018 build 013d7b7c2542+ Fri, 06 Jul 2018 19:26:36 +0100
REM compiler GCC version 9.2.1 20190827 (Red Hat 9.2.1-1)
REM options -cpp -mtune=generic -march=x86-64 -g -O0 -fpre-include=/usr/include/finclude/math-vector-fortran.h
REM seed -1146794389 1073871580 591514528 1686621235 127025101 -1483176989 -1063908962 -1434482231 -1425895909 1523270624 -164723136 1953395017 -447114150 1918060437 726863374 234595683 -1674968240 115472458 -1144732374 -64743616 -927762440 2072107060 -1162009374 810384524 1586467747 505854455 -26817261 546737146 132262312 -1923478521 -1833564746 417732204 -1724982970
REM
CELL 1.54180   50.00000   50.00000   50.00000   90.00000   90.00000   90.00000
LATT -1
SFAC C  
C      1  0.5512430000000  0.4591680000000  0.5571970000000 1.0
C      1  0.4677970000000  0.4301160000000  0.5814310000000 1.0
C      1  0.4589150000000  0.5077430000000  0.4923030000000 1.0
C      1  0.4430590000000  0.4753400000000  0.4409070000000 1.0
C      1  0.4544940000000  0.5028540000000  0.4026620000000 1.0
C      1  0.4243210000000  0.5572370000000  0.4679930000000 1.0
C      1  0.5014680000000  0.4775580000000  0.4096760000000 1.0
C      1  0.5053600000000  0.4156030000000  0.5549480000000 1.0
C      1  0.4700790000000  0.5712990000000  0.5277590000000 1.0
C      1  0.5384270000000  0.4463150000000  0.5352480000000 1.0
C      1  0.4865730000000  0.4121940000000  0.5740000000000 1.0
C      1  0.4322680000000  0.5006120000000  0.4985130000000 1.0
C      1  0.4742760000000  0.5255700000000  0.4792890000000 1.0
C      1  0.4387810000000  0.4988530000000  0.4260540000000 1.0
C      1  0.5413950000000  0.5500920000000  0.4661560000000 1.0
C      1  0.4495590000000  0.5742680000000  0.5082220000000 1.0
C      1  0.5832070000000  0.4711000000000  0.4860900000000 1.0
C      1  0.4721430000000  0.5528120000000  0.4721020000000 1.0
C      1  0.5826700000000  0.4914490000000  0.4665850000000 1.0
C      1  0.4447160000000  0.5166020000000  0.3811690000000 1.0
C      1  0.5722330000000  0.4464860000000  0.5705360000000 1.0
C      1  0.4953310000000  0.6026670000000  0.5007750000000 1.0
C      1  0.5955440000000  0.4794410000000  0.5100850000000 1.0
C      1  0.5280130000000  0.4883760000000  0.5882750000000 1.0
C      1  0.4935930000000  0.5696200000000  0.4641130000000 1.0
C      1  0.5662610000000  0.5166730000000  0.5288000000000 1.0
C      1  0.5923800000000  0.4348830000000  0.5823050000000 1.0
C      1  0.4134470000000  0.4640340000000  0.5327950000000 1.0
C      1  0.4757370000000  0.4696080000000  0.5503310000000 1.0
C      1  0.4124920000000  0.5135530000000  0.4830670000000 1.0
C      1  0.4810470000000  0.4532960000000  0.5037850000000 1.0
C      1  0.4939250000000  0.5959480000000  0.4746440000000 1.0
C      1  0.4636880000000  0.4546600000000  0.5711060000000 1.0
C      1  0.5426340000000  0.4850810000000  0.5654230000000 1.0
C      1  0.5195560000000  0.5722900000000  0.5290520000000 1.0
C      1  0.4689870000000  0.4523680000000  0.4801140000000 1.0
C      1  0.5501130000000  0.5069800000000  0.5496270000000 1.0
C      1  0.4752880000000  0.4975400000000  0.5508650000000 1.0
C      1  0.4803230000000  0.4918590000000  0.4023350000000 1.0
C      1  0.5896550000000  0.5017450000000  0.5239710000000 1.0
C      1  0.5564230000000  0.5369580000000  0.5111820000000 1.0
C      1  0.5514990000000  0.4434970000000  0.5106880000000 1.0
C      1  0.5624860000000  0.4515860000000  0.4862070000000 1.0
C      1  0.4223410000000  0.5190890000000  0.4367060000000 1.0
C      1  0.4691000000000  0.5495240000000  0.5453730000000 1.0
C      1  0.4717910000000  0.5238700000000  0.5519080000000 1.0
C      1  0.4549610000000  0.4594810000000  0.4586510000000 1.0
C      1  0.4477430000000  0.5649870000000  0.4815730000000 1.0
C      1  0.5407790000000  0.5574770000000  0.5226350000000 1.0
C      1  0.4899260000000  0.4546210000000  0.5302860000000 1.0
C      1  0.4155760000000  0.5312090000000  0.4611960000000 1.0
C      1  0.5343930000000  0.4504820000000  0.4408000000000 1.0
C      1  0.5116540000000  0.4378480000000  0.5387080000000 1.0
C      1  0.4250090000000  0.4818610000000  0.5176950000000 1.0
C      1  0.5181850000000  0.5587690000000  0.4566860000000 1.0
C      1  0.5751860000000  0.5169890000000  0.4692790000000 1.0
C      1  0.4950540000000  0.5844550000000  0.5225040000000 1.0
C      1  0.5587030000000  0.5353980000000  0.4825230000000 1.0
C      1  0.5493280000000  0.4455640000000  0.4622180000000 1.0
C      1  0.5188630000000  0.4624380000000  0.4228740000000 1.0
END
