TITL C-612605-9286-1416 0.0998378351880518 125000 -640.533133669528 0 0 104 (C1) n - 1
REM
REM in /home/nfs/bkarasulu/CARBON/AIRSS/Generating-Clusters/TERSOFF/Only-C1/FIRE-HFTN
REM
REM
REM
REM
REM
REM ./C.cell (11c1c37f851c82e70ff6c80c92926a4b)
REM AIRSS Version 0.9.1 bugfix July 2018 build 013d7b7c2542+ Fri, 06 Jul 2018 19:26:36 +0100
REM compiler GCC version 9.2.1 20190827 (Red Hat 9.2.1-1)
REM options -cpp -mtune=generic -march=x86-64 -g -O0 -fpre-include=/usr/include/finclude/math-vector-fortran.h
REM seed -881924921 -929333709 -252517140 -1898115384 1354274079 905634444 -139951854 2073056511 408829938 -274607412 154864628 -343195391 -1463629563 -20356896 -292988923 1446436005 1344039624 1680765390 26220955 -934035087 -1994070985 1532803321 1765634228 1337478354 -614853479 95586242 -1801565874 -1502729365 -1852309325 -315565238 2030901250 -2095207565 416210533
REM
CELL 1.54180   50.00000   50.00000   50.00000   90.00000   90.00000   90.00000
LATT -1
SFAC C  
C      1  0.5723440000000  0.4153040000000  0.4799260000000 1.0
C      1  0.4411180000000  0.5829020000000  0.4530540000000 1.0
C      1  0.5941660000000  0.4474350000000  0.5364620000000 1.0
C      1  0.5693940000000  0.4068750000000  0.5488090000000 1.0
C      1  0.4567940000000  0.5306360000000  0.4440220000000 1.0
C      1  0.4823920000000  0.4731520000000  0.4657560000000 1.0
C      1  0.5235810000000  0.5831940000000  0.5015030000000 1.0
C      1  0.4586010000000  0.5883960000000  0.5298080000000 1.0
C      1  0.5588910000000  0.5608720000000  0.4765980000000 1.0
C      1  0.4950350000000  0.5009340000000  0.4224930000000 1.0
C      1  0.5149390000000  0.4688030000000  0.5035440000000 1.0
C      1  0.4107340000000  0.5005340000000  0.5244260000000 1.0
C      1  0.4242360000000  0.5034930000000  0.4226090000000 1.0
C      1  0.5841950000000  0.4136960000000  0.5036180000000 1.0
C      1  0.5618240000000  0.5098830000000  0.5635460000000 1.0
C      1  0.4732520000000  0.5115090000000  0.4043300000000 1.0
C      1  0.4753490000000  0.5524630000000  0.5502960000000 1.0
C      1  0.4076020000000  0.4783420000000  0.4637080000000 1.0
C      1  0.4292410000000  0.5489600000000  0.5469910000000 1.0
C      1  0.5655230000000  0.4814030000000  0.5555060000000 1.0
C      1  0.5567140000000  0.5567060000000  0.4258880000000 1.0
C      1  0.4120900000000  0.5028110000000  0.4490910000000 1.0
C      1  0.4136560000000  0.4564820000000  0.5117610000000 1.0
C      1  0.4563830000000  0.4706890000000  0.5722250000000 1.0
C      1  0.4959210000000  0.4044020000000  0.5692580000000 1.0
C      1  0.4103150000000  0.5276430000000  0.4638830000000 1.0
C      1  0.4782490000000  0.5850680000000  0.4842180000000 1.0
C      1  0.4817260000000  0.4308700000000  0.4925460000000 1.0
C      1  0.5848040000000  0.4215250000000  0.5305060000000 1.0
C      1  0.5258240000000  0.3898790000000  0.4341530000000 1.0
C      1  0.5577190000000  0.4892140000000  0.4933310000000 1.0
C      1  0.5184670000000  0.5684370000000  0.4537520000000 1.0
C      1  0.5284430000000  0.4559180000000  0.5801340000000 1.0
C      1  0.4716450000000  0.4066900000000  0.4881720000000 1.0
C      1  0.4764280000000  0.5377540000000  0.5259590000000 1.0
C      1  0.4753720000000  0.5806890000000  0.5517160000000 1.0
C      1  0.4173780000000  0.4738860000000  0.5343150000000 1.0
C      1  0.5065790000000  0.5435250000000  0.5834710000000 1.0
C      1  0.5422930000000  0.5461500000000  0.4002090000000 1.0
C      1  0.5065580000000  0.5807200000000  0.4768450000000 1.0
C      1  0.5423730000000  0.4628820000000  0.5561050000000 1.0
C      1  0.4791240000000  0.5415430000000  0.5756080000000 1.0
C      1  0.5205280000000  0.3956130000000  0.5640190000000 1.0
C      1  0.5144530000000  0.5387980000000  0.4000280000000 1.0
C      1  0.5749200000000  0.5130760000000  0.4136040000000 1.0
C      1  0.5176550000000  0.5173600000000  0.5910890000000 1.0
C      1  0.5135890000000  0.4940070000000  0.5444560000000 1.0
C      1  0.5239010000000  0.4688380000000  0.5343260000000 1.0
C      1  0.5643840000000  0.5332870000000  0.4771010000000 1.0
C      1  0.4730170000000  0.4967420000000  0.5726980000000 1.0
C      1  0.5087770000000  0.5426700000000  0.4474910000000 1.0
C      1  0.5418000000000  0.4092190000000  0.4429100000000 1.0
C      1  0.4267230000000  0.5123070000000  0.5048080000000 1.0
C      1  0.5459160000000  0.5135220000000  0.5875000000000 1.0
C      1  0.5465160000000  0.3972180000000  0.5584310000000 1.0
C      1  0.4296250000000  0.4762860000000  0.5609190000000 1.0
C      1  0.4462760000000  0.4947540000000  0.4945140000000 1.0
C      1  0.4787570000000  0.4239610000000  0.5752590000000 1.0
C      1  0.4331670000000  0.5271360000000  0.5670770000000 1.0
C      1  0.5177570000000  0.5682220000000  0.5707840000000 1.0
C      1  0.4791740000000  0.5965360000000  0.5107970000000 1.0
C      1  0.4854470000000  0.4967100000000  0.5451510000000 1.0
C      1  0.5470230000000  0.5687600000000  0.4508350000000 1.0
C      1  0.4931110000000  0.4784710000000  0.4397330000000 1.0
C      1  0.5071910000000  0.5937320000000  0.5229130000000 1.0
C      1  0.4655070000000  0.4944440000000  0.4748090000000 1.0
C      1  0.5700460000000  0.4881460000000  0.4254590000000 1.0
C      1  0.4520780000000  0.5751090000000  0.4770490000000 1.0
C      1  0.4495660000000  0.5168960000000  0.4201230000000 1.0
C      1  0.5042100000000  0.3747070000000  0.4376650000000 1.0
C      1  0.5409120000000  0.4670110000000  0.4869220000000 1.0
C      1  0.5172010000000  0.5162480000000  0.4857380000000 1.0
C      1  0.5029040000000  0.4991250000000  0.5028130000000 1.0
C      1  0.5843130000000  0.4738050000000  0.5352860000000 1.0
C      1  0.5487030000000  0.4538440000000  0.4625900000000 1.0
C      1  0.4087630000000  0.4617000000000  0.4852550000000 1.0
C      1  0.4354330000000  0.5600890000000  0.4962210000000 1.0
C      1  0.4827450000000  0.3719350000000  0.4532870000000 1.0
C      1  0.4930080000000  0.4555840000000  0.4864990000000 1.0
C      1  0.5112010000000  0.5253100000000  0.4256430000000 1.0
C      1  0.4375090000000  0.5679080000000  0.5245710000000 1.0
C      1  0.4188910000000  0.5023560000000  0.5705910000000 1.0
C      1  0.5485370000000  0.5690330000000  0.5028510000000 1.0
C      1  0.4592930000000  0.5222000000000  0.5788730000000 1.0
C      1  0.4721710000000  0.5203760000000  0.4652370000000 1.0
C      1  0.4988780000000  0.4940180000000  0.5903880000000 1.0
C      1  0.5461940000000  0.5135830000000  0.4848100000000 1.0
C      1  0.5789060000000  0.5372730000000  0.4291040000000 1.0
C      1  0.4771780000000  0.4513650000000  0.5808260000000 1.0
C      1  0.4889750000000  0.5308900000000  0.3874680000000 1.0
C      1  0.5269920000000  0.5178330000000  0.5376870000000 1.0
C      1  0.4118480000000  0.4920700000000  0.4010690000000 1.0
C      1  0.5539960000000  0.4259330000000  0.4616620000000 1.0
C      1  0.4706230000000  0.3845030000000  0.4734730000000 1.0
C      1  0.4816220000000  0.5107320000000  0.5203940000000 1.0
C      1  0.5570390000000  0.5526670000000  0.5261450000000 1.0
C      1  0.5594940000000  0.5236910000000  0.3914500000000 1.0
C      1  0.4218250000000  0.5354890000000  0.4889080000000 1.0
C      1  0.5026940000000  0.4647900000000  0.5890580000000 1.0
C      1  0.4986010000000  0.5293210000000  0.4692360000000 1.0
C      1  0.5799120000000  0.4858060000000  0.5100940000000 1.0
C      1  0.5579340000000  0.4699130000000  0.4409500000000 1.0
C      1  0.5045330000000  0.5860800000000  0.5511090000000 1.0
C      1  0.5527880000000  0.5287180000000  0.5420960000000 1.0
END
