TITL C-612607-4507-1187 0.000836548638294992 125000 -256.355506655104 0 0 43 (C1) n - 1
REM
REM in /home/nfs/bkarasulu/CARBON/AIRSS/Generating-Clusters/TERSOFF/Only-C1/FIRE-HFTN
REM
REM
REM
REM
REM
REM ./C.cell (11c1c37f851c82e70ff6c80c92926a4b)
REM AIRSS Version 0.9.1 bugfix July 2018 build 013d7b7c2542+ Fri, 06 Jul 2018 19:26:36 +0100
REM compiler GCC version 9.2.1 20190827 (Red Hat 9.2.1-1)
REM options -cpp -mtune=generic -march=x86-64 -g -O0 -fpre-include=/usr/include/finclude/math-vector-fortran.h
REM seed -1336861088 -860061296 1277439319 -1122198888 -1109592162 -1328747687 1272326209 -1329219540 -1840224660 -592988184 576606970 -316356306 1483266099 -956017667 -1854939853 2080559108 655330467 -1450140671 -929302278 287834073 -1953198887 1536219821 -2069524774 -212095128 1184068010 706815635 -916423523 1136343830 -652425940 -2048798723 -1067796548 461684122 1313671155
REM
CELL 1.54180   50.00000   50.00000   50.00000   90.00000   90.00000   90.00000
LATT -1
SFAC C  
C      1  0.5131980000000  0.5526190000000  0.4385550000000 1.0
C      1  0.4578340000000  0.4788220000000  0.4583820000000 1.0
C      1  0.5544820000000  0.5025370000000  0.5469290000000 1.0
C      1  0.5413980000000  0.4794320000000  0.4630580000000 1.0
C      1  0.5056660000000  0.4447090000000  0.4646990000000 1.0
C      1  0.4867480000000  0.5119200000000  0.4354850000000 1.0
C      1  0.5384760000000  0.4992790000000  0.4825510000000 1.0
C      1  0.4348580000000  0.4852800000000  0.5183760000000 1.0
C      1  0.4954070000000  0.4424090000000  0.5115220000000 1.0
C      1  0.4927660000000  0.5644560000000  0.4859970000000 1.0
C      1  0.4564410000000  0.5347330000000  0.4865810000000 1.0
C      1  0.4620030000000  0.4449010000000  0.6021690000000 1.0
C      1  0.5537770000000  0.5784960000000  0.4474510000000 1.0
C      1  0.4865120000000  0.4472830000000  0.4851860000000 1.0
C      1  0.5553020000000  0.5212740000000  0.4875340000000 1.0
C      1  0.4898680000000  0.5378960000000  0.4454380000000 1.0
C      1  0.4779420000000  0.4871060000000  0.4405720000000 1.0
C      1  0.4538850000000  0.4958660000000  0.5365000000000 1.0
C      1  0.5307640000000  0.5666630000000  0.4558320000000 1.0
C      1  0.4744520000000  0.5129190000000  0.5273920000000 1.0
C      1  0.5343110000000  0.5597940000000  0.5080470000000 1.0
C      1  0.5166990000000  0.4968430000000  0.5003100000000 1.0
C      1  0.5714360000000  0.4157030000000  0.5208120000000 1.0
C      1  0.5531410000000  0.5386360000000  0.5100060000000 1.0
C      1  0.4371680000000  0.4982620000000  0.4606400000000 1.0
C      1  0.5359430000000  0.4525730000000  0.5380690000000 1.0
C      1  0.4616900000000  0.4608050000000  0.4806340000000 1.0
C      1  0.5215770000000  0.5671550000000  0.4825770000000 1.0
C      1  0.5545620000000  0.4333480000000  0.5299250000000 1.0
C      1  0.4776840000000  0.4441840000000  0.5813560000000 1.0
C      1  0.5586490000000  0.5260560000000  0.5347220000000 1.0
C      1  0.4433900000000  0.4632670000000  0.5024490000000 1.0
C      1  0.5278190000000  0.4572920000000  0.4563560000000 1.0
C      1  0.4866800000000  0.5590110000000  0.5147870000000 1.0
C      1  0.5080960000000  0.4463160000000  0.5363340000000 1.0
C      1  0.4989260000000  0.5017870000000  0.5194470000000 1.0
C      1  0.5124100000000  0.5613590000000  0.5273810000000 1.0
C      1  0.4210080000000  0.5057810000000  0.5040600000000 1.0
C      1  0.4763120000000  0.5473140000000  0.4689570000000 1.0
C      1  0.4677760000000  0.5373090000000  0.5140470000000 1.0
C      1  0.5451850000000  0.4774900000000  0.5473970000000 1.0
C      1  0.4346020000000  0.5170240000000  0.4816240000000 1.0
C      1  0.4931590000000  0.4440910000000  0.5598540000000 1.0
END
