TITL C-612600-6631-592 4.26370352315643e-05 125000 -1186.20612760271 0 0 192 (C1) n - 1
REM
REM in /home/nfs/bkarasulu/CARBON/AIRSS/Generating-Clusters/TERSOFF/Only-C1/FIRE-HFTN
REM
REM
REM
REM
REM
REM ./C.cell (11c1c37f851c82e70ff6c80c92926a4b)
REM AIRSS Version 0.9.1 bugfix July 2018 build 013d7b7c2542+ Fri, 06 Jul 2018 19:26:36 +0100
REM compiler GCC version 9.2.1 20190827 (Red Hat 9.2.1-1)
REM options -cpp -mtune=generic -march=x86-64 -g -O0 -fpre-include=/usr/include/finclude/math-vector-fortran.h
REM seed -70325583 606927215 344944798 1683060645 -455282335 958764755 129410375 2062207424 -1590001001 -2071569239 -494424737 -2004581097 1737105987 732365051 -2047170698 -1816718497 1891925545 141691842 2104301363 309212171 366842090 1995151050 749795688 1069621990 1952881328 -1557596219 598978907 -893357628 837091534 -1470630200 101331288 1990090318 1364120112
REM
CELL 1.54180   50.00000   50.00000   50.00000   90.00000   90.00000   90.00000
LATT -1
SFAC C  
C      1  0.5189380000000  0.5614320000000  0.6013750000000 1.0
C      1  0.5454600000000  0.5134730000000  0.5421570000000 1.0
C      1  0.4733680000000  0.6190350000000  0.4913940000000 1.0
C      1  0.4921260000000  0.5364620000000  0.3419140000000 1.0
C      1  0.5093800000000  0.5722280000000  0.4936000000000 1.0
C      1  0.5374810000000  0.4575510000000  0.3833920000000 1.0
C      1  0.5778750000000  0.5497710000000  0.5360660000000 1.0
C      1  0.4501890000000  0.3995530000000  0.4401750000000 1.0
C      1  0.5949020000000  0.4365840000000  0.4559650000000 1.0
C      1  0.4387440000000  0.5774270000000  0.5090970000000 1.0
C      1  0.3703920000000  0.5333680000000  0.4516340000000 1.0
C      1  0.4603270000000  0.5943940000000  0.5767790000000 1.0
C      1  0.4000240000000  0.4760110000000  0.5369540000000 1.0
C      1  0.5904470000000  0.4482840000000  0.5967020000000 1.0
C      1  0.5058570000000  0.4996480000000  0.5795240000000 1.0
C      1  0.4930450000000  0.4753420000000  0.5712090000000 1.0
C      1  0.6151690000000  0.5038950000000  0.4299010000000 1.0
C      1  0.5315130000000  0.5830840000000  0.5326480000000 1.0
C      1  0.5368480000000  0.5039430000000  0.4279090000000 1.0
C      1  0.4319870000000  0.5567500000000  0.5822190000000 1.0
C      1  0.5330200000000  0.3907230000000  0.5503460000000 1.0
C      1  0.5057730000000  0.4785630000000  0.4546330000000 1.0
C      1  0.4767080000000  0.5200780000000  0.4834120000000 1.0
C      1  0.4711090000000  0.4388470000000  0.4503010000000 1.0
C      1  0.5844440000000  0.4994500000000  0.4860400000000 1.0
C      1  0.4969970000000  0.5192800000000  0.3627650000000 1.0
C      1  0.5708900000000  0.5263730000000  0.5482030000000 1.0
C      1  0.4958470000000  0.5569470000000  0.6144350000000 1.0
C      1  0.5999330000000  0.4970230000000  0.5843330000000 1.0
C      1  0.4616170000000  0.3728340000000  0.4820680000000 1.0
C      1  0.4724840000000  0.5284300000000  0.4060640000000 1.0
C      1  0.4524060000000  0.4271110000000  0.4310190000000 1.0
C      1  0.4991880000000  0.6307550000000  0.4880730000000 1.0
C      1  0.4914230000000  0.3640250000000  0.5409830000000 1.0
C      1  0.6270470000000  0.5170810000000  0.5216240000000 1.0
C      1  0.4683130000000  0.5630860000000  0.6135970000000 1.0
C      1  0.4749620000000  0.5239140000000  0.5295150000000 1.0
C      1  0.4047800000000  0.4926950000000  0.5808930000000 1.0
C      1  0.5032400000000  0.5065870000000  0.6066830000000 1.0
C      1  0.5237080000000  0.4140820000000  0.4394950000000 1.0
C      1  0.4117790000000  0.5183300000000  0.4233740000000 1.0
C      1  0.5343660000000  0.5693030000000  0.5809300000000 1.0
C      1  0.3668620000000  0.5459880000000  0.4752980000000 1.0
C      1  0.5865830000000  0.5949590000000  0.4673900000000 1.0
C      1  0.4855720000000  0.5660500000000  0.5078870000000 1.0
C      1  0.5438020000000  0.3961780000000  0.5761050000000 1.0
C      1  0.4268810000000  0.5434270000000  0.4223330000000 1.0
C      1  0.4172540000000  0.5367720000000  0.5695720000000 1.0
C      1  0.4627730000000  0.4513640000000  0.5397140000000 1.0
C      1  0.4223520000000  0.4381410000000  0.4732960000000 1.0
C      1  0.4891210000000  0.4315210000000  0.4940750000000 1.0
C      1  0.5312640000000  0.3840500000000  0.4768340000000 1.0
C      1  0.5707090000000  0.4647360000000  0.4205230000000 1.0
C      1  0.5462530000000  0.5278830000000  0.4180870000000 1.0
C      1  0.4266460000000  0.4656950000000  0.4624110000000 1.0
C      1  0.4860200000000  0.4478430000000  0.5200590000000 1.0
C      1  0.5883190000000  0.5700040000000  0.4804400000000 1.0
C      1  0.5607960000000  0.4567690000000  0.4920060000000 1.0
C      1  0.4542240000000  0.3585190000000  0.5050710000000 1.0
C      1  0.5463670000000  0.5521290000000  0.4327980000000 1.0
C      1  0.4259830000000  0.4497530000000  0.5800160000000 1.0
C      1  0.5447810000000  0.5823820000000  0.5581110000000 1.0
C      1  0.5265770000000  0.6040540000000  0.4320290000000 1.0
C      1  0.5448040000000  0.4893370000000  0.6230700000000 1.0
C      1  0.4056320000000  0.3729520000000  0.5067660000000 1.0
C      1  0.5165760000000  0.4305430000000  0.4844780000000 1.0
C      1  0.4885920000000  0.4120470000000  0.5511510000000 1.0
C      1  0.5640480000000  0.4564830000000  0.3941510000000 1.0
C      1  0.4125930000000  0.4539860000000  0.5530650000000 1.0
C      1  0.4397800000000  0.5736870000000  0.5362010000000 1.0
C      1  0.5546730000000  0.5986810000000  0.4277720000000 1.0
C      1  0.5058830000000  0.5176020000000  0.4878080000000 1.0
C      1  0.4565380000000  0.5079160000000  0.4666100000000 1.0
C      1  0.4116020000000  0.6082530000000  0.5342060000000 1.0
C      1  0.5892100000000  0.6128140000000  0.5632370000000 1.0
C      1  0.6143530000000  0.4623840000000  0.4914770000000 1.0
C      1  0.4722080000000  0.4215910000000  0.4740070000000 1.0
C      1  0.4876930000000  0.6097120000000  0.5379150000000 1.0
C      1  0.4719240000000  0.4620310000000  0.3813270000000 1.0
C      1  0.5347600000000  0.3591010000000  0.4835160000000 1.0
C      1  0.4628510000000  0.4271480000000  0.5566100000000 1.0
C      1  0.5158010000000  0.4911100000000  0.4812900000000 1.0
C      1  0.4701250000000  0.4305250000000  0.6034790000000 1.0
C      1  0.5196200000000  0.6247550000000  0.5050930000000 1.0
C      1  0.5322710000000  0.4314910000000  0.5266530000000 1.0
C      1  0.4613860000000  0.3957800000000  0.4666560000000 1.0
C      1  0.4064700000000  0.4813830000000  0.4799980000000 1.0
C      1  0.3860620000000  0.5610160000000  0.5450040000000 1.0
C      1  0.4229410000000  0.4662190000000  0.4314130000000 1.0
C      1  0.5339790000000  0.4477960000000  0.5011040000000 1.0
C      1  0.5487980000000  0.4783560000000  0.4324630000000 1.0
C      1  0.5198110000000  0.5731070000000  0.4676270000000 1.0
C      1  0.5218890000000  0.4381950000000  0.4257130000000 1.0
C      1  0.5307560000000  0.5041250000000  0.5663010000000 1.0
C      1  0.3919360000000  0.4984090000000  0.5546660000000 1.0
C      1  0.4758420000000  0.5138280000000  0.3815060000000 1.0
C      1  0.4594660000000  0.5275040000000  0.5062910000000 1.0
C      1  0.6020210000000  0.4363800000000  0.4839180000000 1.0
C      1  0.4403040000000  0.5159100000000  0.6070910000000 1.0
C      1  0.5074870000000  0.5904030000000  0.4483910000000 1.0
C      1  0.5758180000000  0.4478410000000  0.5514700000000 1.0
C      1  0.4909030000000  0.4444250000000  0.3879780000000 1.0
C      1  0.4318630000000  0.4420960000000  0.4182720000000 1.0
C      1  0.4905730000000  0.5655090000000  0.5558080000000 1.0
C      1  0.4650060000000  0.6180940000000  0.5199870000000 1.0
C      1  0.4818650000000  0.4963250000000  0.5322730000000 1.0
C      1  0.5039030000000  0.3875420000000  0.5492170000000 1.0
C      1  0.5870900000000  0.4765200000000  0.5993360000000 1.0
C      1  0.5577010000000  0.5338760000000  0.3921090000000 1.0
C      1  0.4663400000000  0.5721710000000  0.4283870000000 1.0
C      1  0.4216580000000  0.5775030000000  0.4617710000000 1.0
C      1  0.5591150000000  0.4819930000000  0.6002280000000 1.0
C      1  0.4365390000000  0.6194000000000  0.5281560000000 1.0
C      1  0.5914320000000  0.4248200000000  0.5096770000000 1.0
C      1  0.4687050000000  0.4792270000000  0.5536050000000 1.0
C      1  0.4342050000000  0.4887620000000  0.6173680000000 1.0
C      1  0.6075880000000  0.4825560000000  0.4465720000000 1.0
C      1  0.4201710000000  0.4915210000000  0.4177910000000 1.0
C      1  0.4552950000000  0.4802280000000  0.4632580000000 1.0
C      1  0.5287600000000  0.5611920000000  0.5125320000000 1.0
C      1  0.5929160000000  0.4591400000000  0.4375730000000 1.0
C      1  0.6139300000000  0.5270530000000  0.4164710000000 1.0
C      1  0.4471560000000  0.5452000000000  0.6054310000000 1.0
C      1  0.5481370000000  0.4819560000000  0.5739250000000 1.0
C      1  0.5092740000000  0.4517240000000  0.5670910000000 1.0
C      1  0.6140560000000  0.4659870000000  0.5205090000000 1.0
C      1  0.5286050000000  0.4793670000000  0.3675910000000 1.0
C      1  0.5226480000000  0.4765760000000  0.5070380000000 1.0
C      1  0.4199530000000  0.4334100000000  0.3952440000000 1.0
C      1  0.4784550000000  0.5893620000000  0.4483120000000 1.0
C      1  0.5895840000000  0.5146770000000  0.5664440000000 1.0
C      1  0.3828790000000  0.5479230000000  0.4968110000000 1.0
C      1  0.4962500000000  0.4760570000000  0.5184490000000 1.0
C      1  0.3945910000000  0.5345400000000  0.5538070000000 1.0
C      1  0.5433700000000  0.5577590000000  0.4602640000000 1.0
C      1  0.4403340000000  0.5775170000000  0.5649930000000 1.0
C      1  0.4733890000000  0.3532250000000  0.5246640000000 1.0
C      1  0.3941420000000  0.5871900000000  0.5396940000000 1.0
C      1  0.4073130000000  0.5419000000000  0.5064120000000 1.0
C      1  0.4637770000000  0.5993280000000  0.4722650000000 1.0
C      1  0.5478400000000  0.4877750000000  0.5244560000000 1.0
C      1  0.6067700000000  0.4851090000000  0.4750230000000 1.0
C      1  0.5964010000000  0.4449710000000  0.5314110000000 1.0
C      1  0.4829780000000  0.5927620000000  0.5601410000000 1.0
C      1  0.5247650000000  0.4093750000000  0.4672070000000 1.0
C      1  0.5091460000000  0.5030220000000  0.4360720000000 1.0
C      1  0.4545600000000  0.5486760000000  0.4154530000000 1.0
C      1  0.4780960000000  0.4658770000000  0.4546990000000 1.0
C      1  0.5229570000000  0.5069690000000  0.3650820000000 1.0
C      1  0.4267200000000  0.3569340000000  0.5104480000000 1.0
C      1  0.4477100000000  0.4966630000000  0.5628320000000 1.0
C      1  0.4322760000000  0.5317970000000  0.4989620000000 1.0
C      1  0.4404750000000  0.5848060000000  0.4813880000000 1.0
C      1  0.5712960000000  0.4055920000000  0.5164380000000 1.0
C      1  0.5466190000000  0.4232760000000  0.5851860000000 1.0
C      1  0.4075420000000  0.4190260000000  0.4843250000000 1.0
C      1  0.5151520000000  0.6075350000000  0.5273070000000 1.0
C      1  0.5757320000000  0.5564090000000  0.3981390000000 1.0
C      1  0.5729080000000  0.4354320000000  0.5778960000000 1.0
C      1  0.5449980000000  0.5240470000000  0.3695850000000 1.0
C      1  0.5736410000000  0.6072430000000  0.4471150000000 1.0
C      1  0.5206600000000  0.5007120000000  0.6264160000000 1.0
C      1  0.4975500000000  0.4295310000000  0.6064160000000 1.0
C      1  0.3995870000000  0.3967950000000  0.4965040000000 1.0
C      1  0.4634990000000  0.5901920000000  0.6047060000000 1.0
C      1  0.5602120000000  0.5728550000000  0.4171050000000 1.0
C      1  0.4065500000000  0.5071000000000  0.4678470000000 1.0
C      1  0.3928390000000  0.5177600000000  0.4453840000000 1.0
C      1  0.5171160000000  0.4430820000000  0.3980000000000 1.0
C      1  0.4008480000000  0.4769070000000  0.5080600000000 1.0
C      1  0.5671740000000  0.5511400000000  0.4751710000000 1.0
C      1  0.5744930000000  0.5241720000000  0.4781870000000 1.0
C      1  0.6230660000000  0.5404380000000  0.5088280000000 1.0
C      1  0.5679680000000  0.5978510000000  0.5612180000000 1.0
C      1  0.4650610000000  0.4878060000000  0.3797390000000 1.0
C      1  0.5244910000000  0.5329710000000  0.5056500000000 1.0
C      1  0.6104490000000  0.5599290000000  0.4951300000000 1.0
C      1  0.4506690000000  0.4330530000000  0.5822390000000 1.0
C      1  0.4287480000000  0.5117630000000  0.5788430000000 1.0
C      1  0.5570190000000  0.4689660000000  0.5486220000000 1.0
C      1  0.6019910000000  0.5479120000000  0.4043260000000 1.0
C      1  0.4163600000000  0.5641660000000  0.4391050000000 1.0
C      1  0.5200740000000  0.4364180000000  0.5894150000000 1.0
C      1  0.5271370000000  0.4611870000000  0.4416800000000 1.0
C      1  0.4851810000000  0.5504380000000  0.5330150000000 1.0
C      1  0.5065270000000  0.4357050000000  0.5412070000000 1.0
C      1  0.5458970000000  0.4065600000000  0.5296170000000 1.0
C      1  0.6234320000000  0.4912900000000  0.5287310000000 1.0
C      1  0.4311670000000  0.5196140000000  0.4731150000000 1.0
C      1  0.4180050000000  0.4716980000000  0.5978600000000 1.0
C      1  0.5685560000000  0.4831360000000  0.5023560000000 1.0
C      1  0.4898610000000  0.5195340000000  0.4260780000000 1.0
END
