TITL C-612607-4507-1488 0.0228888180990558 125000 -1029.67632717746 0 0 167 (C1) n - 1
REM
REM in /home/nfs/bkarasulu/CARBON/AIRSS/Generating-Clusters/TERSOFF/Only-C1/FIRE-HFTN
REM
REM
REM
REM
REM
REM ./C.cell (11c1c37f851c82e70ff6c80c92926a4b)
REM AIRSS Version 0.9.1 bugfix July 2018 build 013d7b7c2542+ Fri, 06 Jul 2018 19:26:36 +0100
REM compiler GCC version 9.2.1 20190827 (Red Hat 9.2.1-1)
REM options -cpp -mtune=generic -march=x86-64 -g -O0 -fpre-include=/usr/include/finclude/math-vector-fortran.h
REM seed -369350569 1947997788 42440994 -2123577966 -649011965 -1284870011 212853702 435892338 -1156263356 -734019440 992466768 -1087034338 -58276616 969503315 -1037363004 627193727 1600831811 1296827748 1702631114 2038588202 -890815254 1904697343 -2142552434 -1500963650 1313881830 -1333449440 545785967 -2001508873 -1653586816 -555540717 382033396 -216238203 -1975966924
REM
CELL 1.54180   50.00000   50.00000   50.00000   90.00000   90.00000   90.00000
LATT -1
SFAC C  
C      1  0.5337430000000  0.5194830000000  0.4350370000000 1.0
C      1  0.5196630000000  0.4578840000000  0.4612680000000 1.0
C      1  0.4914380000000  0.4109720000000  0.5747300000000 1.0
C      1  0.4524110000000  0.4815660000000  0.5193410000000 1.0
C      1  0.4544540000000  0.4713270000000  0.4370330000000 1.0
C      1  0.5380830000000  0.4643260000000  0.3825880000000 1.0
C      1  0.5063870000000  0.5123230000000  0.4430060000000 1.0
C      1  0.3914270000000  0.4133640000000  0.4764540000000 1.0
C      1  0.5017400000000  0.5873890000000  0.4131340000000 1.0
C      1  0.4777950000000  0.5767360000000  0.4074280000000 1.0
C      1  0.4190270000000  0.4959900000000  0.5568120000000 1.0
C      1  0.4552490000000  0.5602410000000  0.5609340000000 1.0
C      1  0.5137420000000  0.5067890000000  0.3726760000000 1.0
C      1  0.4822120000000  0.4649960000000  0.4341930000000 1.0
C      1  0.5480420000000  0.4319330000000  0.5152790000000 1.0
C      1  0.5932310000000  0.4796610000000  0.5524970000000 1.0
C      1  0.5171720000000  0.4637610000000  0.4902950000000 1.0
C      1  0.6027140000000  0.5048610000000  0.5546630000000 1.0
C      1  0.3773860000000  0.4395970000000  0.4383260000000 1.0
C      1  0.4672500000000  0.5483050000000  0.5857480000000 1.0
C      1  0.4142560000000  0.5715150000000  0.4943880000000 1.0
C      1  0.4291600000000  0.6012810000000  0.5496500000000 1.0
C      1  0.5540290000000  0.4198550000000  0.4484730000000 1.0
C      1  0.4474440000000  0.4562570000000  0.5588210000000 1.0
C      1  0.5482430000000  0.4523730000000  0.4075110000000 1.0
C      1  0.5348580000000  0.5005740000000  0.6170920000000 1.0
C      1  0.6116000000000  0.5123660000000  0.4920160000000 1.0
C      1  0.5306910000000  0.4867880000000  0.5432680000000 1.0
C      1  0.6138340000000  0.5287640000000  0.5151890000000 1.0
C      1  0.5406880000000  0.5592990000000  0.5812360000000 1.0
C      1  0.4159980000000  0.4128030000000  0.4351760000000 1.0
C      1  0.4158560000000  0.4546710000000  0.4114520000000 1.0
C      1  0.6003000000000  0.4716480000000  0.4421130000000 1.0
C      1  0.5606410000000  0.5425870000000  0.5675110000000 1.0
C      1  0.4385350000000  0.4790560000000  0.5443710000000 1.0
C      1  0.4193560000000  0.5022640000000  0.5840730000000 1.0
C      1  0.4548820000000  0.5879540000000  0.5542660000000 1.0
C      1  0.5640440000000  0.5919480000000  0.4484780000000 1.0
C      1  0.4937950000000  0.6198910000000  0.4474490000000 1.0
C      1  0.4222050000000  0.4929410000000  0.4699830000000 1.0
C      1  0.4846820000000  0.5027620000000  0.5450470000000 1.0
C      1  0.4965150000000  0.4893270000000  0.4286630000000 1.0
C      1  0.4455510000000  0.4882340000000  0.3923180000000 1.0
C      1  0.5519540000000  0.4792830000000  0.6240390000000 1.0
C      1  0.5665990000000  0.5607190000000  0.5221930000000 1.0
C      1  0.4892030000000  0.4383400000000  0.5184790000000 1.0
C      1  0.5786210000000  0.5478450000000  0.5450460000000 1.0
C      1  0.5060060000000  0.3855680000000  0.5012750000000 1.0
C      1  0.5534410000000  0.6107480000000  0.4926910000000 1.0
C      1  0.4357590000000  0.5536660000000  0.4915120000000 1.0
C      1  0.5206710000000  0.6219670000000  0.5278960000000 1.0
C      1  0.5338720000000  0.4932350000000  0.3864960000000 1.0
C      1  0.4852230000000  0.3956960000000  0.4579400000000 1.0
C      1  0.5380370000000  0.4042400000000  0.5628670000000 1.0
C      1  0.4446990000000  0.5657620000000  0.4440550000000 1.0
C      1  0.5022120000000  0.6100020000000  0.5463290000000 1.0
C      1  0.4792650000000  0.5458130000000  0.4695940000000 1.0
C      1  0.5106640000000  0.4249900000000  0.3687320000000 1.0
C      1  0.4796520000000  0.6270860000000  0.4689580000000 1.0
C      1  0.5551580000000  0.5336650000000  0.4490640000000 1.0
C      1  0.6175910000000  0.4848060000000  0.4954120000000 1.0
C      1  0.5153810000000  0.5652210000000  0.5264940000000 1.0
C      1  0.5594610000000  0.4392110000000  0.5907190000000 1.0
C      1  0.5290200000000  0.3932290000000  0.4863100000000 1.0
C      1  0.4380530000000  0.4715270000000  0.4135830000000 1.0
C      1  0.5303820000000  0.6012830000000  0.4782910000000 1.0
C      1  0.5598090000000  0.4406370000000  0.5412120000000 1.0
C      1  0.5347000000000  0.5956850000000  0.4501890000000 1.0
C      1  0.5417390000000  0.4715980000000  0.4511080000000 1.0
C      1  0.5482330000000  0.6191500000000  0.5195690000000 1.0
C      1  0.4365830000000  0.4317600000000  0.5482270000000 1.0
C      1  0.5074700000000  0.4105390000000  0.3912300000000 1.0
C      1  0.5182890000000  0.4136110000000  0.4168000000000 1.0
C      1  0.4803250000000  0.4899290000000  0.5702880000000 1.0
C      1  0.6132490000000  0.4592710000000  0.5027850000000 1.0
C      1  0.5965320000000  0.5226380000000  0.4701530000000 1.0
C      1  0.5410380000000  0.5710400000000  0.5259660000000 1.0
C      1  0.5392100000000  0.5872900000000  0.5754580000000 1.0
C      1  0.5371550000000  0.4953210000000  0.5696710000000 1.0
C      1  0.5728350000000  0.4319010000000  0.4662230000000 1.0
C      1  0.5713400000000  0.4285860000000  0.4956140000000 1.0
C      1  0.5701130000000  0.5348520000000  0.4748550000000 1.0
C      1  0.5615970000000  0.4752950000000  0.4714180000000 1.0
C      1  0.5770800000000  0.5717300000000  0.4326920000000 1.0
C      1  0.4513750000000  0.5406600000000  0.5388620000000 1.0
C      1  0.5209440000000  0.5457240000000  0.5986520000000 1.0
C      1  0.4105410000000  0.5160200000000  0.5128690000000 1.0
C      1  0.5750500000000  0.6052430000000  0.4731930000000 1.0
C      1  0.4884940000000  0.5198650000000  0.4641810000000 1.0
C      1  0.5831500000000  0.4588200000000  0.4605800000000 1.0
C      1  0.4055460000000  0.5962570000000  0.5630620000000 1.0
C      1  0.5541810000000  0.4272490000000  0.5655790000000 1.0
C      1  0.4653820000000  0.3999670000000  0.5699670000000 1.0
C      1  0.4531900000000  0.5564390000000  0.4692200000000 1.0
C      1  0.5713650000000  0.5540380000000  0.4953420000000 1.0
C      1  0.3760290000000  0.4358290000000  0.4665530000000 1.0
C      1  0.5460350000000  0.4747570000000  0.4958700000000 1.0
C      1  0.5327560000000  0.5292170000000  0.6200940000000 1.0
C      1  0.4838950000000  0.3808940000000  0.4826560000000 1.0
C      1  0.5571230000000  0.5149690000000  0.5718250000000 1.0
C      1  0.4986780000000  0.4447630000000  0.4470050000000 1.0
C      1  0.5972690000000  0.4375650000000  0.5056210000000 1.0
C      1  0.4374490000000  0.5309550000000  0.5113260000000 1.0
C      1  0.4609800000000  0.6199380000000  0.5191320000000 1.0
C      1  0.5424230000000  0.5008280000000  0.4135180000000 1.0
C      1  0.5541760000000  0.4842790000000  0.5235070000000 1.0
C      1  0.5073760000000  0.4959750000000  0.5304740000000 1.0
C      1  0.4692600000000  0.4584450000000  0.5065540000000 1.0
C      1  0.4058280000000  0.4949570000000  0.4932260000000 1.0
C      1  0.4335550000000  0.6198030000000  0.5281190000000 1.0
C      1  0.4024480000000  0.5106890000000  0.5393970000000 1.0
C      1  0.4780950000000  0.4137530000000  0.5274650000000 1.0
C      1  0.4554910000000  0.4107790000000  0.5454140000000 1.0
C      1  0.3984640000000  0.4084930000000  0.5261370000000 1.0
C      1  0.5120320000000  0.6020680000000  0.4346510000000 1.0
C      1  0.4999600000000  0.3941480000000  0.5285960000000 1.0
C      1  0.4170340000000  0.4108660000000  0.4634360000000 1.0
C      1  0.4945210000000  0.5054570000000  0.5893860000000 1.0
C      1  0.4886930000000  0.4755060000000  0.4898080000000 1.0
C      1  0.5585220000000  0.5126640000000  0.5166090000000 1.0
C      1  0.5127150000000  0.5126090000000  0.5080020000000 1.0
C      1  0.4548210000000  0.5707090000000  0.4197710000000 1.0
C      1  0.5593340000000  0.4565390000000  0.6113010000000 1.0
C      1  0.4717900000000  0.4985210000000  0.4775690000000 1.0
C      1  0.4627710000000  0.5016380000000  0.3770910000000 1.0
C      1  0.5491280000000  0.4751530000000  0.4249610000000 1.0
C      1  0.5206360000000  0.4947330000000  0.5928140000000 1.0
C      1  0.5049450000000  0.4144040000000  0.4449370000000 1.0
C      1  0.4515280000000  0.4410700000000  0.4898480000000 1.0
C      1  0.4969630000000  0.5480900000000  0.5338090000000 1.0
C      1  0.5367740000000  0.5239800000000  0.5043490000000 1.0
C      1  0.4471640000000  0.5390280000000  0.6037710000000 1.0
C      1  0.4555520000000  0.5064720000000  0.5033070000000 1.0
C      1  0.4012660000000  0.4343580000000  0.4237350000000 1.0
C      1  0.5991330000000  0.5225430000000  0.4406220000000 1.0
C      1  0.4700660000000  0.6270910000000  0.4938470000000 1.0
C      1  0.5448660000000  0.4267840000000  0.4207220000000 1.0
C      1  0.4003240000000  0.4558320000000  0.5236840000000 1.0
C      1  0.3883520000000  0.4021800000000  0.5020030000000 1.0
C      1  0.3840470000000  0.5872510000000  0.5756550000000 1.0
C      1  0.5614360000000  0.6019480000000  0.5651370000000 1.0
C      1  0.5720950000000  0.4664850000000  0.5393360000000 1.0
C      1  0.5657270000000  0.6149460000000  0.5416420000000 1.0
C      1  0.5112280000000  0.3992100000000  0.5561010000000 1.0
C      1  0.4873170000000  0.5089450000000  0.3697800000000 1.0
C      1  0.6013060000000  0.6114970000000  0.4769050000000 1.0
C      1  0.3634950000000  0.5770020000000  0.5879900000000 1.0
C      1  0.4937920000000  0.5354890000000  0.5904710000000 1.0
C      1  0.4111760000000  0.4320850000000  0.5349970000000 1.0
C      1  0.3917850000000  0.4711210000000  0.5013710000000 1.0
C      1  0.5311490000000  0.4074480000000  0.4619050000000 1.0
C      1  0.4483960000000  0.4878040000000  0.4598790000000 1.0
C      1  0.6048350000000  0.4962690000000  0.4313370000000 1.0
C      1  0.5245220000000  0.4477050000000  0.3645170000000 1.0
C      1  0.4639460000000  0.3629910000000  0.4879450000000 1.0
C      1  0.5781410000000  0.5427650000000  0.4315570000000 1.0
C      1  0.4895870000000  0.4395760000000  0.5796240000000 1.0
C      1  0.4751600000000  0.6045140000000  0.5398650000000 1.0
C      1  0.4726080000000  0.4617200000000  0.5722760000000 1.0
C      1  0.3919550000000  0.5850040000000  0.4941300000000 1.0
C      1  0.5140280000000  0.5991470000000  0.5697640000000 1.0
C      1  0.5180220000000  0.4403930000000  0.5101250000000 1.0
C      1  0.4773280000000  0.5290500000000  0.5388980000000 1.0
C      1  0.3741620000000  0.4581910000000  0.4835320000000 1.0
C      1  0.4288530000000  0.5195040000000  0.6021350000000 1.0
C      1  0.4389870000000  0.4214040000000  0.4771890000000 1.0
C      1  0.6009300000000  0.5295250000000  0.5404860000000 1.0
END
