TITL C-612606-7351-1038 156.790977952059 125000 -712.590899772133 0 0 119 (C1) n - 1
REM
REM in /home/nfs/bkarasulu/CARBON/AIRSS/Generating-Clusters/TERSOFF/Only-C1/FIRE-HFTN
REM
REM
REM
REM
REM
REM ./C.cell (11c1c37f851c82e70ff6c80c92926a4b)
REM AIRSS Version 0.9.1 bugfix July 2018 build 013d7b7c2542+ Fri, 06 Jul 2018 19:26:36 +0100
REM compiler GCC version 9.2.1 20190827 (Red Hat 9.2.1-1)
REM options -cpp -mtune=generic -march=x86-64 -g -O0 -fpre-include=/usr/include/finclude/math-vector-fortran.h
REM seed 1564508703 -1669689250 613331107 528560986 620023116 1731927084 1370322100 -257630112 13291288 -670555483 1221994286 -1852316637 192376195 1415853543 1448565584 1716966665 -2044392630 -1174419438 -233150426 1050323524 527422449 -1411190304 1419580394 1189991473 -1797303036 1828388453 -1386756943 28242404 -1525628383 -1409887192 333090448 -1757161358 1248142714
REM
CELL 1.54180   50.00000   50.00000   50.00000   90.00000   90.00000   90.00000
LATT -1
SFAC C  
C      1  0.5203030000000  0.6084450000000  0.5248890000000 1.0
C      1  0.5020190000000  0.4879550000000  0.5035790000000 1.0
C      1  0.4432730000000  0.4199560000000  0.5478770000000 1.0
C      1  0.4182060000000  0.4905890000000  0.4277950000000 1.0
C      1  0.4278780000000  0.4885390000000  0.5501660000000 1.0
C      1  0.4344340000000  0.5043750000000  0.5017450000000 1.0
C      1  0.5606000000000  0.4441560000000  0.5463710000000 1.0
C      1  0.5296550000000  0.4237620000000  0.4611960000000 1.0
C      1  0.4797550000000  0.4214220000000  0.4529090000000 1.0
C      1  0.5149060000000  0.4832280000000  0.4504530000000 1.0
C      1  0.4860930000000  0.5649120000000  0.5777610000000 1.0
C      1  0.4502160000000  0.5452820000000  0.4643720000000 1.0
C      1  0.4810920000000  0.4576010000000  0.4770110000000 1.0
C      1  0.5407520000000  0.5161210000000  0.4807510000000 1.0
C      1  0.5454820000000  0.4915400000000  0.5854870000000 1.0
C      1  0.5125380000000  0.5829430000000  0.4796800000000 1.0
C      1  0.5323000000000  0.5587400000000  0.5221790000000 1.0
C      1  0.5183280000000  0.5736760000000  0.4317980000000 1.0
C      1  0.4766410000000  0.5946050000000  0.5275190000000 1.0
C      1  0.4431730000000  0.5675030000000  0.5114560000000 1.0
C      1  0.5720030000000  0.5751270000000  0.5469240000000 1.0
C      1  0.5196490000000  0.4420100000000  0.5716750000000 1.0
C      1  0.6007180000000  0.5026460000000  0.4728540000000 1.0
C      1  0.4605050000000  0.4512520000000  0.4165060000000 1.0
C      1  0.5048040000000  0.4711280000000  0.4091400000000 1.0
C      1  0.4260190000000  0.4815840000000  0.5227930000000 1.0
C      1  0.5560410000000  0.4729470000000  0.5475740000000 1.0
C      1  0.5564730000000  0.5659390000000  0.4613960000000 1.0
C      1  0.5588720000000  0.4547910000000  0.5027560000000 1.0
C      1  0.5266700000000  0.4054130000000  0.5122300000000 1.0
C      1  0.4604320000000  0.4479610000000  0.4955090000000 1.0
C      1  0.4747360000000  0.4506120000000  0.5429880000000 1.0
C      1  0.4718340000000  0.4792820000000  0.4606600000000 1.0
C      1  0.5411490000000  0.4267360000000  0.5580700000000 1.0
C      1  0.3823840000000  0.5017500000000  0.5037270000000 1.0
C      1  0.5550550000000  0.5819240000000  0.5682610000000 1.0
C      1  0.6110080000000  0.5021990000000  0.5000020000000 1.0
C      1  0.5011690000000  0.4446630000000  0.5492630000000 1.0
C      1  0.4615260000000  0.5128140000000  0.5104880000000 1.0
C      1  0.5788310000000  0.4531360000000  0.4583920000000 1.0
C      1  0.5150330000000  0.5007080000000  0.4105470000000 1.0
C      1  0.4939590000000  0.5022570000000  0.5463340000000 1.0
C      1  0.5771290000000  0.5547700000000  0.5023690000000 1.0
C      1  0.4704710000000  0.4986390000000  0.3949470000000 1.0
C      1  0.4998100000000  0.5989610000000  0.5422740000000 1.0
C      1  0.5832610000000  0.5252330000000  0.4336670000000 1.0
C      1  0.5334920000000  0.5158470000000  0.4284650000000 1.0
C      1  0.5333960000000  0.4037860000000  0.5407480000000 1.0
C      1  0.4941170000000  0.5441390000000  0.3929500000000 1.0
C      1  0.4328950000000  0.4467810000000  0.4873110000000 1.0
C      1  0.4112130000000  0.5382340000000  0.4373200000000 1.0
C      1  0.5184100000000  0.4572480000000  0.5303580000000 1.0
C      1  0.5219930000000  0.6021510000000  0.4985010000000 1.0
C      1  0.5036890000000  0.5849950000000  0.5670900000000 1.0
C      1  0.5200480000000  0.4674000000000  0.5873890000000 1.0
C      1  0.5373040000000  0.4692050000000  0.4503600000000 1.0
C      1  0.4743020000000  0.4884060000000  0.5075250000000 1.0
C      1  0.5071830000000  0.4273270000000  0.4410030000000 1.0
C      1  0.5324740000000  0.3788660000000  0.5525940000000 1.0
C      1  0.5936850000000  0.4941850000000  0.5523630000000 1.0
C      1  0.4874970000000  0.5270280000000  0.5322930000000 1.0
C      1  0.5707940000000  0.4809850000000  0.5042070000000 1.0
C      1  0.5605130000000  0.5635840000000  0.5234230000000 1.0
C      1  0.5079650000000  0.4634780000000  0.4880630000000 1.0
C      1  0.5296660000000  0.4528450000000  0.5038470000000 1.0
C      1  0.4216290000000  0.5443420000000  0.4629440000000 1.0
C      1  0.5144170000000  0.5401320000000  0.5341530000000 1.0
C      1  0.5937040000000  0.4762740000000  0.4614690000000 1.0
C      1  0.4559230000000  0.4378810000000  0.4420290000000 1.0
C      1  0.4861960000000  0.4087380000000  0.4805520000000 1.0
C      1  0.4453200000000  0.4730750000000  0.5687010000000 1.0
C      1  0.5989500000000  0.5794740000000  0.5487390000000 1.0
C      1  0.5301160000000  0.5858000000000  0.5769250000000 1.0
C      1  0.5473190000000  0.5051120000000  0.5316910000000 1.0
C      1  0.4927190000000  0.4776990000000  0.5922070000000 1.0
C      1  0.5895290000000  0.5271900000000  0.4612880000000 1.0
C      1  0.4667310000000  0.4888770000000  0.5843020000000 1.0
C      1  0.5297240000000  0.5754250000000  0.4575790000000 1.0
C      1  0.4107490000000  0.5334970000000  0.5334210000000 1.0
C      1  0.5765570000000  0.5499800000000  0.4746070000000 1.0
C      1  0.5162310000000  0.4103600000000  0.4854220000000 1.0
C      1  0.4111600000000  0.5159640000000  0.4222310000000 1.0
C      1  0.4130140000000  0.4614890000000  0.5047230000000 1.0
C      1  0.5334100000000  0.5223940000000  0.5490050000000 1.0
C      1  0.5122220000000  0.4452620000000  0.4190420000000 1.0
C      1  0.5947690000000  0.4902770000000  0.5209480000000 1.0
C      1  0.4251840000000  0.4785990000000  0.4521720000000 1.0
C      1  0.5602660000000  0.5204300000000  0.4207560000000 1.0
C      1  0.4754710000000  0.4717890000000  0.4038270000000 1.0
C      1  0.5507680000000  0.4447840000000  0.4569310000000 1.0
C      1  0.4633780000000  0.5186360000000  0.5848680000000 1.0
C      1  0.4838100000000  0.5538320000000  0.3694860000000 1.0
C      1  0.4038940000000  0.5417600000000  0.4854840000000 1.0
C      1  0.5518920000000  0.5031510000000  0.5038520000000 1.0
C      1  0.4518370000000  0.4454690000000  0.5593430000000 1.0
C      1  0.4854730000000  0.5376910000000  0.5870870000000 1.0
C      1  0.3963590000000  0.4806510000000  0.4898410000000 1.0
C      1  0.3950350000000  0.5270910000000  0.5093060000000 1.0
C      1  0.4194980000000  0.4944890000000  0.4760950000000 1.0
C      1  0.5058880000000  0.5620330000000  0.4112700000000 1.0
C      1  0.4378490000000  0.5275010000000  0.5755350000000 1.0
C      1  0.4965870000000  0.5258180000000  0.4601490000000 1.0
C      1  0.4257530000000  0.5572490000000  0.5289360000000 1.0
C      1  0.4668630000000  0.4627060000000  0.5186920000000 1.0
C      1  0.5100880000000  0.4843170000000  0.5315410000000 1.0
C      1  0.4905970000000  0.4985190000000  0.4542010000000 1.0
C      1  0.4785070000000  0.5466400000000  0.4688920000000 1.0
C      1  0.4339610000000  0.4511430000000  0.4580810000000 1.0
C      1  0.5259940000000  0.5247250000000  0.4567360000000 1.0
C      1  0.4216220000000  0.5164970000000  0.5548590000000 1.0
C      1  0.5114250000000  0.5273660000000  0.5923840000000 1.0
C      1  0.5712990000000  0.4367380000000  0.5210610000000 1.0
C      1  0.4686030000000  0.5780650000000  0.5063350000000 1.0
C      1  0.5326020000000  0.5164040000000  0.5774390000000 1.0
C      1  0.4533900000000  0.4062830000000  0.5258020000000 1.0
C      1  0.4868600000000  0.5696260000000  0.4848640000000 1.0
C      1  0.5697990000000  0.4853150000000  0.5688950000000 1.0
C      1  0.4929640000000  0.5163860000000  0.3983020000000 1.0
C      1  0.4682740000000  0.4027310000000  0.5028510000000 1.0
END
