TITL C-612607-4507-577 3.08508536398283 125000 -241.77453138242 0 0 40 (C1) n - 1
REM
REM in /home/nfs/bkarasulu/CARBON/AIRSS/Generating-Clusters/TERSOFF/Only-C1/FIRE-HFTN
REM
REM
REM
REM
REM
REM ./C.cell (11c1c37f851c82e70ff6c80c92926a4b)
REM AIRSS Version 0.9.1 bugfix July 2018 build 013d7b7c2542+ Fri, 06 Jul 2018 19:26:36 +0100
REM compiler GCC version 9.2.1 20190827 (Red Hat 9.2.1-1)
REM options -cpp -mtune=generic -march=x86-64 -g -O0 -fpre-include=/usr/include/finclude/math-vector-fortran.h
REM seed 1614018471 934745936 -161987678 -1800720287 118108889 355778524 -314555039 948252259 545773925 1188212825 1957081079 1920752791 -2084438167 -1555825286 -189148977 347751801 -696905393 -1214372550 1590697325 -899703207 -1730776110 210773326 1388734366 -1837143515 2142279674 -1394427309 -582384158 -1816278940 704732756 1666274996 1195010318 -1241893898 1446769968
REM
CELL 1.54180   50.00000   50.00000   50.00000   90.00000   90.00000   90.00000
LATT -1
SFAC C  
C      1  0.3943270000000  0.4823460000000  0.6436540000000 1.0
C      1  0.4839310000000  0.4928090000000  0.5252200000000 1.0
C      1  0.5207630000000  0.5653600000000  0.4366470000000 1.0
C      1  0.5466760000000  0.5360850000000  0.3579100000000 1.0
C      1  0.5068660000000  0.5125470000000  0.4817230000000 1.0
C      1  0.6050080000000  0.5094320000000  0.4121570000000 1.0
C      1  0.3836980000000  0.4712700000000  0.6653390000000 1.0
C      1  0.5630230000000  0.5196440000000  0.3737760000000 1.0
C      1  0.5895010000000  0.4970850000000  0.3392400000000 1.0
C      1  0.5596880000000  0.5486680000000  0.4599790000000 1.0
C      1  0.4566420000000  0.4377000000000  0.6016120000000 1.0
C      1  0.5582550000000  0.5202500000000  0.4021360000000 1.0
C      1  0.5779060000000  0.5366160000000  0.4441900000000 1.0
C      1  0.5176100000000  0.5662650000000  0.3861470000000 1.0
C      1  0.4104070000000  0.4839860000000  0.6225850000000 1.0
C      1  0.4290300000000  0.4771590000000  0.6049600000000 1.0
C      1  0.4037470000000  0.4063530000000  0.6910710000000 1.0
C      1  0.5319920000000  0.5249370000000  0.4120230000000 1.0
C      1  0.4525630000000  0.3991230000000  0.6365910000000 1.0
C      1  0.5284960000000  0.5552400000000  0.3628000000000 1.0
C      1  0.4724740000000  0.4829460000000  0.5469840000000 1.0
C      1  0.5027790000000  0.6039050000000  0.4133400000000 1.0
C      1  0.4227010000000  0.3927280000000  0.6783190000000 1.0
C      1  0.6059430000000  0.5026430000000  0.3847650000000 1.0
C      1  0.4489580000000  0.4627010000000  0.5916560000000 1.0
C      1  0.3813340000000  0.4518450000000  0.6833350000000 1.0
C      1  0.4953890000000  0.5026720000000  0.5034560000000 1.0
C      1  0.4402530000000  0.3904490000000  0.6584810000000 1.0
C      1  0.5190030000000  0.5231060000000  0.4592140000000 1.0
C      1  0.5806620000000  0.5218360000000  0.4203590000000 1.0
C      1  0.5211580000000  0.5101060000000  0.4338870000000 1.0
C      1  0.5099490000000  0.5913880000000  0.4363880000000 1.0
C      1  0.4579840000000  0.4159950000000  0.6168150000000 1.0
C      1  0.4610220000000  0.4730870000000  0.5687390000000 1.0
C      1  0.5314040000000  0.5492100000000  0.4578200000000 1.0
C      1  0.3885310000000  0.4280980000000  0.6929160000000 1.0
C      1  0.5222740000000  0.5520350000000  0.4106390000000 1.0
C      1  0.5060950000000  0.5919500000000  0.3891430000000 1.0
C      1  0.6256080000000  0.5043080000000  0.4292440000000 1.0
C      1  0.5863530000000  0.5061200000000  0.3647380000000 1.0
END
