TITL C-612600-6631-1369 20.0788426305159 125000 -959.184393194782 0 0 156 (C1) n - 1
REM
REM in /home/nfs/bkarasulu/CARBON/AIRSS/Generating-Clusters/TERSOFF/Only-C1/FIRE-HFTN
REM
REM
REM
REM
REM
REM ./C.cell (11c1c37f851c82e70ff6c80c92926a4b)
REM AIRSS Version 0.9.1 bugfix July 2018 build 013d7b7c2542+ Fri, 06 Jul 2018 19:26:36 +0100
REM compiler GCC version 9.2.1 20190827 (Red Hat 9.2.1-1)
REM options -cpp -mtune=generic -march=x86-64 -g -O0 -fpre-include=/usr/include/finclude/math-vector-fortran.h
REM seed 1588741347 -1476662703 -1331439184 -1164682161 -1084222240 -1957844578 -1511498201 704741310 1178467395 265036746 -1097387576 547758301 2009760610 -226036506 -1768447905 1885306605 -587007693 884386129 -778007926 -1347637045 291094622 2048194083 -53181170 2014684651 -115828184 1716004824 2024052258 1782161620 1550726127 -116570598 -1384708982 1143003997 -714285295
REM
CELL 1.54180   50.00000   50.00000   50.00000   90.00000   90.00000   90.00000
LATT -1
SFAC C  
C      1  0.4823370000000  0.4129290000000  0.4589980000000 1.0
C      1  0.5101630000000  0.5431560000000  0.3818560000000 1.0
C      1  0.5487550000000  0.5579150000000  0.4113360000000 1.0
C      1  0.4952810000000  0.5061050000000  0.4566160000000 1.0
C      1  0.3979110000000  0.4623970000000  0.4840920000000 1.0
C      1  0.4997640000000  0.4559330000000  0.5562260000000 1.0
C      1  0.5487200000000  0.4389820000000  0.4258060000000 1.0
C      1  0.5710440000000  0.4351530000000  0.4432350000000 1.0
C      1  0.4291910000000  0.5925170000000  0.4637020000000 1.0
C      1  0.5587370000000  0.5824080000000  0.5593980000000 1.0
C      1  0.4287760000000  0.4927960000000  0.5446320000000 1.0
C      1  0.4799870000000  0.4406260000000  0.4197360000000 1.0
C      1  0.4618130000000  0.5059840000000  0.5010440000000 1.0
C      1  0.5218830000000  0.5094280000000  0.4686660000000 1.0
C      1  0.4179110000000  0.4476070000000  0.5945060000000 1.0
C      1  0.5095240000000  0.5977580000000  0.5538950000000 1.0
C      1  0.4361720000000  0.5585750000000  0.5810490000000 1.0
C      1  0.5350920000000  0.4696150000000  0.5829990000000 1.0
C      1  0.4972140000000  0.4041130000000  0.4813210000000 1.0
C      1  0.5078060000000  0.5362000000000  0.5142210000000 1.0
C      1  0.4081140000000  0.5100560000000  0.5820710000000 1.0
C      1  0.5830880000000  0.5575760000000  0.4852030000000 1.0
C      1  0.6040360000000  0.4996900000000  0.5253130000000 1.0
C      1  0.4175140000000  0.4674600000000  0.4632380000000 1.0
C      1  0.5073180000000  0.4902760000000  0.5058720000000 1.0
C      1  0.4692450000000  0.4597990000000  0.4609030000000 1.0
C      1  0.5193210000000  0.5264980000000  0.5655480000000 1.0
C      1  0.4568760000000  0.4075380000000  0.4450630000000 1.0
C      1  0.4009570000000  0.4383490000000  0.5000750000000 1.0
C      1  0.4627140000000  0.4426600000000  0.5133670000000 1.0
C      1  0.4985140000000  0.5572850000000  0.3609520000000 1.0
C      1  0.5203600000000  0.5591730000000  0.4522130000000 1.0
C      1  0.5141030000000  0.4739440000000  0.4086060000000 1.0
C      1  0.5982600000000  0.5235050000000  0.5422210000000 1.0
C      1  0.4356690000000  0.5496850000000  0.5344390000000 1.0
C      1  0.5675210000000  0.5792270000000  0.4760520000000 1.0
C      1  0.5259970000000  0.5522410000000  0.5274160000000 1.0
C      1  0.5419690000000  0.5428900000000  0.4514270000000 1.0
C      1  0.4756110000000  0.5969590000000  0.4415900000000 1.0
C      1  0.4136190000000  0.4239550000000  0.5223360000000 1.0
C      1  0.4908640000000  0.5684930000000  0.4862990000000 1.0
C      1  0.4112410000000  0.4860610000000  0.5657360000000 1.0
C      1  0.4177420000000  0.5467090000000  0.4885440000000 1.0
C      1  0.5274930000000  0.4967960000000  0.3969520000000 1.0
C      1  0.5193350000000  0.5317310000000  0.6222420000000 1.0
C      1  0.5701500000000  0.5690210000000  0.5359650000000 1.0
C      1  0.4612760000000  0.4822520000000  0.4068170000000 1.0
C      1  0.4181810000000  0.5712810000000  0.4754310000000 1.0
C      1  0.5934900000000  0.4487210000000  0.4323560000000 1.0
C      1  0.4326380000000  0.4446090000000  0.4161650000000 1.0
C      1  0.5175350000000  0.5720980000000  0.4774880000000 1.0
C      1  0.4236510000000  0.5207980000000  0.4773880000000 1.0
C      1  0.4901120000000  0.4383040000000  0.5968360000000 1.0
C      1  0.6216650000000  0.5327620000000  0.4948170000000 1.0
C      1  0.5272960000000  0.4554300000000  0.4789210000000 1.0
C      1  0.4181840000000  0.5356620000000  0.5844590000000 1.0
C      1  0.5961120000000  0.5197550000000  0.5700080000000 1.0
C      1  0.4912440000000  0.4954080000000  0.6128200000000 1.0
C      1  0.4412390000000  0.5698680000000  0.5542910000000 1.0
C      1  0.5204030000000  0.5558400000000  0.4048360000000 1.0
C      1  0.4719800000000  0.4834520000000  0.5962430000000 1.0
C      1  0.4287140000000  0.4834110000000  0.5181630000000 1.0
C      1  0.4224580000000  0.4867260000000  0.4412310000000 1.0
C      1  0.5297930000000  0.5794990000000  0.5632460000000 1.0
C      1  0.5164230000000  0.5158550000000  0.4970200000000 1.0
C      1  0.5281290000000  0.4578310000000  0.4281280000000 1.0
C      1  0.4996320000000  0.4314160000000  0.5421850000000 1.0
C      1  0.4787930000000  0.5626740000000  0.6135540000000 1.0
C      1  0.5119540000000  0.4520980000000  0.5834040000000 1.0
C      1  0.5759390000000  0.4854070000000  0.4007610000000 1.0
C      1  0.4370250000000  0.3958550000000  0.4612110000000 1.0
C      1  0.4870240000000  0.5711130000000  0.3420860000000 1.0
C      1  0.4612380000000  0.5896800000000  0.5461900000000 1.0
C      1  0.5489410000000  0.5881830000000  0.4299310000000 1.0
C      1  0.4887770000000  0.4408040000000  0.4493910000000 1.0
C      1  0.4875170000000  0.4095900000000  0.5561420000000 1.0
C      1  0.4342510000000  0.5029340000000  0.4974710000000 1.0
C      1  0.5934710000000  0.5509730000000  0.5307600000000 1.0
C      1  0.5388190000000  0.4808850000000  0.5549670000000 1.0
C      1  0.4814000000000  0.4835630000000  0.4677130000000 1.0
C      1  0.5945110000000  0.4896050000000  0.4785240000000 1.0
C      1  0.5908940000000  0.4458690000000  0.5387110000000 1.0
C      1  0.4819830000000  0.5362520000000  0.5257790000000 1.0
C      1  0.5415650000000  0.4666870000000  0.5295210000000 1.0
C      1  0.4358230000000  0.4737530000000  0.4182480000000 1.0
C      1  0.5045560000000  0.5610470000000  0.4279980000000 1.0
C      1  0.5426020000000  0.5787680000000  0.4910410000000 1.0
C      1  0.5550610000000  0.5049240000000  0.4019160000000 1.0
C      1  0.5146840000000  0.4549180000000  0.4530070000000 1.0
C      1  0.4295530000000  0.3937860000000  0.4869230000000 1.0
C      1  0.4428450000000  0.4592880000000  0.5153090000000 1.0
C      1  0.5717460000000  0.4261160000000  0.5228130000000 1.0
C      1  0.4552050000000  0.5640890000000  0.6011460000000 1.0
C      1  0.3910020000000  0.5277170000000  0.5224620000000 1.0
C      1  0.4854900000000  0.4664180000000  0.4071170000000 1.0
C      1  0.4132770000000  0.5448870000000  0.5170760000000 1.0
C      1  0.5171170000000  0.5006530000000  0.5549160000000 1.0
C      1  0.3801340000000  0.5056180000000  0.5109640000000 1.0
C      1  0.5199120000000  0.4251880000000  0.5233210000000 1.0
C      1  0.5396650000000  0.4890050000000  0.6041830000000 1.0
C      1  0.4540410000000  0.4263320000000  0.4220620000000 1.0
C      1  0.4779580000000  0.5712060000000  0.4284340000000 1.0
C      1  0.4865750000000  0.6007190000000  0.5361810000000 1.0
C      1  0.5622570000000  0.3957540000000  0.5256610000000 1.0
C      1  0.5381470000000  0.3813470000000  0.5291150000000 1.0
C      1  0.5271460000000  0.4708680000000  0.5041160000000 1.0
C      1  0.5103680000000  0.3767510000000  0.5312040000000 1.0
C      1  0.4746390000000  0.5501420000000  0.4748660000000 1.0
C      1  0.4998840000000  0.6089140000000  0.4530870000000 1.0
C      1  0.5855380000000  0.5106640000000  0.5926320000000 1.0
C      1  0.4261450000000  0.5146040000000  0.4490210000000 1.0
C      1  0.5178040000000  0.5044000000000  0.6152070000000 1.0
C      1  0.4573470000000  0.5305910000000  0.5378180000000 1.0
C      1  0.5759570000000  0.5016380000000  0.4584450000000 1.0
C      1  0.5474100000000  0.4985170000000  0.4621640000000 1.0
C      1  0.5922820000000  0.4680100000000  0.4132740000000 1.0
C      1  0.4908360000000  0.6115500000000  0.5089110000000 1.0
C      1  0.4707770000000  0.4926790000000  0.5687010000000 1.0
C      1  0.5808770000000  0.5217320000000  0.4374990000000 1.0
C      1  0.4676180000000  0.4555940000000  0.6025890000000 1.0
C      1  0.4833130000000  0.3875780000000  0.5384050000000 1.0
C      1  0.5600110000000  0.5161530000000  0.5080840000000 1.0
C      1  0.4552500000000  0.5539680000000  0.4245320000000 1.0
C      1  0.5468460000000  0.5681730000000  0.5172830000000 1.0
C      1  0.4096070000000  0.4372150000000  0.5479210000000 1.0
C      1  0.3824580000000  0.4836770000000  0.4953110000000 1.0
C      1  0.5672880000000  0.5340530000000  0.4904300000000 1.0
C      1  0.5448140000000  0.4386440000000  0.5295800000000 1.0
C      1  0.5974080000000  0.4708520000000  0.5241400000000 1.0
C      1  0.4973110000000  0.6158090000000  0.4821310000000 1.0
C      1  0.4500010000000  0.6036260000000  0.4511410000000 1.0
C      1  0.4425280000000  0.4540800000000  0.4664960000000 1.0
C      1  0.5249330000000  0.6044800000000  0.4371890000000 1.0
C      1  0.5125500000000  0.5151970000000  0.3817520000000 1.0
C      1  0.4844540000000  0.4132250000000  0.5840800000000 1.0
C      1  0.5234390000000  0.5521910000000  0.5559770000000 1.0
C      1  0.5689310000000  0.5891110000000  0.4498590000000 1.0
C      1  0.4324430000000  0.4015250000000  0.5144740000000 1.0
C      1  0.4935000000000  0.4839550000000  0.5541940000000 1.0
C      1  0.5384310000000  0.4284810000000  0.4801040000000 1.0
C      1  0.4794880000000  0.5294590000000  0.4582160000000 1.0
C      1  0.4376550000000  0.5345570000000  0.4318330000000 1.0
C      1  0.5633160000000  0.5307880000000  0.4149010000000 1.0
C      1  0.5658700000000  0.4989380000000  0.6062430000000 1.0
C      1  0.4522180000000  0.5068630000000  0.5527110000000 1.0
C      1  0.5915930000000  0.4642440000000  0.4947220000000 1.0
C      1  0.4091810000000  0.4570350000000  0.5693370000000 1.0
C      1  0.6048320000000  0.5541470000000  0.5035240000000 1.0
C      1  0.6107790000000  0.5066530000000  0.4970150000000 1.0
C      1  0.5023760000000  0.5525280000000  0.6209820000000 1.0
C      1  0.4816430000000  0.4877920000000  0.4957730000000 1.0
C      1  0.5654250000000  0.4285450000000  0.4709440000000 1.0
C      1  0.5189940000000  0.4146320000000  0.4962190000000 1.0
C      1  0.4562010000000  0.3892430000000  0.5271560000000 1.0
C      1  0.5811340000000  0.4368440000000  0.4929350000000 1.0
C      1  0.4415370000000  0.4466320000000  0.6070440000000 1.0
END
