TITL C-612604-1799-464 111.228815959489 125000 -804.088398066524 0 0 134 (C1) n - 1
REM
REM in /home/nfs/bkarasulu/CARBON/AIRSS/Generating-Clusters/TERSOFF/Only-C1/FIRE-HFTN
REM
REM
REM
REM
REM
REM ./C.cell (11c1c37f851c82e70ff6c80c92926a4b)
REM AIRSS Version 0.9.1 bugfix July 2018 build 013d7b7c2542+ Fri, 06 Jul 2018 19:26:36 +0100
REM compiler GCC version 9.2.1 20190827 (Red Hat 9.2.1-1)
REM options -cpp -mtune=generic -march=x86-64 -g -O0 -fpre-include=/usr/include/finclude/math-vector-fortran.h
REM seed -2069309175 -608053799 -629030528 -7425824 26919821 -617312221 -1747835294 2079663322 -1982080602 -964890534 -195478810 1640418986 1389176028 1216567187 648692158 1670732907 -1277828312 1071736634 382893183 2010583325 1099076098 -272915465 -281591334 148267576 877137939 1984956839 632190185 1674341101 -2105902259 -586954296 -818501838 -1353405307 -1926669721
REM
CELL 1.54180   50.00000   50.00000   50.00000   90.00000   90.00000   90.00000
LATT -1
SFAC C  
C      1  0.5141710000000  0.4379350000000  0.4917400000000 1.0
C      1  0.5159020000000  0.4135210000000  0.5100000000000 1.0
C      1  0.4849410000000  0.4949650000000  0.5841290000000 1.0
C      1  0.4943580000000  0.5161290000000  0.5686360000000 1.0
C      1  0.4672070000000  0.5886140000000  0.4270810000000 1.0
C      1  0.3875910000000  0.5143480000000  0.5179900000000 1.0
C      1  0.5126440000000  0.4141320000000  0.5814360000000 1.0
C      1  0.4851680000000  0.4656640000000  0.4493680000000 1.0
C      1  0.5283170000000  0.5150970000000  0.4811450000000 1.0
C      1  0.5785190000000  0.5533790000000  0.5284100000000 1.0
C      1  0.4539420000000  0.4791160000000  0.5293670000000 1.0
C      1  0.4562650000000  0.4886820000000  0.3806480000000 1.0
C      1  0.4392060000000  0.6083500000000  0.4657310000000 1.0
C      1  0.4859020000000  0.5618440000000  0.5426830000000 1.0
C      1  0.4920640000000  0.4565280000000  0.5055790000000 1.0
C      1  0.5301350000000  0.4554180000000  0.4484340000000 1.0
C      1  0.4789410000000  0.4091190000000  0.4680090000000 1.0
C      1  0.4067640000000  0.5193350000000  0.4042840000000 1.0
C      1  0.4349810000000  0.4565490000000  0.5712070000000 1.0
C      1  0.4271320000000  0.4400060000000  0.5491100000000 1.0
C      1  0.4142670000000  0.5857690000000  0.4282030000000 1.0
C      1  0.4701340000000  0.6042050000000  0.5021210000000 1.0
C      1  0.4553510000000  0.5692350000000  0.4100300000000 1.0
C      1  0.4887970000000  0.5125000000000  0.5414650000000 1.0
C      1  0.4765140000000  0.5001220000000  0.4230870000000 1.0
C      1  0.5799260000000  0.5408920000000  0.4369600000000 1.0
C      1  0.5021140000000  0.5021720000000  0.4814470000000 1.0
C      1  0.6056870000000  0.4838940000000  0.4944980000000 1.0
C      1  0.6041740000000  0.5115280000000  0.5033390000000 1.0
C      1  0.5542230000000  0.5704430000000  0.5802210000000 1.0
C      1  0.6330010000000  0.4890860000000  0.5315180000000 1.0
C      1  0.5783480000000  0.4161350000000  0.4825050000000 1.0
C      1  0.4169460000000  0.5380230000000  0.4225450000000 1.0
C      1  0.5836080000000  0.5028250000000  0.5702200000000 1.0
C      1  0.5975290000000  0.5494800000000  0.3933700000000 1.0
C      1  0.5017880000000  0.5544730000000  0.4921840000000 1.0
C      1  0.5071450000000  0.5694610000000  0.5569480000000 1.0
C      1  0.4619080000000  0.4133310000000  0.4453770000000 1.0
C      1  0.4989070000000  0.5543090000000  0.3843110000000 1.0
C      1  0.6223630000000  0.4349970000000  0.4816050000000 1.0
C      1  0.4732240000000  0.5575310000000  0.3916490000000 1.0
C      1  0.5595230000000  0.4929290000000  0.5817440000000 1.0
C      1  0.5046120000000  0.4217050000000  0.4656170000000 1.0
C      1  0.5659130000000  0.5143760000000  0.6249380000000 1.0
C      1  0.5791820000000  0.5618940000000  0.5752210000000 1.0
C      1  0.4588770000000  0.4534630000000  0.4136030000000 1.0
C      1  0.5061120000000  0.4995130000000  0.4259550000000 1.0
C      1  0.4483320000000  0.5836290000000  0.5742720000000 1.0
C      1  0.4310700000000  0.5336990000000  0.5769100000000 1.0
C      1  0.5570620000000  0.4930390000000  0.6102750000000 1.0
C      1  0.4113170000000  0.5559170000000  0.4901720000000 1.0
C      1  0.6294870000000  0.4726060000000  0.5083540000000 1.0
C      1  0.4279500000000  0.5635840000000  0.4166640000000 1.0
C      1  0.4791320000000  0.5173910000000  0.4717660000000 1.0
C      1  0.4872160000000  0.4660450000000  0.5677530000000 1.0
C      1  0.4066360000000  0.5923660000000  0.5211230000000 1.0
C      1  0.6668940000000  0.4411630000000  0.5018090000000 1.0
C      1  0.5388710000000  0.3979130000000  0.5082730000000 1.0
C      1  0.4620020000000  0.4524380000000  0.5810690000000 1.0
C      1  0.3936220000000  0.4740130000000  0.4233580000000 1.0
C      1  0.4317600000000  0.4771840000000  0.5120350000000 1.0
C      1  0.5448760000000  0.4711280000000  0.6229390000000 1.0
C      1  0.4476170000000  0.4323350000000  0.4294870000000 1.0
C      1  0.5289860000000  0.4500680000000  0.6185030000000 1.0
C      1  0.5621210000000  0.3995090000000  0.4953670000000 1.0
C      1  0.4333480000000  0.5530790000000  0.5325030000000 1.0
C      1  0.4239660000000  0.4823400000000  0.5780640000000 1.0
C      1  0.6407300000000  0.4492910000000  0.4975100000000 1.0
C      1  0.4799640000000  0.4559000000000  0.5364520000000 1.0
C      1  0.4416670000000  0.5593280000000  0.5850360000000 1.0
C      1  0.4660230000000  0.5119190000000  0.4470600000000 1.0
C      1  0.5912160000000  0.5358210000000  0.4607850000000 1.0
C      1  0.5563740000000  0.5364230000000  0.5251280000000 1.0
C      1  0.4131570000000  0.5309780000000  0.4496510000000 1.0
C      1  0.6915220000000  0.4338170000000  0.5061310000000 1.0
C      1  0.5345220000000  0.4138320000000  0.5620280000000 1.0
C      1  0.4195280000000  0.6026850000000  0.4484250000000 1.0
C      1  0.5080550000000  0.4974150000000  0.5281680000000 1.0
C      1  0.4693080000000  0.4072240000000  0.4960820000000 1.0
C      1  0.3962350000000  0.4948200000000  0.4068430000000 1.0
C      1  0.4176110000000  0.5683010000000  0.5143410000000 1.0
C      1  0.5288810000000  0.5725390000000  0.5720670000000 1.0
C      1  0.4634870000000  0.6065830000000  0.5284430000000 1.0
C      1  0.5851040000000  0.4659360000000  0.4857930000000 1.0
C      1  0.4076990000000  0.5314880000000  0.4769530000000 1.0
C      1  0.5349230000000  0.4394250000000  0.5512530000000 1.0
C      1  0.6140770000000  0.5110780000000  0.5319190000000 1.0
C      1  0.4132650000000  0.4838140000000  0.4915600000000 1.0
C      1  0.4815180000000  0.4216900000000  0.5419200000000 1.0
C      1  0.5176470000000  0.4402580000000  0.5952260000000 1.0
C      1  0.5108050000000  0.4743450000000  0.4394630000000 1.0
C      1  0.5174050000000  0.5251240000000  0.4305270000000 1.0
C      1  0.5256520000000  0.5534230000000  0.3868190000000 1.0
C      1  0.5287910000000  0.4120460000000  0.4225560000000 1.0
C      1  0.4635390000000  0.4808210000000  0.4059480000000 1.0
C      1  0.4007000000000  0.5092810000000  0.4934890000000 1.0
C      1  0.5982980000000  0.5349700000000  0.4880970000000 1.0
C      1  0.5374840000000  0.4845350000000  0.5651600000000 1.0
C      1  0.4889700000000  0.4073640000000  0.5182600000000 1.0
C      1  0.4502440000000  0.4287200000000  0.5018970000000 1.0
C      1  0.5150880000000  0.5507730000000  0.4390540000000 1.0
C      1  0.4645270000000  0.4624600000000  0.4658570000000 1.0
C      1  0.5907530000000  0.5480450000000  0.5536790000000 1.0
C      1  0.5365940000000  0.4559340000000  0.4776840000000 1.0
C      1  0.5194310000000  0.4598910000000  0.5699730000000 1.0
C      1  0.4625280000000  0.5050250000000  0.5349660000000 1.0
C      1  0.4045210000000  0.4580060000000  0.4436870000000 1.0
C      1  0.4363130000000  0.5068760000000  0.5871680000000 1.0
C      1  0.4876740000000  0.4113630000000  0.5677220000000 1.0
C      1  0.4552780000000  0.6002800000000  0.5537320000000 1.0
C      1  0.4618150000000  0.5015660000000  0.5989380000000 1.0
C      1  0.3962880000000  0.5229840000000  0.5418360000000 1.0
C      1  0.5003960000000  0.4851510000000  0.5038610000000 1.0
C      1  0.5493010000000  0.5000870000000  0.4940890000000 1.0
C      1  0.4812330000000  0.5893640000000  0.4518720000000 1.0
C      1  0.5047930000000  0.5735300000000  0.4496520000000 1.0
C      1  0.5500120000000  0.5510570000000  0.3979030000000 1.0
C      1  0.4649140000000  0.4516150000000  0.4912670000000 1.0
C      1  0.5942640000000  0.4389010000000  0.4807460000000 1.0
C      1  0.4656020000000  0.6009840000000  0.4739960000000 1.0
C      1  0.4328500000000  0.4298820000000  0.5244530000000 1.0
C      1  0.5930850000000  0.5575530000000  0.5046650000000 1.0
C      1  0.5216880000000  0.4278820000000  0.4433290000000 1.0
C      1  0.5754990000000  0.5471130000000  0.4096420000000 1.0
C      1  0.5519470000000  0.5089250000000  0.5213890000000 1.0
C      1  0.4204120000000  0.4361780000000  0.4359380000000 1.0
C      1  0.5340320000000  0.4962810000000  0.5390760000000 1.0
C      1  0.4614310000000  0.5555330000000  0.5336200000000 1.0
C      1  0.4194630000000  0.5357650000000  0.5508700000000 1.0
C      1  0.5995090000000  0.5205470000000  0.5546470000000 1.0
C      1  0.5573700000000  0.4736440000000  0.4862010000000 1.0
C      1  0.4783240000000  0.5429560000000  0.4841520000000 1.0
C      1  0.5259420000000  0.5430210000000  0.4867970000000 1.0
C      1  0.4061380000000  0.4671620000000  0.4701860000000 1.0
END
