TITL C-612605-9286-1280 -139.989722365587 125000 -591.430579511487 0 0 96 (C1) n - 1
REM
REM in /home/nfs/bkarasulu/CARBON/AIRSS/Generating-Clusters/TERSOFF/Only-C1/FIRE-HFTN
REM
REM
REM
REM
REM
REM ./C.cell (11c1c37f851c82e70ff6c80c92926a4b)
REM AIRSS Version 0.9.1 bugfix July 2018 build 013d7b7c2542+ Fri, 06 Jul 2018 19:26:36 +0100
REM compiler GCC version 9.2.1 20190827 (Red Hat 9.2.1-1)
REM options -cpp -mtune=generic -march=x86-64 -g -O0 -fpre-include=/usr/include/finclude/math-vector-fortran.h
REM seed -925293970 1601361833 606238764 -1320634232 -290031139 -1128159028 -311701670 -848788055 306576773 -1356998786 1911173673 -1857173945 -961399255 158586417 736260469 56041324 -955013218 1216828237 495806184 -118860619 1483139180 1059300721 -692949457 1125409309 1385506404 -2096567169 -2096807174 8100099 131881435 -397014766 1333201994 -186587991 422893198
REM
CELL 1.54180   50.00000   50.00000   50.00000   90.00000   90.00000   90.00000
LATT -1
SFAC C  
C      1  0.4405720000000  0.5323410000000  0.5519540000000 1.0
C      1  0.5914270000000  0.4839650000000  0.4384130000000 1.0
C      1  0.5445640000000  0.4675650000000  0.4505230000000 1.0
C      1  0.4358140000000  0.4598960000000  0.5703280000000 1.0
C      1  0.5001430000000  0.4619240000000  0.4197140000000 1.0
C      1  0.5329810000000  0.6271920000000  0.4943980000000 1.0
C      1  0.5127450000000  0.4740890000000  0.5574390000000 1.0
C      1  0.4080250000000  0.4586630000000  0.4628860000000 1.0
C      1  0.6111900000000  0.4371560000000  0.4516370000000 1.0
C      1  0.4971680000000  0.5545820000000  0.4369980000000 1.0
C      1  0.4368990000000  0.4975260000000  0.4488450000000 1.0
C      1  0.4250770000000  0.5708790000000  0.5117250000000 1.0
C      1  0.5222440000000  0.6044550000000  0.4839170000000 1.0
C      1  0.4849650000000  0.5726870000000  0.4804240000000 1.0
C      1  0.5972360000000  0.5040620000000  0.4582630000000 1.0
C      1  0.4747730000000  0.5044180000000  0.4175220000000 1.0
C      1  0.5587180000000  0.4241000000000  0.4691010000000 1.0
C      1  0.4099210000000  0.5012100000000  0.4888140000000 1.0
C      1  0.5382340000000  0.5824630000000  0.4738650000000 1.0
C      1  0.4772600000000  0.5639280000000  0.5576320000000 1.0
C      1  0.4962180000000  0.5135820000000  0.5170400000000 1.0
C      1  0.5034050000000  0.5558850000000  0.4958820000000 1.0
C      1  0.4601200000000  0.4855600000000  0.4349420000000 1.0
C      1  0.5153740000000  0.4590280000000  0.5811600000000 1.0
C      1  0.5463010000000  0.4921470000000  0.6380160000000 1.0
C      1  0.5094820000000  0.5276520000000  0.4438700000000 1.0
C      1  0.4842160000000  0.4439180000000  0.4624030000000 1.0
C      1  0.5214680000000  0.5032700000000  0.5112030000000 1.0
C      1  0.5171520000000  0.4580130000000  0.5110150000000 1.0
C      1  0.4915020000000  0.5142840000000  0.4638710000000 1.0
C      1  0.4929070000000  0.4955620000000  0.6024880000000 1.0
C      1  0.3909490000000  0.4756350000000  0.5555480000000 1.0
C      1  0.3127620000000  0.4971140000000  0.4998110000000 1.0
C      1  0.5532500000000  0.4393530000000  0.5342840000000 1.0
C      1  0.5494120000000  0.5862950000000  0.4481340000000 1.0
C      1  0.5362250000000  0.5834610000000  0.4247090000000 1.0
C      1  0.4095640000000  0.4642520000000  0.5707590000000 1.0
C      1  0.5179900000000  0.4843650000000  0.4157800000000 1.0
C      1  0.4975980000000  0.5465930000000  0.5484080000000 1.0
C      1  0.4077420000000  0.5018390000000  0.5181910000000 1.0
C      1  0.5625430000000  0.4762890000000  0.5946450000000 1.0
C      1  0.5431380000000  0.4249770000000  0.5570930000000 1.0
C      1  0.5291830000000  0.5556490000000  0.4810290000000 1.0
C      1  0.4572560000000  0.4995440000000  0.4978690000000 1.0
C      1  0.5122670000000  0.5717720000000  0.4205850000000 1.0
C      1  0.5228900000000  0.4805430000000  0.4949280000000 1.0
C      1  0.5037200000000  0.5089710000000  0.4199350000000 1.0
C      1  0.5912020000000  0.4565960000000  0.4473330000000 1.0
C      1  0.6427850000000  0.5328230000000  0.4568800000000 1.0
C      1  0.6207640000000  0.5189000000000  0.4574660000000 1.0
C      1  0.4361180000000  0.5785730000000  0.5351790000000 1.0
C      1  0.4653130000000  0.4430380000000  0.4833250000000 1.0
C      1  0.5647010000000  0.4898210000000  0.5278470000000 1.0
C      1  0.4231580000000  0.5249080000000  0.5291070000000 1.0
C      1  0.5041170000000  0.5226310000000  0.5642150000000 1.0
C      1  0.4341020000000  0.5270720000000  0.4566140000000 1.0
C      1  0.3861420000000  0.4896950000000  0.5319030000000 1.0
C      1  0.5802130000000  0.4990130000000  0.5057960000000 1.0
C      1  0.5805510000000  0.4062230000000  0.4711590000000 1.0
C      1  0.5644530000000  0.4479840000000  0.4545870000000 1.0
C      1  0.5443590000000  0.4801950000000  0.4245300000000 1.0
C      1  0.4509010000000  0.5490460000000  0.4508490000000 1.0
C      1  0.4696760000000  0.5058480000000  0.4753950000000 1.0
C      1  0.4575270000000  0.4633770000000  0.5554750000000 1.0
C      1  0.5093690000000  0.4301480000000  0.4688210000000 1.0
C      1  0.4827070000000  0.5125730000000  0.5815510000000 1.0
C      1  0.5344750000000  0.4253010000000  0.4838260000000 1.0
C      1  0.5270880000000  0.4335310000000  0.5773710000000 1.0
C      1  0.3601700000000  0.4919840000000  0.5219220000000 1.0
C      1  0.6056440000000  0.4129870000000  0.4629440000000 1.0
C      1  0.5670040000000  0.4647490000000  0.5423150000000 1.0
C      1  0.5502570000000  0.5106660000000  0.4699530000000 1.0
C      1  0.5365180000000  0.4374260000000  0.5102690000000 1.0
C      1  0.4734030000000  0.4961910000000  0.5202010000000 1.0
C      1  0.4497440000000  0.5603670000000  0.5518690000000 1.0
C      1  0.5717810000000  0.4684440000000  0.5705020000000 1.0
C      1  0.4559460000000  0.5164590000000  0.5708850000000 1.0
C      1  0.4186810000000  0.5287880000000  0.4812830000000 1.0
C      1  0.4177660000000  0.4837630000000  0.4669860000000 1.0
C      1  0.4786310000000  0.4614520000000  0.4393940000000 1.0
C      1  0.5401530000000  0.5040180000000  0.5329660000000 1.0
C      1  0.5414560000000  0.4821650000000  0.6130950000000 1.0
C      1  0.3362140000000  0.4945430000000  0.5109020000000 1.0
C      1  0.5707700000000  0.4893250000000  0.4186790000000 1.0
C      1  0.4725810000000  0.4674280000000  0.5305920000000 1.0
C      1  0.4757780000000  0.5618120000000  0.4551200000000 1.0
C      1  0.4940980000000  0.5996720000000  0.4820020000000 1.0
C      1  0.5016080000000  0.4622360000000  0.5343200000000 1.0
C      1  0.4223660000000  0.5436790000000  0.5054980000000 1.0
C      1  0.5227540000000  0.5015540000000  0.5559070000000 1.0
C      1  0.5338880000000  0.5330040000000  0.4627630000000 1.0
C      1  0.5368720000000  0.4848670000000  0.4712070000000 1.0
C      1  0.5148690000000  0.4766780000000  0.6036030000000 1.0
C      1  0.4617370000000  0.4498290000000  0.5088850000000 1.0
C      1  0.5774890000000  0.5081410000000  0.4787930000000 1.0
C      1  0.4975120000000  0.5418200000000  0.5199210000000 1.0
END
