TITL C-612607-4507-320 -0.628460743231372 125000 -894.378191359362 0 0 147 (C1) n - 1
REM
REM in /home/nfs/bkarasulu/CARBON/AIRSS/Generating-Clusters/TERSOFF/Only-C1/FIRE-HFTN
REM
REM
REM
REM
REM
REM ./C.cell (11c1c37f851c82e70ff6c80c92926a4b)
REM AIRSS Version 0.9.1 bugfix July 2018 build 013d7b7c2542+ Fri, 06 Jul 2018 19:26:36 +0100
REM compiler GCC version 9.2.1 20190827 (Red Hat 9.2.1-1)
REM options -cpp -mtune=generic -march=x86-64 -g -O0 -fpre-include=/usr/include/finclude/math-vector-fortran.h
REM seed -1817549780 -1231412117 1610928799 1053461476 -436240830 -2017905453 304322553 1204399200 -2089919472 -1309904020 -869259658 810815302 101923718 2029003016 1638010507 1791229718 1293187094 2026139775 -1559714849 1540029552 1076579071 -681566704 1659593069 752046013 -801303959 1186607975 1667076840 -1675053295 337740032 -583856292 628062406 -320101444 1867470577
REM
CELL 1.54180   50.00000   50.00000   50.00000   90.00000   90.00000   90.00000
LATT -1
SFAC C  
C      1  0.5494260000000  0.5752990000000  0.3870480000000 1.0
C      1  0.5321810000000  0.4858680000000  0.4401600000000 1.0
C      1  0.5191090000000  0.5102570000000  0.5929990000000 1.0
C      1  0.4272790000000  0.4124320000000  0.4959970000000 1.0
C      1  0.4083560000000  0.4934860000000  0.4395300000000 1.0
C      1  0.4336780000000  0.4365150000000  0.5477210000000 1.0
C      1  0.4322710000000  0.5179220000000  0.5503640000000 1.0
C      1  0.4393980000000  0.5324280000000  0.4221620000000 1.0
C      1  0.5841570000000  0.5410060000000  0.4824330000000 1.0
C      1  0.5393080000000  0.4152570000000  0.5726900000000 1.0
C      1  0.5489140000000  0.5395540000000  0.4505930000000 1.0
C      1  0.4675310000000  0.4844280000000  0.4476930000000 1.0
C      1  0.5732010000000  0.5640470000000  0.5721770000000 1.0
C      1  0.5514220000000  0.4658060000000  0.4499330000000 1.0
C      1  0.5658850000000  0.6000760000000  0.5064680000000 1.0
C      1  0.5824770000000  0.4152490000000  0.4540840000000 1.0
C      1  0.5993660000000  0.5231270000000  0.6083780000000 1.0
C      1  0.4362030000000  0.4782360000000  0.4866420000000 1.0
C      1  0.5079720000000  0.4495140000000  0.5934540000000 1.0
C      1  0.6157790000000  0.5234040000000  0.5869950000000 1.0
C      1  0.5337530000000  0.3919980000000  0.4756320000000 1.0
C      1  0.5383250000000  0.6079620000000  0.5007210000000 1.0
C      1  0.5284460000000  0.5964130000000  0.4757110000000 1.0
C      1  0.4858750000000  0.5407110000000  0.4557650000000 1.0
C      1  0.4643140000000  0.3957040000000  0.4611050000000 1.0
C      1  0.4598530000000  0.4424540000000  0.5596170000000 1.0
C      1  0.4074010000000  0.4480010000000  0.4628020000000 1.0
C      1  0.5793260000000  0.4199330000000  0.5071420000000 1.0
C      1  0.4906150000000  0.4984310000000  0.5920900000000 1.0
C      1  0.4915120000000  0.5398490000000  0.5097900000000 1.0
C      1  0.5063520000000  0.3783350000000  0.5290950000000 1.0
C      1  0.6219710000000  0.5748390000000  0.5179620000000 1.0
C      1  0.4925310000000  0.4077530000000  0.5647860000000 1.0
C      1  0.5052760000000  0.5076920000000  0.5483410000000 1.0
C      1  0.5590720000000  0.5452140000000  0.5896030000000 1.0
C      1  0.4283960000000  0.4205310000000  0.5240760000000 1.0
C      1  0.4813630000000  0.5879960000000  0.4611400000000 1.0
C      1  0.4191680000000  0.4622190000000  0.5539810000000 1.0
C      1  0.6055100000000  0.5113320000000  0.5119450000000 1.0
C      1  0.4087400000000  0.4243990000000  0.4778360000000 1.0
C      1  0.4431890000000  0.5726600000000  0.5183120000000 1.0
C      1  0.5110940000000  0.4528070000000  0.4757450000000 1.0
C      1  0.4820970000000  0.4170270000000  0.5146510000000 1.0
C      1  0.4837300000000  0.5258520000000  0.5543160000000 1.0
C      1  0.6010120000000  0.5773050000000  0.5363290000000 1.0
C      1  0.4434470000000  0.5049760000000  0.5727920000000 1.0
C      1  0.4687760000000  0.4652550000000  0.5169750000000 1.0
C      1  0.5364390000000  0.4894670000000  0.6034580000000 1.0
C      1  0.4791670000000  0.4538100000000  0.5423950000000 1.0
C      1  0.4123100000000  0.4750350000000  0.5285800000000 1.0
C      1  0.4831340000000  0.5928720000000  0.5435410000000 1.0
C      1  0.4902610000000  0.4844200000000  0.5072480000000 1.0
C      1  0.5441360000000  0.4260290000000  0.4194840000000 1.0
C      1  0.3910900000000  0.5103780000000  0.4905720000000 1.0
C      1  0.4101820000000  0.4712000000000  0.4784950000000 1.0
C      1  0.4616690000000  0.5454170000000  0.4701750000000 1.0
C      1  0.5378710000000  0.5487830000000  0.5010620000000 1.0
C      1  0.5302400000000  0.5487860000000  0.5530160000000 1.0
C      1  0.3912920000000  0.5315770000000  0.4146860000000 1.0
C      1  0.5099270000000  0.5576990000000  0.4960380000000 1.0
C      1  0.3971990000000  0.4943980000000  0.4670410000000 1.0
C      1  0.5069290000000  0.4542080000000  0.5450850000000 1.0
C      1  0.4595350000000  0.5156190000000  0.4115940000000 1.0
C      1  0.5144890000000  0.4715030000000  0.4962120000000 1.0
C      1  0.4966010000000  0.4200520000000  0.4266600000000 1.0
C      1  0.5982490000000  0.5583720000000  0.5583330000000 1.0
C      1  0.4339390000000  0.3729340000000  0.6076460000000 1.0
C      1  0.5300150000000  0.4950700000000  0.5442660000000 1.0
C      1  0.6131450000000  0.5155460000000  0.5387290000000 1.0
C      1  0.3488650000000  0.5574360000000  0.3975460000000 1.0
C      1  0.5125470000000  0.4238060000000  0.5787390000000 1.0
C      1  0.4428480000000  0.5079300000000  0.5257740000000 1.0
C      1  0.5178980000000  0.4384760000000  0.4212610000000 1.0
C      1  0.5334350000000  0.4923620000000  0.4899250000000 1.0
C      1  0.5669420000000  0.4172150000000  0.4317150000000 1.0
C      1  0.5506010000000  0.5666080000000  0.4401260000000 1.0
C      1  0.4676080000000  0.5720110000000  0.5331570000000 1.0
C      1  0.5505150000000  0.5720420000000  0.4128800000000 1.0
C      1  0.5861310000000  0.4168990000000  0.4810310000000 1.0
C      1  0.4930520000000  0.5127560000000  0.5017460000000 1.0
C      1  0.5152540000000  0.4937810000000  0.3858540000000 1.0
C      1  0.5086320000000  0.5938180000000  0.5518940000000 1.0
C      1  0.4538610000000  0.3831140000000  0.5942660000000 1.0
C      1  0.6262620000000  0.5547980000000  0.5004630000000 1.0
C      1  0.5142530000000  0.5126210000000  0.4821610000000 1.0
C      1  0.4488930000000  0.5591520000000  0.4293480000000 1.0
C      1  0.5312720000000  0.5778190000000  0.5540480000000 1.0
C      1  0.5755440000000  0.5912710000000  0.5318530000000 1.0
C      1  0.4445300000000  0.4482510000000  0.4337150000000 1.0
C      1  0.4358400000000  0.4771320000000  0.5755040000000 1.0
C      1  0.4705250000000  0.5783870000000  0.4350460000000 1.0
C      1  0.4181160000000  0.4581950000000  0.4375920000000 1.0
C      1  0.6113500000000  0.5330090000000  0.5608150000000 1.0
C      1  0.5522200000000  0.5873080000000  0.4602550000000 1.0
C      1  0.4734310000000  0.3942600000000  0.5803180000000 1.0
C      1  0.5589430000000  0.5840860000000  0.5553590000000 1.0
C      1  0.5539610000000  0.4532810000000  0.5328660000000 1.0
C      1  0.4576440000000  0.6326670000000  0.4811140000000 1.0
C      1  0.5332710000000  0.5344310000000  0.5796770000000 1.0
C      1  0.3932920000000  0.4940260000000  0.5156990000000 1.0
C      1  0.4682370000000  0.6109960000000  0.4712510000000 1.0
C      1  0.5051130000000  0.5797290000000  0.4770750000000 1.0
C      1  0.4827060000000  0.5893080000000  0.4126090000000 1.0
C      1  0.4587820000000  0.4598750000000  0.5830390000000 1.0
C      1  0.4729880000000  0.4399160000000  0.4989540000000 1.0
C      1  0.5481550000000  0.5105230000000  0.5294170000000 1.0
C      1  0.4415800000000  0.5244090000000  0.5041250000000 1.0
C      1  0.5742480000000  0.5328290000000  0.6098590000000 1.0
C      1  0.5579480000000  0.4118200000000  0.5532670000000 1.0
C      1  0.3699270000000  0.5445680000000  0.4059360000000 1.0
C      1  0.5746260000000  0.5924940000000  0.4791650000000 1.0
C      1  0.4183750000000  0.5424360000000  0.5497400000000 1.0
C      1  0.5709670000000  0.4674750000000  0.4284450000000 1.0
C      1  0.4833210000000  0.4455150000000  0.4721580000000 1.0
C      1  0.4211980000000  0.5651370000000  0.5352230000000 1.0
C      1  0.4752970000000  0.4947990000000  0.4214410000000 1.0
C      1  0.4521360000000  0.4953930000000  0.4691840000000 1.0
C      1  0.5077440000000  0.5231600000000  0.4569030000000 1.0
C      1  0.4982640000000  0.4845240000000  0.4074730000000 1.0
C      1  0.5056060000000  0.5073770000000  0.3642400000000 1.0
C      1  0.4675230000000  0.4555040000000  0.4499150000000 1.0
C      1  0.5316010000000  0.4670150000000  0.5428470000000 1.0
C      1  0.4136900000000  0.5186890000000  0.4258240000000 1.0
C      1  0.4848620000000  0.4685180000000  0.5927840000000 1.0
C      1  0.4935740000000  0.4017780000000  0.5361300000000 1.0
C      1  0.4507910000000  0.5216790000000  0.4781920000000 1.0
C      1  0.5414980000000  0.5380210000000  0.5281670000000 1.0
C      1  0.4396110000000  0.5667180000000  0.4895750000000 1.0
C      1  0.5312390000000  0.4627740000000  0.6038550000000 1.0
C      1  0.5642410000000  0.4776850000000  0.4036110000000 1.0
C      1  0.4125230000000  0.5589700000000  0.4833330000000 1.0
C      1  0.5434230000000  0.4874860000000  0.3888500000000 1.0
C      1  0.5318470000000  0.5163660000000  0.4423190000000 1.0
C      1  0.5845640000000  0.4936340000000  0.5042060000000 1.0
C      1  0.4806590000000  0.4037960000000  0.4412010000000 1.0
C      1  0.4797130000000  0.5461950000000  0.5345870000000 1.0
C      1  0.5363490000000  0.4444130000000  0.4650820000000 1.0
C      1  0.3951980000000  0.5384700000000  0.4878650000000 1.0
C      1  0.6080550000000  0.5341000000000  0.4949430000000 1.0
C      1  0.4707160000000  0.5137080000000  0.5772730000000 1.0
C      1  0.4410810000000  0.4794410000000  0.5164720000000 1.0
C      1  0.5563400000000  0.5416020000000  0.4789990000000 1.0
C      1  0.5394600000000  0.4169120000000  0.4701660000000 1.0
C      1  0.5653740000000  0.4275680000000  0.5307730000000 1.0
C      1  0.5566750000000  0.4974490000000  0.5055010000000 1.0
C      1  0.5143430000000  0.4680080000000  0.4240520000000 1.0
C      1  0.4474180000000  0.3975390000000  0.4821320000000 1.0
END
