TITL C-612607-4507-1188 -2874.50056459714 125000 -554.634870944965 0 0 93 (C1) n - 1
REM
REM in /home/nfs/bkarasulu/CARBON/AIRSS/Generating-Clusters/TERSOFF/Only-C1/FIRE-HFTN
REM
REM
REM
REM
REM
REM ./C.cell (11c1c37f851c82e70ff6c80c92926a4b)
REM AIRSS Version 0.9.1 bugfix July 2018 build 013d7b7c2542+ Fri, 06 Jul 2018 19:26:36 +0100
REM compiler GCC version 9.2.1 20190827 (Red Hat 9.2.1-1)
REM options -cpp -mtune=generic -march=x86-64 -g -O0 -fpre-include=/usr/include/finclude/math-vector-fortran.h
REM seed 2039078610 381286797 1111518602 2035843613 634908565 1418390359 1614182078 1024550858 1152415345 1419221973 78064378 1337093723 -1218095053 112915570 -1068622828 944836964 931688424 286801891 71158100 1994307231 -1311830761 -1545232200 -1482204785 -552363955 -1304814131 -1801577198 421447465 -11009283 -1933951573 496558342 -1562778794 -1459554668 1690170821
REM
CELL 1.54180   50.00000   50.00000   50.00000   90.00000   90.00000   90.00000
LATT -1
SFAC C  
C      1  0.5352660000000  0.3677690000000  0.6298200000000 1.0
C      1  0.4247200000000  0.4769790000000  0.5461530000000 1.0
C      1  0.4812460000000  0.5071960000000  0.4768670000000 1.0
C      1  0.5327840000000  0.4961160000000  0.5315500000000 1.0
C      1  0.4771940000000  0.5261770000000  0.4231060000000 1.0
C      1  0.4240250000000  0.4423860000000  0.4777590000000 1.0
C      1  0.5392170000000  0.6574070000000  0.5612500000000 1.0
C      1  0.5619010000000  0.4630580000000  0.5464160000000 1.0
C      1  0.4433710000000  0.4393090000000  0.4993930000000 1.0
C      1  0.5070500000000  0.5580650000000  0.5017300000000 1.0
C      1  0.5445180000000  0.4819500000000  0.4152200000000 1.0
C      1  0.5220320000000  0.4052870000000  0.5954670000000 1.0
C      1  0.4987030000000  0.4943130000000  0.5687660000000 1.0
C      1  0.5313400000000  0.4859410000000  0.4594640000000 1.0
C      1  0.4664480000000  0.5483260000000  0.4393770000000 1.0
C      1  0.5764930000000  0.5816260000000  0.5356890000000 1.0
C      1  0.4836160000000  0.5054850000000  0.5070530000000 1.0
C      1  0.4971570000000  0.5094020000000  0.4137950000000 1.0
C      1  0.4989960000000  0.5836700000000  0.4572120000000 1.0
C      1  0.5842430000000  0.4610170000000  0.5018500000000 1.0
C      1  0.5722190000000  0.5552090000000  0.5360630000000 1.0
C      1  0.4216850000000  0.3986400000000  0.4944480000000 1.0
C      1  0.5396560000000  0.4452620000000  0.4812590000000 1.0
C      1  0.5689840000000  0.5332370000000  0.4204720000000 1.0
C      1  0.4057520000000  0.4861750000000  0.4867060000000 1.0
C      1  0.6018970000000  0.5038240000000  0.4857780000000 1.0
C      1  0.5832880000000  0.4722240000000  0.4521150000000 1.0
C      1  0.5552800000000  0.5370140000000  0.5265960000000 1.0
C      1  0.5095670000000  0.4343500000000  0.5306030000000 1.0
C      1  0.4499060000000  0.5389520000000  0.5136500000000 1.0
C      1  0.4411520000000  0.4804290000000  0.4541220000000 1.0
C      1  0.3935210000000  0.4718610000000  0.5086520000000 1.0
C      1  0.4991330000000  0.5249170000000  0.4644010000000 1.0
C      1  0.5177380000000  0.5799910000000  0.5176250000000 1.0
C      1  0.3551170000000  0.3987400000000  0.4199640000000 1.0
C      1  0.4788220000000  0.5098310000000  0.5554830000000 1.0
C      1  0.4707080000000  0.5826200000000  0.5315470000000 1.0
C      1  0.4111460000000  0.4169280000000  0.4744120000000 1.0
C      1  0.4365570000000  0.5310780000000  0.4864500000000 1.0
C      1  0.4416470000000  0.4125890000000  0.5102470000000 1.0
C      1  0.5287140000000  0.3863860000000  0.6127870000000 1.0
C      1  0.5083100000000  0.5308990000000  0.5108290000000 1.0
C      1  0.4634120000000  0.5688310000000  0.4846100000000 1.0
C      1  0.4643800000000  0.4914630000000  0.4610900000000 1.0
C      1  0.5679120000000  0.6292810000000  0.5251640000000 1.0
C      1  0.5684680000000  0.5222700000000  0.4472190000000 1.0
C      1  0.4340150000000  0.5023190000000  0.5376990000000 1.0
C      1  0.5148110000000  0.4249210000000  0.5771680000000 1.0
C      1  0.4824690000000  0.5731450000000  0.4361570000000 1.0
C      1  0.5016270000000  0.4187980000000  0.5525780000000 1.0
C      1  0.4139440000000  0.3722850000000  0.4979000000000 1.0
C      1  0.5410830000000  0.5921770000000  0.5060200000000 1.0
C      1  0.5229580000000  0.5984980000000  0.4608280000000 1.0
C      1  0.5877720000000  0.4587700000000  0.5320480000000 1.0
C      1  0.5427480000000  0.5107780000000  0.4545810000000 1.0
C      1  0.5265070000000  0.4599370000000  0.4631120000000 1.0
C      1  0.4969290000000  0.5899290000000  0.5343200000000 1.0
C      1  0.4588920000000  0.4608870000000  0.5070540000000 1.0
C      1  0.5371810000000  0.5559010000000  0.4445430000000 1.0
C      1  0.4509780000000  0.5485230000000  0.4662120000000 1.0
C      1  0.4037730000000  0.4652630000000  0.5330600000000 1.0
C      1  0.5933250000000  0.4772650000000  0.4794690000000 1.0
C      1  0.5498970000000  0.5531240000000  0.4187600000000 1.0
C      1  0.5871910000000  0.6410190000000  0.5097090000000 1.0
C      1  0.5952840000000  0.5301790000000  0.4847220000000 1.0
C      1  0.5459620000000  0.4728620000000  0.5227240000000 1.0
C      1  0.5762680000000  0.5424760000000  0.4677090000000 1.0
C      1  0.4973850000000  0.4705270000000  0.5853060000000 1.0
C      1  0.4912220000000  0.5704440000000  0.4810990000000 1.0
C      1  0.3733960000000  0.4047840000000  0.4375420000000 1.0
C      1  0.4616210000000  0.5149530000000  0.5297070000000 1.0
C      1  0.5261640000000  0.4927400000000  0.5591100000000 1.0
C      1  0.5552060000000  0.4578010000000  0.5004320000000 1.0
C      1  0.5535600000000  0.6443160000000  0.5438690000000 1.0
C      1  0.4201880000000  0.4690860000000  0.4688160000000 1.0
C      1  0.5202940000000  0.4525470000000  0.5815850000000 1.0
C      1  0.5566920000000  0.5650060000000  0.4658980000000 1.0
C      1  0.4569720000000  0.5664620000000  0.5128400000000 1.0
C      1  0.5418020000000  0.4677950000000  0.5681330000000 1.0
C      1  0.5324960000000  0.5217550000000  0.5212720000000 1.0
C      1  0.4567250000000  0.4034800000000  0.5318670000000 1.0
C      1  0.4830270000000  0.4745460000000  0.5114250000000 1.0
C      1  0.5445440000000  0.5885030000000  0.4776190000000 1.0
C      1  0.4129750000000  0.5160520000000  0.5227840000000 1.0
C      1  0.5034070000000  0.4572580000000  0.5185920000000 1.0
C      1  0.5621660000000  0.6017810000000  0.5223530000000 1.0
C      1  0.5667690000000  0.4740350000000  0.4299220000000 1.0
C      1  0.5235990000000  0.5321810000000  0.4538310000000 1.0
C      1  0.4146330000000  0.5128990000000  0.4936900000000 1.0
C      1  0.5201870000000  0.4944680000000  0.4106890000000 1.0
C      1  0.4776240000000  0.4046860000000  0.5486200000000 1.0
C      1  0.3919550000000  0.4108540000000  0.4554450000000 1.0
C      1  0.4064830000000  0.3475040000000  0.5009530000000 1.0
END
