TITL C-612601-4209-1494 0.108369978945347 125000 -274.502207330963 0 0 46 (C1) n - 1
REM
REM in /home/nfs/bkarasulu/CARBON/AIRSS/Generating-Clusters/TERSOFF/Only-C1/FIRE-HFTN
REM
REM
REM
REM
REM
REM ./C.cell (11c1c37f851c82e70ff6c80c92926a4b)
REM AIRSS Version 0.9.1 bugfix July 2018 build 013d7b7c2542+ Fri, 06 Jul 2018 19:26:36 +0100
REM compiler GCC version 9.2.1 20190827 (Red Hat 9.2.1-1)
REM options -cpp -mtune=generic -march=x86-64 -g -O0 -fpre-include=/usr/include/finclude/math-vector-fortran.h
REM seed -313922523 -743767281 245361608 363656350 757136868 688904726 -604698819 1264659565 1046610599 -675833477 -898148353 -705636554 2011631647 803378481 -41293471 -1271578041 -189617120 -1082212904 -13913111 128115593 -342044193 -2040539691 -1589779164 -660132277 -220177078 1465657293 -479902939 1902186233 1604215449 -827563571 210629258 -1877238111 -773170811
REM
CELL 1.54180   50.00000   50.00000   50.00000   90.00000   90.00000   90.00000
LATT -1
SFAC C  
C      1  0.4376810000000  0.4697570000000  0.5285810000000 1.0
C      1  0.3986360000000  0.5433280000000  0.4796110000000 1.0
C      1  0.5790830000000  0.4078510000000  0.4859350000000 1.0
C      1  0.6158450000000  0.4380570000000  0.3730040000000 1.0
C      1  0.5149670000000  0.4401850000000  0.5831290000000 1.0
C      1  0.5727000000000  0.4015250000000  0.5108880000000 1.0
C      1  0.4898190000000  0.5744070000000  0.5382900000000 1.0
C      1  0.5005610000000  0.4621150000000  0.5869800000000 1.0
C      1  0.4789060000000  0.5149460000000  0.4879020000000 1.0
C      1  0.4612250000000  0.4780390000000  0.5173370000000 1.0
C      1  0.3975140000000  0.5240870000000  0.4983460000000 1.0
C      1  0.6436380000000  0.4383320000000  0.3283750000000 1.0
C      1  0.4728470000000  0.5963880000000  0.5445660000000 1.0
C      1  0.4957550000000  0.5714000000000  0.5107110000000 1.0
C      1  0.5004810000000  0.4555010000000  0.4928150000000 1.0
C      1  0.5127080000000  0.5547440000000  0.5756770000000 1.0
C      1  0.4112580000000  0.5206410000000  0.5212070000000 1.0
C      1  0.4588770000000  0.5243480000000  0.5330340000000 1.0
C      1  0.4529160000000  0.6051820000000  0.5264790000000 1.0
C      1  0.6018370000000  0.4379180000000  0.3954980000000 1.0
C      1  0.4631870000000  0.6123670000000  0.4998670000000 1.0
C      1  0.5615400000000  0.4017900000000  0.5349460000000 1.0
C      1  0.6298570000000  0.4381960000000  0.3505040000000 1.0
C      1  0.4319370000000  0.5853340000000  0.5200880000000 1.0
C      1  0.4280100000000  0.5627810000000  0.5364660000000 1.0
C      1  0.5098620000000  0.4735190000000  0.4733380000000 1.0
C      1  0.4595910000000  0.5883270000000  0.4832650000000 1.0
C      1  0.4773700000000  0.5292600000000  0.5542220000000 1.0
C      1  0.4811520000000  0.5087080000000  0.5729440000000 1.0
C      1  0.4322130000000  0.5803370000000  0.4909030000000 1.0
C      1  0.4129660000000  0.5658440000000  0.4770460000000 1.0
C      1  0.4934290000000  0.5528450000000  0.5562690000000 1.0
C      1  0.4890220000000  0.4857540000000  0.5836220000000 1.0
C      1  0.5305150000000  0.4671200000000  0.4559180000000 1.0
C      1  0.5470780000000  0.4087500000000  0.5560590000000 1.0
C      1  0.5795800000000  0.4200110000000  0.4623790000000 1.0
C      1  0.4807670000000  0.4590150000000  0.5105980000000 1.0
C      1  0.5730890000000  0.4376340000000  0.4416580000000 1.0
C      1  0.5878350000000  0.4377800000000  0.4179820000000 1.0
C      1  0.5309880000000  0.4218950000000  0.5725410000000 1.0
C      1  0.4663180000000  0.5058750000000  0.5122120000000 1.0
C      1  0.4761990000000  0.5415310000000  0.4792100000000 1.0
C      1  0.4967430000000  0.4983360000000  0.4738440000000 1.0
C      1  0.5515320000000  0.4551080000000  0.4451260000000 1.0
C      1  0.4795570000000  0.5680720000000  0.4874560000000 1.0
C      1  0.4324080000000  0.5350610000000  0.5331670000000 1.0
END
