TITL C-612603-7354-1052 0.0122173599735812 125000 -393.25060019665 0 0 65 (C1) n - 1
REM
REM in /home/nfs/bkarasulu/CARBON/AIRSS/Generating-Clusters/TERSOFF/Only-C1/FIRE-HFTN
REM
REM
REM
REM
REM
REM ./C.cell (11c1c37f851c82e70ff6c80c92926a4b)
REM AIRSS Version 0.9.1 bugfix July 2018 build 013d7b7c2542+ Fri, 06 Jul 2018 19:26:36 +0100
REM compiler GCC version 9.2.1 20190827 (Red Hat 9.2.1-1)
REM options -cpp -mtune=generic -march=x86-64 -g -O0 -fpre-include=/usr/include/finclude/math-vector-fortran.h
REM seed -1427771849 359069623 -166740880 617853924 2062301674 600903245 1336630982 247378477 490196004 1472350254 382845783 -2075877187 1845221682 -1051231715 992483033 -2062092667 2113869366 -1002116806 1679574466 -1345660688 1577057461 66102419 -1933845755 -2046173691 1932920329 1293994659 1388059335 -997125892 -2027430931 531522 1535172647 -2097238834 1777180042
REM
CELL 1.54180   50.00000   50.00000   50.00000   90.00000   90.00000   90.00000
LATT -1
SFAC C  
C      1  0.4770130000000  0.5583500000000  0.4625700000000 1.0
C      1  0.5296510000000  0.4474240000000  0.4876160000000 1.0
C      1  0.4031450000000  0.5852510000000  0.5693090000000 1.0
C      1  0.5367100000000  0.5441460000000  0.4949440000000 1.0
C      1  0.5101420000000  0.4427040000000  0.4435250000000 1.0
C      1  0.4552140000000  0.4648570000000  0.5634310000000 1.0
C      1  0.5294990000000  0.5170640000000  0.4900290000000 1.0
C      1  0.4554050000000  0.5352910000000  0.5047980000000 1.0
C      1  0.5203870000000  0.5101750000000  0.5670670000000 1.0
C      1  0.5477310000000  0.4722620000000  0.4315190000000 1.0
C      1  0.3869220000000  0.6054370000000  0.5615150000000 1.0
C      1  0.4392940000000  0.5526250000000  0.5704720000000 1.0
C      1  0.4678400000000  0.4506270000000  0.4804870000000 1.0
C      1  0.4814120000000  0.4210000000000  0.4121540000000 1.0
C      1  0.4618320000000  0.5379040000000  0.5636560000000 1.0
C      1  0.5479070000000  0.4359520000000  0.5022650000000 1.0
C      1  0.5142650000000  0.4577140000000  0.4668480000000 1.0
C      1  0.5457020000000  0.4971370000000  0.5577970000000 1.0
C      1  0.4492610000000  0.4158410000000  0.5048430000000 1.0
C      1  0.4880150000000  0.5461890000000  0.5699240000000 1.0
C      1  0.4803640000000  0.4421340000000  0.5300700000000 1.0
C      1  0.4978920000000  0.4842190000000  0.5176290000000 1.0
C      1  0.4590440000000  0.5124800000000  0.5210200000000 1.0
C      1  0.5394420000000  0.5734490000000  0.4012820000000 1.0
C      1  0.5381400000000  0.5540030000000  0.5210950000000 1.0
C      1  0.4806600000000  0.4917830000000  0.4618840000000 1.0
C      1  0.5693890000000  0.5485250000000  0.4309420000000 1.0
C      1  0.5649800000000  0.5043530000000  0.5382180000000 1.0
C      1  0.4721690000000  0.4350400000000  0.5042740000000 1.0
C      1  0.5527000000000  0.4934030000000  0.4509050000000 1.0
C      1  0.5296240000000  0.5025920000000  0.4653280000000 1.0
C      1  0.5268710000000  0.5642950000000  0.4479270000000 1.0
C      1  0.4475920000000  0.4102310000000  0.4758120000000 1.0
C      1  0.4987180000000  0.5634780000000  0.4476700000000 1.0
C      1  0.4714560000000  0.4904160000000  0.5080310000000 1.0
C      1  0.4014980000000  0.5685830000000  0.5930140000000 1.0
C      1  0.5180440000000  0.5022500000000  0.5110200000000 1.0
C      1  0.4565030000000  0.4414530000000  0.5471280000000 1.0
C      1  0.4268500000000  0.5746980000000  0.5558980000000 1.0
C      1  0.5299260000000  0.5528570000000  0.5463890000000 1.0
C      1  0.5451120000000  0.5622900000000  0.4261450000000 1.0
C      1  0.5775830000000  0.5041300000000  0.5142610000000 1.0
C      1  0.4640840000000  0.4297720000000  0.4598270000000 1.0
C      1  0.5828680000000  0.5042990000000  0.4877060000000 1.0
C      1  0.5336840000000  0.5839190000000  0.3781210000000 1.0
C      1  0.4843000000000  0.4293910000000  0.4391650000000 1.0
C      1  0.5124620000000  0.4656970000000  0.5590010000000 1.0
C      1  0.4661260000000  0.4788430000000  0.4823590000000 1.0
C      1  0.5291650000000  0.4514840000000  0.4229950000000 1.0
C      1  0.4602010000000  0.5129380000000  0.5498850000000 1.0
C      1  0.5827300000000  0.5295500000000  0.4445110000000 1.0
C      1  0.5408390000000  0.4684690000000  0.5615310000000 1.0
C      1  0.5141190000000  0.5376710000000  0.5638010000000 1.0
C      1  0.5591350000000  0.4492490000000  0.5669570000000 1.0
C      1  0.4998050000000  0.4269820000000  0.3928910000000 1.0
C      1  0.4988050000000  0.4895870000000  0.5698820000000 1.0
C      1  0.5763990000000  0.5067350000000  0.4599140000000 1.0
C      1  0.5006160000000  0.4607980000000  0.5337860000000 1.0
C      1  0.4627330000000  0.5498270000000  0.4835320000000 1.0
C      1  0.5078900000000  0.4853570000000  0.4623740000000 1.0
C      1  0.5381710000000  0.5617690000000  0.4734890000000 1.0
C      1  0.4220750000000  0.5500010000000  0.5936980000000 1.0
C      1  0.4392610000000  0.4219160000000  0.5320290000000 1.0
C      1  0.5225990000000  0.4413090000000  0.3973910000000 1.0
C      1  0.4700320000000  0.4898220000000  0.5644450000000 1.0
END
