TITL C-612606-7351-418 4119.80461349744 125000 -938.440013928638 0 0 156 (C1) n - 1
REM
REM in /home/nfs/bkarasulu/CARBON/AIRSS/Generating-Clusters/TERSOFF/Only-C1/FIRE-HFTN
REM
REM
REM
REM
REM
REM ./C.cell (11c1c37f851c82e70ff6c80c92926a4b)
REM AIRSS Version 0.9.1 bugfix July 2018 build 013d7b7c2542+ Fri, 06 Jul 2018 19:26:36 +0100
REM compiler GCC version 9.2.1 20190827 (Red Hat 9.2.1-1)
REM options -cpp -mtune=generic -march=x86-64 -g -O0 -fpre-include=/usr/include/finclude/math-vector-fortran.h
REM seed -412397952 -33343413 -1806873699 1647375333 1468035246 1708063324 1947191876 765651530 -1061319989 1856168684 -583758961 -1628335888 -313443353 -555659262 -1032361694 -188618382 1768065306 1398688079 -1773517101 725412406 595445200 -1624571506 -2119358577 -2070765379 185397412 -1714491483 893727479 1625076167 -1627524974 483177306 -1844956449 53192348 1259537122
REM
CELL 1.54180   50.00000   50.00000   50.00000   90.00000   90.00000   90.00000
LATT -1
SFAC C  
C      1  0.5441910000000  0.4223600000000  0.4044740000000 1.0
C      1  0.5264930000000  0.5341650000000  0.5965750000000 1.0
C      1  0.5022600000000  0.5995520000000  0.5438470000000 1.0
C      1  0.5259930000000  0.5933470000000  0.4934190000000 1.0
C      1  0.5037490000000  0.5418690000000  0.3605440000000 1.0
C      1  0.4635750000000  0.5579400000000  0.4008610000000 1.0
C      1  0.5384470000000  0.4722840000000  0.4800320000000 1.0
C      1  0.5060360000000  0.3703190000000  0.4477860000000 1.0
C      1  0.4564730000000  0.5125020000000  0.4296160000000 1.0
C      1  0.4535010000000  0.5499600000000  0.5979820000000 1.0
C      1  0.3887660000000  0.4968410000000  0.5327080000000 1.0
C      1  0.5847220000000  0.4543030000000  0.4296980000000 1.0
C      1  0.5543480000000  0.5278300000000  0.5891560000000 1.0
C      1  0.4664260000000  0.5153110000000  0.6307240000000 1.0
C      1  0.6097290000000  0.3272430000000  0.5004670000000 1.0
C      1  0.4857310000000  0.4929380000000  0.5707130000000 1.0
C      1  0.4817130000000  0.5563080000000  0.3550460000000 1.0
C      1  0.5260000000000  0.4335820000000  0.4222020000000 1.0
C      1  0.4696500000000  0.5789560000000  0.4181310000000 1.0
C      1  0.4698090000000  0.6144770000000  0.5840890000000 1.0
C      1  0.4794590000000  0.5981950000000  0.4666340000000 1.0
C      1  0.4968300000000  0.4722130000000  0.3917950000000 1.0
C      1  0.5338030000000  0.5794470000000  0.5827410000000 1.0
C      1  0.5719410000000  0.4670540000000  0.4916460000000 1.0
C      1  0.4635920000000  0.4449680000000  0.5688340000000 1.0
C      1  0.6178630000000  0.5406830000000  0.5126940000000 1.0
C      1  0.4431050000000  0.5582020000000  0.5162980000000 1.0
C      1  0.4198740000000  0.5563540000000  0.5329570000000 1.0
C      1  0.5196750000000  0.4799690000000  0.5006240000000 1.0
C      1  0.5234430000000  0.5415760000000  0.4067180000000 1.0
C      1  0.5348360000000  0.4863030000000  0.5757640000000 1.0
C      1  0.4291250000000  0.5390010000000  0.4589240000000 1.0
C      1  0.4761890000000  0.4613990000000  0.3769870000000 1.0
C      1  0.5124860000000  0.3955520000000  0.4490320000000 1.0
C      1  0.5812800000000  0.5111040000000  0.3994070000000 1.0
C      1  0.4527920000000  0.5809740000000  0.5029790000000 1.0
C      1  0.3863450000000  0.3785460000000  0.5069560000000 1.0
C      1  0.3718230000000  0.5619320000000  0.5287920000000 1.0
C      1  0.5614450000000  0.5707180000000  0.4249350000000 1.0
C      1  0.5514200000000  0.5210380000000  0.5058770000000 1.0
C      1  0.4371510000000  0.4471650000000  0.5590300000000 1.0
C      1  0.5578920000000  0.5040220000000  0.5738220000000 1.0
C      1  0.4447220000000  0.5077520000000  0.4926170000000 1.0
C      1  0.4513760000000  0.5522840000000  0.5702120000000 1.0
C      1  0.5434520000000  0.4251130000000  0.4715560000000 1.0
C      1  0.4848990000000  0.6053410000000  0.5649020000000 1.0
C      1  0.4777840000000  0.4922630000000  0.5217630000000 1.0
C      1  0.5873900000000  0.4409570000000  0.4543870000000 1.0
C      1  0.4954180000000  0.4719630000000  0.5133680000000 1.0
C      1  0.5710990000000  0.5506670000000  0.5886970000000 1.0
C      1  0.5441390000000  0.4804060000000  0.4329370000000 1.0
C      1  0.5029020000000  0.4999650000000  0.3865050000000 1.0
C      1  0.4977030000000  0.5001220000000  0.4598740000000 1.0
C      1  0.5731030000000  0.5282150000000  0.4445290000000 1.0
C      1  0.5355950000000  0.4979760000000  0.5149300000000 1.0
C      1  0.3868970000000  0.4026430000000  0.5223900000000 1.0
C      1  0.5400630000000  0.5646520000000  0.4089160000000 1.0
C      1  0.4780980000000  0.5796340000000  0.4887920000000 1.0
C      1  0.6136690000000  0.4813820000000  0.4785680000000 1.0
C      1  0.4090160000000  0.5761400000000  0.5762310000000 1.0
C      1  0.4342190000000  0.4626490000000  0.5095960000000 1.0
C      1  0.6013710000000  0.5190630000000  0.5138060000000 1.0
C      1  0.5859680000000  0.4540320000000  0.5652020000000 1.0
C      1  0.4680980000000  0.4188780000000  0.4620480000000 1.0
C      1  0.5441080000000  0.5238650000000  0.4521960000000 1.0
C      1  0.4416750000000  0.6072320000000  0.5034070000000 1.0
C      1  0.4252560000000  0.5261320000000  0.4838790000000 1.0
C      1  0.6084760000000  0.4931130000000  0.5045690000000 1.0
C      1  0.5144730000000  0.5232990000000  0.5488350000000 1.0
C      1  0.5733340000000  0.5575060000000  0.4475790000000 1.0
C      1  0.5946860000000  0.6202460000000  0.5845200000000 1.0
C      1  0.4636580000000  0.5394330000000  0.5239520000000 1.0
C      1  0.4225830000000  0.4727790000000  0.5615170000000 1.0
C      1  0.4381290000000  0.4802360000000  0.4895110000000 1.0
C      1  0.5348860000000  0.4316380000000  0.4994690000000 1.0
C      1  0.4871020000000  0.5018860000000  0.6171020000000 1.0
C      1  0.4259970000000  0.5616910000000  0.5603800000000 1.0
C      1  0.5484980000000  0.4454840000000  0.5225240000000 1.0
C      1  0.3977560000000  0.4740270000000  0.5462680000000 1.0
C      1  0.5534050000000  0.4280510000000  0.5447060000000 1.0
C      1  0.3908290000000  0.5193330000000  0.5156750000000 1.0
C      1  0.4794360000000  0.3773000000000  0.5206190000000 1.0
C      1  0.5031700000000  0.3747730000000  0.5323830000000 1.0
C      1  0.5915180000000  0.3715600000000  0.4788300000000 1.0
C      1  0.4711030000000  0.5160890000000  0.5046400000000 1.0
C      1  0.4678940000000  0.4575810000000  0.5948220000000 1.0
C      1  0.5790040000000  0.5994460000000  0.5853160000000 1.0
C      1  0.5121080000000  0.4997930000000  0.5647290000000 1.0
C      1  0.5931730000000  0.4619150000000  0.4721970000000 1.0
C      1  0.5372950000000  0.4986190000000  0.4121940000000 1.0
C      1  0.5077190000000  0.4268510000000  0.5083000000000 1.0
C      1  0.5162260000000  0.5569560000000  0.5809280000000 1.0
C      1  0.5360070000000  0.4577210000000  0.5764480000000 1.0
C      1  0.5420160000000  0.5370970000000  0.4807020000000 1.0
C      1  0.5050340000000  0.5702620000000  0.5008220000000 1.0
C      1  0.4536660000000  0.5369660000000  0.6212590000000 1.0
C      1  0.5509110000000  0.4800800000000  0.5319920000000 1.0
C      1  0.5713460000000  0.4199740000000  0.4650810000000 1.0
C      1  0.4934650000000  0.5205700000000  0.4826190000000 1.0
C      1  0.5600450000000  0.5620230000000  0.4738690000000 1.0
C      1  0.5108660000000  0.5173680000000  0.6131360000000 1.0
C      1  0.6006470000000  0.3490530000000  0.4894430000000 1.0
C      1  0.5731240000000  0.4799140000000  0.4319170000000 1.0
C      1  0.4720740000000  0.5449010000000  0.5515070000000 1.0
C      1  0.5123600000000  0.5429330000000  0.4875970000000 1.0
C      1  0.5822580000000  0.3948110000000  0.4701640000000 1.0
C      1  0.4645840000000  0.5315960000000  0.4107570000000 1.0
C      1  0.4689850000000  0.4927230000000  0.5484440000000 1.0
C      1  0.4627240000000  0.5625770000000  0.3730950000000 1.0
C      1  0.4622560000000  0.4677250000000  0.4482800000000 1.0
C      1  0.5292260000000  0.5224640000000  0.4272150000000 1.0
C      1  0.5187100000000  0.6196510000000  0.5021430000000 1.0
C      1  0.4772610000000  0.6253380000000  0.4761660000000 1.0
C      1  0.3890540000000  0.5043900000000  0.4640950000000 1.0
C      1  0.5254250000000  0.4207080000000  0.4486340000000 1.0
C      1  0.5511200000000  0.5862060000000  0.4840570000000 1.0
C      1  0.3746180000000  0.4277370000000  0.5283210000000 1.0
C      1  0.4119330000000  0.3687270000000  0.5032610000000 1.0
C      1  0.4795380000000  0.4834060000000  0.5965980000000 1.0
C      1  0.4128390000000  0.5884400000000  0.4472230000000 1.0
C      1  0.5053450000000  0.5725650000000  0.5328990000000 1.0
C      1  0.5117540000000  0.4439520000000  0.5700230000000 1.0
C      1  0.4933390000000  0.4453970000000  0.5246140000000 1.0
C      1  0.4298330000000  0.5177030000000  0.4392460000000 1.0
C      1  0.4048970000000  0.5032990000000  0.4413040000000 1.0
C      1  0.4316960000000  0.3862000000000  0.5154580000000 1.0
C      1  0.3982580000000  0.5167550000000  0.4883560000000 1.0
C      1  0.5271010000000  0.3827100000000  0.5409850000000 1.0
C      1  0.4719730000000  0.4415020000000  0.4482230000000 1.0
C      1  0.5620600000000  0.5774980000000  0.5856540000000 1.0
C      1  0.5562690000000  0.5032560000000  0.3908980000000 1.0
C      1  0.5842310000000  0.5072610000000  0.4279740000000 1.0
C      1  0.5903430000000  0.4723220000000  0.5159070000000 1.0
C      1  0.4784390000000  0.5910020000000  0.4399730000000 1.0
C      1  0.5271890000000  0.4811150000000  0.4557080000000 1.0
C      1  0.4388080000000  0.4700820000000  0.4635740000000 1.0
C      1  0.5746800000000  0.5201100000000  0.5245230000000 1.0
C      1  0.5022750000000  0.5502720000000  0.5539510000000 1.0
C      1  0.4628690000000  0.4020560000000  0.4820410000000 1.0
C      1  0.3930330000000  0.4462340000000  0.5400140000000 1.0
C      1  0.4743250000000  0.4933910000000  0.4431470000000 1.0
C      1  0.5964810000000  0.4615160000000  0.5412930000000 1.0
C      1  0.5107280000000  0.5279750000000  0.3839930000000 1.0
C      1  0.5149520000000  0.6205850000000  0.5299920000000 1.0
C      1  0.4530570000000  0.6287430000000  0.4909030000000 1.0
C      1  0.5019310000000  0.6353780000000  0.4856260000000 1.0
C      1  0.5458180000000  0.4012370000000  0.5451140000000 1.0
C      1  0.4161300000000  0.4057500000000  0.5304400000000 1.0
C      1  0.4581260000000  0.3884200000000  0.5062160000000 1.0
C      1  0.5597340000000  0.4436780000000  0.5678490000000 1.0
C      1  0.4185990000000  0.4305090000000  0.5445970000000 1.0
C      1  0.5095260000000  0.4543140000000  0.4106440000000 1.0
C      1  0.4883610000000  0.4418910000000  0.5533990000000 1.0
C      1  0.3940070000000  0.5459940000000  0.5262000000000 1.0
C      1  0.5675500000000  0.5010120000000  0.5468310000000 1.0
C      1  0.4237290000000  0.5655150000000  0.4531940000000 1.0
END
