TITL C-612602-9376-1267 0.00757470568583546 125000 -929.367910683451 0 0 155 (C1) n - 1
REM
REM in /home/nfs/bkarasulu/CARBON/AIRSS/Generating-Clusters/TERSOFF/Only-C1/FIRE-HFTN
REM
REM
REM
REM
REM
REM ./C.cell (11c1c37f851c82e70ff6c80c92926a4b)
REM AIRSS Version 0.9.1 bugfix July 2018 build 013d7b7c2542+ Fri, 06 Jul 2018 19:26:36 +0100
REM compiler GCC version 9.2.1 20190827 (Red Hat 9.2.1-1)
REM options -cpp -mtune=generic -march=x86-64 -g -O0 -fpre-include=/usr/include/finclude/math-vector-fortran.h
REM seed 44028657 943172823 369112695 -1922996535 130200194 1247125662 1262625595 688859304 1564386441 -288961216 -1527815954 -1401547692 1333425071 632306605 -704767283 -1251270423 -343180568 -1378808703 1838092545 608726081 -1640118895 1101545386 -645552863 -641369804 436532203 151859803 -1362130859 -1611523033 -1753184134 1880000027 -2055260845 -1852052371 -740364373
REM
CELL 1.54180   50.00000   50.00000   50.00000   90.00000   90.00000   90.00000
LATT -1
SFAC C  
C      1  0.5480830000000  0.4982140000000  0.4804090000000 1.0
C      1  0.3457250000000  0.5398020000000  0.5532500000000 1.0
C      1  0.5582680000000  0.4794370000000  0.4992360000000 1.0
C      1  0.5887760000000  0.4363560000000  0.4058180000000 1.0
C      1  0.5979540000000  0.5138710000000  0.4593000000000 1.0
C      1  0.4264500000000  0.5590640000000  0.4835900000000 1.0
C      1  0.4125760000000  0.4744690000000  0.4493500000000 1.0
C      1  0.4043490000000  0.5967290000000  0.4606620000000 1.0
C      1  0.5605600000000  0.5862930000000  0.5281400000000 1.0
C      1  0.5091310000000  0.6290350000000  0.5661090000000 1.0
C      1  0.4618690000000  0.5361370000000  0.4703780000000 1.0
C      1  0.4680130000000  0.5041800000000  0.5048990000000 1.0
C      1  0.4611700000000  0.5552970000000  0.3998430000000 1.0
C      1  0.5064150000000  0.5310390000000  0.5035440000000 1.0
C      1  0.4094400000000  0.5360780000000  0.4873060000000 1.0
C      1  0.5662080000000  0.5202880000000  0.5277180000000 1.0
C      1  0.4532620000000  0.5530060000000  0.4916110000000 1.0
C      1  0.5933670000000  0.4675370000000  0.4684950000000 1.0
C      1  0.5235250000000  0.6212040000000  0.5211000000000 1.0
C      1  0.4817440000000  0.5181920000000  0.4646460000000 1.0
C      1  0.5486420000000  0.6113820000000  0.5215400000000 1.0
C      1  0.4590110000000  0.4208270000000  0.3953950000000 1.0
C      1  0.5919890000000  0.5667380000000  0.4584370000000 1.0
C      1  0.4795300000000  0.4885540000000  0.4613850000000 1.0
C      1  0.4613630000000  0.4897550000000  0.4145750000000 1.0
C      1  0.4526060000000  0.4914680000000  0.3895490000000 1.0
C      1  0.4290970000000  0.4894230000000  0.5562480000000 1.0
C      1  0.5452530000000  0.4181170000000  0.4528150000000 1.0
C      1  0.4682790000000  0.5579880000000  0.5155640000000 1.0
C      1  0.5399650000000  0.4326580000000  0.5523920000000 1.0
C      1  0.4834780000000  0.5644490000000  0.5860980000000 1.0
C      1  0.5586210000000  0.5880030000000  0.5796090000000 1.0
C      1  0.3838370000000  0.6126500000000  0.4584480000000 1.0
C      1  0.4893480000000  0.5006770000000  0.6164070000000 1.0
C      1  0.5396940000000  0.4494210000000  0.6063160000000 1.0
C      1  0.5135630000000  0.4429950000000  0.5564880000000 1.0
C      1  0.5888780000000  0.4088650000000  0.5004240000000 1.0
C      1  0.4790230000000  0.5178050000000  0.6342380000000 1.0
C      1  0.6084160000000  0.4897190000000  0.5090830000000 1.0
C      1  0.5280350000000  0.4382530000000  0.4099130000000 1.0
C      1  0.5143780000000  0.4447620000000  0.4825420000000 1.0
C      1  0.5541750000000  0.5659400000000  0.5093100000000 1.0
C      1  0.4478000000000  0.4577650000000  0.6114190000000 1.0
C      1  0.4409150000000  0.5823880000000  0.5469620000000 1.0
C      1  0.5508950000000  0.5988700000000  0.4438690000000 1.0
C      1  0.5337660000000  0.5119860000000  0.5612340000000 1.0
C      1  0.5340570000000  0.5747030000000  0.4911850000000 1.0
C      1  0.5688340000000  0.3945310000000  0.4869230000000 1.0
C      1  0.4258370000000  0.4423830000000  0.5639470000000 1.0
C      1  0.4372960000000  0.4622670000000  0.4444900000000 1.0
C      1  0.5576520000000  0.5256430000000  0.4811560000000 1.0
C      1  0.4987050000000  0.6062040000000  0.4458570000000 1.0
C      1  0.5997020000000  0.4759420000000  0.5316720000000 1.0
C      1  0.5628430000000  0.5385890000000  0.5062490000000 1.0
C      1  0.4934920000000  0.4585880000000  0.5439480000000 1.0
C      1  0.4234940000000  0.5248020000000  0.5990940000000 1.0
C      1  0.4525680000000  0.4006240000000  0.5162350000000 1.0
C      1  0.4378330000000  0.5746320000000  0.5725600000000 1.0
C      1  0.4798010000000  0.5026220000000  0.5679990000000 1.0
C      1  0.4818560000000  0.4153440000000  0.5804830000000 1.0
C      1  0.5858540000000  0.4355200000000  0.5028830000000 1.0
C      1  0.5461650000000  0.4609100000000  0.4098090000000 1.0
C      1  0.4928040000000  0.5875370000000  0.5728780000000 1.0
C      1  0.5238580000000  0.5995930000000  0.4331470000000 1.0
C      1  0.5026210000000  0.5441940000000  0.5898810000000 1.0
C      1  0.4651360000000  0.5809460000000  0.5322780000000 1.0
C      1  0.5080800000000  0.5579880000000  0.4082810000000 1.0
C      1  0.5329540000000  0.4237500000000  0.4796060000000 1.0
C      1  0.4594860000000  0.4797670000000  0.4408240000000 1.0
C      1  0.5378600000000  0.4898830000000  0.4105300000000 1.0
C      1  0.4080070000000  0.5072600000000  0.4872520000000 1.0
C      1  0.5548810000000  0.4930950000000  0.5238660000000 1.0
C      1  0.4570130000000  0.4605750000000  0.5085440000000 1.0
C      1  0.5424040000000  0.4024190000000  0.4964020000000 1.0
C      1  0.4490470000000  0.5827850000000  0.4446160000000 1.0
C      1  0.4489280000000  0.5682350000000  0.4200630000000 1.0
C      1  0.5649210000000  0.5438840000000  0.4320040000000 1.0
C      1  0.5117350000000  0.6066530000000  0.5842180000000 1.0
C      1  0.4444890000000  0.5419280000000  0.6080820000000 1.0
C      1  0.4551970000000  0.5612950000000  0.5904130000000 1.0
C      1  0.5631730000000  0.4484590000000  0.5613180000000 1.0
C      1  0.5098630000000  0.4753730000000  0.5268120000000 1.0
C      1  0.5733730000000  0.5477450000000  0.4075460000000 1.0
C      1  0.4823840000000  0.4294020000000  0.3860720000000 1.0
C      1  0.5189900000000  0.5249700000000  0.5810590000000 1.0
C      1  0.5762500000000  0.4585670000000  0.4900640000000 1.0
C      1  0.6072000000000  0.5417330000000  0.4597900000000 1.0
C      1  0.5388680000000  0.4062330000000  0.5425800000000 1.0
C      1  0.4386890000000  0.4356810000000  0.4361710000000 1.0
C      1  0.5171360000000  0.5358960000000  0.4253900000000 1.0
C      1  0.5740620000000  0.5866650000000  0.4521810000000 1.0
C      1  0.5858760000000  0.4701060000000  0.4407680000000 1.0
C      1  0.3984210000000  0.5270510000000  0.6098160000000 1.0
C      1  0.4757430000000  0.4778290000000  0.4914940000000 1.0
C      1  0.5678040000000  0.5826330000000  0.5549840000000 1.0
C      1  0.5739090000000  0.4553020000000  0.4190830000000 1.0
C      1  0.5798690000000  0.4991150000000  0.4396160000000 1.0
C      1  0.3961550000000  0.4333210000000  0.5271650000000 1.0
C      1  0.5202160000000  0.5698770000000  0.4687060000000 1.0
C      1  0.4109430000000  0.4963090000000  0.5352270000000 1.0
C      1  0.4408690000000  0.4160940000000  0.4162390000000 1.0
C      1  0.4867090000000  0.5949040000000  0.5447100000000 1.0
C      1  0.4718920000000  0.4605600000000  0.5983920000000 1.0
C      1  0.4263010000000  0.5795850000000  0.4629860000000 1.0
C      1  0.4820100000000  0.5207110000000  0.5473650000000 1.0
C      1  0.6097100000000  0.4372220000000  0.5579310000000 1.0
C      1  0.5075450000000  0.4366930000000  0.3907760000000 1.0
C      1  0.4157010000000  0.4364660000000  0.5068670000000 1.0
C      1  0.4587600000000  0.5351800000000  0.6313470000000 1.0
C      1  0.5896890000000  0.4547610000000  0.5495750000000 1.0
C      1  0.4772210000000  0.3964900000000  0.5296020000000 1.0
C      1  0.4288620000000  0.5056570000000  0.5792060000000 1.0
C      1  0.4015130000000  0.4944760000000  0.4630560000000 1.0
C      1  0.5582640000000  0.5260020000000  0.5543970000000 1.0
C      1  0.4419750000000  0.4908770000000  0.3657520000000 1.0
C      1  0.5023470000000  0.6193760000000  0.5393970000000 1.0
C      1  0.4649610000000  0.4587480000000  0.5373620000000 1.0
C      1  0.5146230000000  0.4401160000000  0.6083950000000 1.0
C      1  0.4867140000000  0.5461610000000  0.3924270000000 1.0
C      1  0.5063730000000  0.5272980000000  0.4749070000000 1.0
C      1  0.5195190000000  0.5832210000000  0.4103290000000 1.0
C      1  0.4872300000000  0.5374160000000  0.5240830000000 1.0
C      1  0.4996350000000  0.3901620000000  0.5127930000000 1.0
C      1  0.4328180000000  0.4139300000000  0.5039190000000 1.0
C      1  0.6054940000000  0.4926900000000  0.4800750000000 1.0
C      1  0.5080580000000  0.4807230000000  0.4530210000000 1.0
C      1  0.3872740000000  0.5098680000000  0.5414580000000 1.0
C      1  0.4028570000000  0.4328250000000  0.5534140000000 1.0
C      1  0.4940560000000  0.3843670000000  0.4851020000000 1.0
C      1  0.4283950000000  0.4622430000000  0.5040650000000 1.0
C      1  0.4950310000000  0.3886870000000  0.4584760000000 1.0
C      1  0.4791590000000  0.4017150000000  0.5574100000000 1.0
C      1  0.5341940000000  0.4922380000000  0.4568860000000 1.0
C      1  0.5271770000000  0.3961310000000  0.5189870000000 1.0
C      1  0.5300810000000  0.4914330000000  0.5392410000000 1.0
C      1  0.5053530000000  0.4005040000000  0.4363420000000 1.0
C      1  0.4973450000000  0.5192820000000  0.3871430000000 1.0
C      1  0.5177020000000  0.5111410000000  0.4066810000000 1.0
C      1  0.5220710000000  0.5432840000000  0.4549120000000 1.0
C      1  0.6346660000000  0.5449250000000  0.4616330000000 1.0
C      1  0.5594260000000  0.4552460000000  0.5889000000000 1.0
C      1  0.5274350000000  0.4179960000000  0.4307880000000 1.0
C      1  0.4727660000000  0.5984710000000  0.4495230000000 1.0
C      1  0.5517920000000  0.5390670000000  0.4566710000000 1.0
C      1  0.4158030000000  0.4885800000000  0.5081940000000 1.0
C      1  0.5073790000000  0.4527900000000  0.4561090000000 1.0
C      1  0.4423980000000  0.4637150000000  0.5551700000000 1.0
C      1  0.5667990000000  0.3997190000000  0.4583070000000 1.0
C      1  0.4259860000000  0.3932250000000  0.4171730000000 1.0
C      1  0.5035580000000  0.4661270000000  0.5000600000000 1.0
C      1  0.4814360000000  0.4872480000000  0.5927130000000 1.0
C      1  0.5511560000000  0.4983460000000  0.4346650000000 1.0
C      1  0.4889470000000  0.4375830000000  0.5967870000000 1.0
C      1  0.3660520000000  0.5246710000000  0.5471360000000 1.0
C      1  0.5371430000000  0.5980140000000  0.5922620000000 1.0
END
