TITL C-612603-7354-467 -2.19505003531755e-05 125000 -927.54283972094 0 0 149 (C1) n - 1
REM
REM in /home/nfs/bkarasulu/CARBON/AIRSS/Generating-Clusters/TERSOFF/Only-C1/FIRE-HFTN
REM
REM
REM
REM
REM
REM ./C.cell (11c1c37f851c82e70ff6c80c92926a4b)
REM AIRSS Version 0.9.1 bugfix July 2018 build 013d7b7c2542+ Fri, 06 Jul 2018 19:26:36 +0100
REM compiler GCC version 9.2.1 20190827 (Red Hat 9.2.1-1)
REM options -cpp -mtune=generic -march=x86-64 -g -O0 -fpre-include=/usr/include/finclude/math-vector-fortran.h
REM seed -1317272680 -1584159962 1788379056 -1262775593 -1036554815 -1331870960 -1598817308 503238197 886177676 1795706893 571798142 1133723716 1895140936 546373428 -1605499241 -855402391 1854392176 197685141 -1332203460 1504441865 -1597269743 -1451607590 249572260 1010910856 -791144518 754531592 -1607419968 -1855045405 -69913043 -1397539952 -1308452858 392437464 1882961382
REM
CELL 1.54180   50.00000   50.00000   50.00000   90.00000   90.00000   90.00000
LATT -1
SFAC C  
C      1  0.5045680000000  0.4036420000000  0.4262130000000 1.0
C      1  0.5703840000000  0.5541990000000  0.5199120000000 1.0
C      1  0.4386730000000  0.4016940000000  0.5221980000000 1.0
C      1  0.4846440000000  0.4817850000000  0.4603150000000 1.0
C      1  0.4182680000000  0.4063620000000  0.5057700000000 1.0
C      1  0.5919820000000  0.5091410000000  0.5979900000000 1.0
C      1  0.4872300000000  0.6014230000000  0.4498580000000 1.0
C      1  0.5431220000000  0.5536980000000  0.5939510000000 1.0
C      1  0.5342870000000  0.5862420000000  0.5288470000000 1.0
C      1  0.4292830000000  0.5675700000000  0.5294980000000 1.0
C      1  0.5318810000000  0.4923410000000  0.5504000000000 1.0
C      1  0.4232600000000  0.5628230000000  0.4593900000000 1.0
C      1  0.4917080000000  0.4609600000000  0.3763920000000 1.0
C      1  0.4498640000000  0.5894050000000  0.4965320000000 1.0
C      1  0.5665630000000  0.5351890000000  0.4267180000000 1.0
C      1  0.5196930000000  0.5407180000000  0.4353620000000 1.0
C      1  0.5285250000000  0.4232670000000  0.3928260000000 1.0
C      1  0.4377930000000  0.5282030000000  0.5695300000000 1.0
C      1  0.4048300000000  0.4230450000000  0.4899990000000 1.0
C      1  0.4782390000000  0.4195110000000  0.4900980000000 1.0
C      1  0.5744260000000  0.4474070000000  0.5080520000000 1.0
C      1  0.4100640000000  0.5327500000000  0.5713950000000 1.0
C      1  0.4679080000000  0.4247360000000  0.4659930000000 1.0
C      1  0.4826890000000  0.4434230000000  0.3977240000000 1.0
C      1  0.4619690000000  0.4339770000000  0.4416090000000 1.0
C      1  0.4412900000000  0.5012110000000  0.4281050000000 1.0
C      1  0.5693040000000  0.5504370000000  0.5481330000000 1.0
C      1  0.4938770000000  0.5300190000000  0.4468300000000 1.0
C      1  0.5160100000000  0.5106660000000  0.6381580000000 1.0
C      1  0.4211380000000  0.5338580000000  0.4647480000000 1.0
C      1  0.3886100000000  0.5296880000000  0.5556010000000 1.0
C      1  0.4991050000000  0.5474770000000  0.5230680000000 1.0
C      1  0.4607050000000  0.5451770000000  0.5814880000000 1.0
C      1  0.4760840000000  0.4784450000000  0.5065400000000 1.0
C      1  0.5510210000000  0.4655420000000  0.4484890000000 1.0
C      1  0.5163910000000  0.5013870000000  0.5287240000000 1.0
C      1  0.4770030000000  0.5758590000000  0.4575230000000 1.0
C      1  0.4597070000000  0.4156040000000  0.5634140000000 1.0
C      1  0.5603130000000  0.4061190000000  0.4773140000000 1.0
C      1  0.5515020000000  0.5858660000000  0.4829220000000 1.0
C      1  0.4806700000000  0.5548950000000  0.3927860000000 1.0
C      1  0.4767350000000  0.5096850000000  0.5492170000000 1.0
C      1  0.4833810000000  0.4207340000000  0.5179760000000 1.0
C      1  0.5260660000000  0.6013680000000  0.4848780000000 1.0
C      1  0.4967660000000  0.5318160000000  0.3870580000000 1.0
C      1  0.5738510000000  0.5600900000000  0.4410500000000 1.0
C      1  0.5284170000000  0.5641470000000  0.4481510000000 1.0
C      1  0.4622800000000  0.5488490000000  0.4147070000000 1.0
C      1  0.6063660000000  0.4715170000000  0.4159300000000 1.0
C      1  0.4902350000000  0.4693390000000  0.6392670000000 1.0
C      1  0.4320000000000  0.5076020000000  0.4555460000000 1.0
C      1  0.4920860000000  0.4969030000000  0.6334630000000 1.0
C      1  0.5894840000000  0.4895220000000  0.5802640000000 1.0
C      1  0.4622130000000  0.4500400000000  0.4180630000000 1.0
C      1  0.4778130000000  0.5247330000000  0.5949820000000 1.0
C      1  0.4671910000000  0.5389270000000  0.4878590000000 1.0
C      1  0.5138930000000  0.5924280000000  0.5095460000000 1.0
C      1  0.5532990000000  0.4742280000000  0.5453420000000 1.0
C      1  0.4744680000000  0.5530500000000  0.4401300000000 1.0
C      1  0.4617690000000  0.4112370000000  0.5352320000000 1.0
C      1  0.4722850000000  0.5707930000000  0.4873730000000 1.0
C      1  0.4355460000000  0.4754710000000  0.6044410000000 1.0
C      1  0.4747380000000  0.5710420000000  0.5701180000000 1.0
C      1  0.4431520000000  0.5289480000000  0.5067540000000 1.0
C      1  0.4627580000000  0.5900520000000  0.5509080000000 1.0
C      1  0.5550560000000  0.5367070000000  0.6128810000000 1.0
C      1  0.6007470000000  0.5477030000000  0.6263130000000 1.0
C      1  0.5721800000000  0.4223280000000  0.4950040000000 1.0
C      1  0.5407310000000  0.3947540000000  0.4607900000000 1.0
C      1  0.5063710000000  0.4427140000000  0.5547610000000 1.0
C      1  0.4397300000000  0.5025860000000  0.5219010000000 1.0
C      1  0.4894170000000  0.5012540000000  0.4413060000000 1.0
C      1  0.5468520000000  0.4141520000000  0.4115040000000 1.0
C      1  0.5098930000000  0.6105140000000  0.4640350000000 1.0
C      1  0.4922310000000  0.5099420000000  0.5751460000000 1.0
C      1  0.4640500000000  0.3969080000000  0.5841090000000 1.0
C      1  0.4147670000000  0.5348360000000  0.4953830000000 1.0
C      1  0.5759710000000  0.4763400000000  0.5615570000000 1.0
C      1  0.5499950000000  0.5596050000000  0.5666020000000 1.0
C      1  0.4246800000000  0.5797920000000  0.4831890000000 1.0
C      1  0.4483690000000  0.4840140000000  0.5015840000000 1.0
C      1  0.5517670000000  0.4559170000000  0.5232690000000 1.0
C      1  0.5261590000000  0.4490490000000  0.5116670000000 1.0
C      1  0.4798430000000  0.5096250000000  0.3975450000000 1.0
C      1  0.5979500000000  0.4511960000000  0.4322960000000 1.0
C      1  0.4755390000000  0.6162860000000  0.4301930000000 1.0
C      1  0.4727600000000  0.4006900000000  0.6093350000000 1.0
C      1  0.4950790000000  0.5717160000000  0.5074260000000 1.0
C      1  0.5385640000000  0.5317600000000  0.4149000000000 1.0
C      1  0.5175020000000  0.5264150000000  0.5155260000000 1.0
C      1  0.5537030000000  0.5714040000000  0.4581960000000 1.0
C      1  0.5105830000000  0.4787220000000  0.3674880000000 1.0
C      1  0.4469240000000  0.5909000000000  0.5264560000000 1.0
C      1  0.5624770000000  0.4819250000000  0.4042090000000 1.0
C      1  0.5791750000000  0.4589700000000  0.4522010000000 1.0
C      1  0.5186320000000  0.4991850000000  0.5746860000000 1.0
C      1  0.4711680000000  0.5093180000000  0.6181730000000 1.0
C      1  0.5427210000000  0.4716170000000  0.4217280000000 1.0
C      1  0.6170720000000  0.5634250000000  0.6391780000000 1.0
C      1  0.4765140000000  0.5385180000000  0.5376250000000 1.0
C      1  0.4945210000000  0.4926810000000  0.4153370000000 1.0
C      1  0.3919550000000  0.5179800000000  0.5049280000000 1.0
C      1  0.4653400000000  0.3741950000000  0.4239230000000 1.0
C      1  0.5334560000000  0.4040490000000  0.4349390000000 1.0
C      1  0.4412990000000  0.4563420000000  0.5867180000000 1.0
C      1  0.4462960000000  0.5063210000000  0.5505560000000 1.0
C      1  0.5281070000000  0.5757960000000  0.5546700000000 1.0
C      1  0.4317570000000  0.4859440000000  0.4768760000000 1.0
C      1  0.4866400000000  0.4429880000000  0.6369300000000 1.0
C      1  0.4052910000000  0.4748560000000  0.4807760000000 1.0
C      1  0.5852600000000  0.5047550000000  0.4624780000000 1.0
C      1  0.4891560000000  0.4914280000000  0.5286510000000 1.0
C      1  0.5066170000000  0.4351850000000  0.5275710000000 1.0
C      1  0.4991770000000  0.3691550000000  0.4587420000000 1.0
C      1  0.3815830000000  0.5236400000000  0.5304890000000 1.0
C      1  0.4461570000000  0.4961780000000  0.6177330000000 1.0
C      1  0.5382930000000  0.5232550000000  0.6309550000000 1.0
C      1  0.5162440000000  0.4753350000000  0.4146180000000 1.0
C      1  0.5011040000000  0.4218990000000  0.4032250000000 1.0
C      1  0.5165890000000  0.5646260000000  0.5978440000000 1.0
C      1  0.4457370000000  0.4736440000000  0.4198850000000 1.0
C      1  0.5919120000000  0.4670000000000  0.4970550000000 1.0
C      1  0.5872570000000  0.4924770000000  0.4132390000000 1.0
C      1  0.4612050000000  0.4426040000000  0.5728880000000 1.0
C      1  0.5829300000000  0.5312680000000  0.6125360000000 1.0
C      1  0.5180620000000  0.5221680000000  0.4877980000000 1.0
C      1  0.4919550000000  0.4709240000000  0.4846820000000 1.0
C      1  0.5398880000000  0.5062770000000  0.4779620000000 1.0
C      1  0.4006480000000  0.4474350000000  0.4802710000000 1.0
C      1  0.4548290000000  0.5202630000000  0.4107770000000 1.0
C      1  0.5040110000000  0.5737190000000  0.5731320000000 1.0
C      1  0.4884230000000  0.3822410000000  0.4359600000000 1.0
C      1  0.5983520000000  0.5717870000000  0.4376860000000 1.0
C      1  0.4493020000000  0.5467130000000  0.5306330000000 1.0
C      1  0.5665380000000  0.5170160000000  0.4802420000000 1.0
C      1  0.3871570000000  0.4936280000000  0.4915170000000 1.0
C      1  0.5189380000000  0.4629610000000  0.4877770000000 1.0
C      1  0.5745610000000  0.5337560000000  0.5012340000000 1.0
C      1  0.5371430000000  0.4777200000000  0.4711230000000 1.0
C      1  0.4807860000000  0.4186980000000  0.6274610000000 1.0
C      1  0.4876160000000  0.4520930000000  0.5714740000000 1.0
C      1  0.5229790000000  0.3747740000000  0.4704270000000 1.0
C      1  0.4124980000000  0.5641420000000  0.5056700000000 1.0
C      1  0.5568000000000  0.5776330000000  0.5109770000000 1.0
C      1  0.5269270000000  0.5002760000000  0.3725710000000 1.0
C      1  0.5908190000000  0.4775390000000  0.4708810000000 1.0
C      1  0.5833510000000  0.5123590000000  0.4338360000000 1.0
C      1  0.5250770000000  0.5242600000000  0.3891260000000 1.0
C      1  0.4929130000000  0.5289490000000  0.4763940000000 1.0
END
