TITL C-612607-4507-772 24.5459224330872 125000 -459.400487630776 0 0 77 (C1) n - 1
REM
REM in /home/nfs/bkarasulu/CARBON/AIRSS/Generating-Clusters/TERSOFF/Only-C1/FIRE-HFTN
REM
REM
REM
REM
REM
REM ./C.cell (11c1c37f851c82e70ff6c80c92926a4b)
REM AIRSS Version 0.9.1 bugfix July 2018 build 013d7b7c2542+ Fri, 06 Jul 2018 19:26:36 +0100
REM compiler GCC version 9.2.1 20190827 (Red Hat 9.2.1-1)
REM options -cpp -mtune=generic -march=x86-64 -g -O0 -fpre-include=/usr/include/finclude/math-vector-fortran.h
REM seed 38278887 -1923955432 -1544099816 -1942217018 -890783616 -1415603705 -1492410096 -1484619521 -1066636328 -315973804 1642087085 -1630033685 -1588911025 144580844 851400707 1480942358 -435261637 -245924114 426703921 436453617 -730432920 -1785624838 1567691926 22256644 -422526091 -2077257045 -1940419899 211146504 1544039435 741508084 -601279058 -1540659196 -909073323
REM
CELL 1.54180   50.00000   50.00000   50.00000   90.00000   90.00000   90.00000
LATT -1
SFAC C  
C      1  0.6713850000000  0.5101190000000  0.4336070000000 1.0
C      1  0.4678420000000  0.4988110000000  0.5220230000000 1.0
C      1  0.3503940000000  0.4207460000000  0.4447370000000 1.0
C      1  0.4174450000000  0.4278180000000  0.4891820000000 1.0
C      1  0.5274250000000  0.4965360000000  0.5549580000000 1.0
C      1  0.4577660000000  0.4070730000000  0.5169330000000 1.0
C      1  0.4106090000000  0.4948740000000  0.4995490000000 1.0
C      1  0.4451710000000  0.5014340000000  0.4141340000000 1.0
C      1  0.4799630000000  0.5685650000000  0.5774310000000 1.0
C      1  0.5312410000000  0.5237190000000  0.6079080000000 1.0
C      1  0.4934760000000  0.5949680000000  0.4984970000000 1.0
C      1  0.5919240000000  0.5644170000000  0.4545110000000 1.0
C      1  0.4755240000000  0.5538300000000  0.4803980000000 1.0
C      1  0.5285030000000  0.4513580000000  0.5720350000000 1.0
C      1  0.5046770000000  0.4272550000000  0.5318460000000 1.0
C      1  0.4903560000000  0.5583560000000  0.5295970000000 1.0
C      1  0.5422120000000  0.4760350000000  0.5685930000000 1.0
C      1  0.4946980000000  0.5210250000000  0.4488210000000 1.0
C      1  0.4865170000000  0.5680570000000  0.5029800000000 1.0
C      1  0.3982240000000  0.4893950000000  0.5240850000000 1.0
C      1  0.6146110000000  0.4649730000000  0.5013290000000 1.0
C      1  0.5078570000000  0.4471400000000  0.5112260000000 1.0
C      1  0.4769690000000  0.5716500000000  0.5508510000000 1.0
C      1  0.4935900000000  0.5474080000000  0.4589550000000 1.0
C      1  0.4868080000000  0.4516960000000  0.4496520000000 1.0
C      1  0.6381210000000  0.5397420000000  0.4533810000000 1.0
C      1  0.4355720000000  0.4136190000000  0.5031500000000 1.0
C      1  0.5222460000000  0.4881710000000  0.5288760000000 1.0
C      1  0.5086130000000  0.5386470000000  0.5388850000000 1.0
C      1  0.6361160000000  0.4733060000000  0.4879700000000 1.0
C      1  0.5154000000000  0.5325750000000  0.5874930000000 1.0
C      1  0.6372350000000  0.5200410000000  0.4740080000000 1.0
C      1  0.4958030000000  0.5523910000000  0.5918470000000 1.0
C      1  0.4237480000000  0.5406060000000  0.4923880000000 1.0
C      1  0.3842790000000  0.4586530000000  0.4625550000000 1.0
C      1  0.5182350000000  0.5227310000000  0.5608080000000 1.0
C      1  0.5287960000000  0.4976590000000  0.4724240000000 1.0
C      1  0.4821770000000  0.4101630000000  0.5280350000000 1.0
C      1  0.5007700000000  0.4727130000000  0.4406600000000 1.0
C      1  0.5663740000000  0.5562780000000  0.4621500000000 1.0
C      1  0.4232670000000  0.4751500000000  0.4833920000000 1.0
C      1  0.5166310000000  0.4325770000000  0.5568200000000 1.0
C      1  0.5154570000000  0.5644390000000  0.4526320000000 1.0
C      1  0.4071560000000  0.4834760000000  0.5501170000000 1.0
C      1  0.5001440000000  0.6198640000000  0.4946420000000 1.0
C      1  0.5363040000000  0.5239760000000  0.4796680000000 1.0
C      1  0.5712010000000  0.4847510000000  0.4932950000000 1.0
C      1  0.3907790000000  0.4785200000000  0.5712200000000 1.0
C      1  0.5269320000000  0.4681440000000  0.5097870000000 1.0
C      1  0.4408370000000  0.4836030000000  0.4632340000000 1.0
C      1  0.4478080000000  0.5477320000000  0.4790840000000 1.0
C      1  0.5693690000000  0.4741070000000  0.5609360000000 1.0
C      1  0.5799370000000  0.5107350000000  0.4840510000000 1.0
C      1  0.5837770000000  0.4703900000000  0.5386860000000 1.0
C      1  0.6579550000000  0.5338810000000  0.4338100000000 1.0
C      1  0.4076470000000  0.4518760000000  0.4781480000000 1.0
C      1  0.5890560000000  0.4712870000000  0.5110980000000 1.0
C      1  0.3881520000000  0.5121000000000  0.4636160000000 1.0
C      1  0.3801740000000  0.4866970000000  0.4571250000000 1.0
C      1  0.6176680000000  0.5584800000000  0.4511250000000 1.0
C      1  0.6669980000000  0.4905130000000  0.4520830000000 1.0
C      1  0.6478890000000  0.4935680000000  0.4729530000000 1.0
C      1  0.5421030000000  0.5682460000000  0.4536070000000 1.0
C      1  0.4060840000000  0.5193740000000  0.4847540000000 1.0
C      1  0.3666440000000  0.4392680000000  0.4532250000000 1.0
C      1  0.5087030000000  0.4967130000000  0.4524950000000 1.0
C      1  0.4362070000000  0.5327800000000  0.5403730000000 1.0
C      1  0.4242050000000  0.5461560000000  0.5203120000000 1.0
C      1  0.4354110000000  0.4834100000000  0.5515100000000 1.0
C      1  0.5630580000000  0.5323140000000  0.4770500000000 1.0
C      1  0.5429520000000  0.4780850000000  0.4883810000000 1.0
C      1  0.4454290000000  0.4928380000000  0.4387500000000 1.0
C      1  0.4496730000000  0.4613470000000  0.5392890000000 1.0
C      1  0.4824520000000  0.4546060000000  0.5002680000000 1.0
C      1  0.4489070000000  0.5079260000000  0.5421340000000 1.0
C      1  0.4772970000000  0.4463960000000  0.4740990000000 1.0
C      1  0.4670640000000  0.4701240000000  0.5177650000000 1.0
END
