TITL C-612607-4507-750 8.79295593148717 125000 -439.898457326147 0 0 74 (C1) n - 1
REM
REM in /home/nfs/bkarasulu/CARBON/AIRSS/Generating-Clusters/TERSOFF/Only-C1/FIRE-HFTN
REM
REM
REM
REM
REM
REM ./C.cell (11c1c37f851c82e70ff6c80c92926a4b)
REM AIRSS Version 0.9.1 bugfix July 2018 build 013d7b7c2542+ Fri, 06 Jul 2018 19:26:36 +0100
REM compiler GCC version 9.2.1 20190827 (Red Hat 9.2.1-1)
REM options -cpp -mtune=generic -march=x86-64 -g -O0 -fpre-include=/usr/include/finclude/math-vector-fortran.h
REM seed -319934081 989860020 1589811361 731299088 -1726527486 -285433889 704687484 -561418432 2147307850 -1510646147 -1244009537 345195506 -1797929058 -577085526 1070598030 1356281372 -211417793 1837997056 2015141095 -1198671649 1626899633 1169952637 1017837787 -962553962 247294183 -1065305928 955047840 -339939562 1355307652 -55788660 904905249 -1174081305 -1730051805
REM
CELL 1.54180   50.00000   50.00000   50.00000   90.00000   90.00000   90.00000
LATT -1
SFAC C  
C      1  0.5467620000000  0.5580610000000  0.5783200000000 1.0
C      1  0.4791540000000  0.4680690000000  0.5980030000000 1.0
C      1  0.4551120000000  0.4778310000000  0.4580930000000 1.0
C      1  0.6248400000000  0.4965470000000  0.5120520000000 1.0
C      1  0.5093180000000  0.5153670000000  0.4379110000000 1.0
C      1  0.6306010000000  0.5157080000000  0.4304050000000 1.0
C      1  0.4291350000000  0.4900940000000  0.4965760000000 1.0
C      1  0.4868650000000  0.5994660000000  0.4748040000000 1.0
C      1  0.5304310000000  0.4138540000000  0.5310390000000 1.0
C      1  0.5412260000000  0.5466540000000  0.4835500000000 1.0
C      1  0.4756670000000  0.4854520000000  0.5761010000000 1.0
C      1  0.4305320000000  0.4882330000000  0.4678590000000 1.0
C      1  0.4259850000000  0.5158770000000  0.5081820000000 1.0
C      1  0.4949790000000  0.5047260000000  0.5700520000000 1.0
C      1  0.4452520000000  0.4612380000000  0.5387200000000 1.0
C      1  0.4066820000000  0.6049130000000  0.4787670000000 1.0
C      1  0.4619720000000  0.4271910000000  0.5126790000000 1.0
C      1  0.4976500000000  0.4512890000000  0.4598090000000 1.0
C      1  0.4536920000000  0.4329700000000  0.5396490000000 1.0
C      1  0.4609660000000  0.6052520000000  0.4752010000000 1.0
C      1  0.5077890000000  0.4097450000000  0.4842470000000 1.0
C      1  0.5689560000000  0.4612960000000  0.4837350000000 1.0
C      1  0.5605210000000  0.4727840000000  0.5534630000000 1.0
C      1  0.3906100000000  0.6260810000000  0.4723580000000 1.0
C      1  0.5830690000000  0.5143910000000  0.5409710000000 1.0
C      1  0.4756400000000  0.4419160000000  0.6028020000000 1.0
C      1  0.5109110000000  0.5882730000000  0.4759360000000 1.0
C      1  0.6037180000000  0.5051630000000  0.5246560000000 1.0
C      1  0.5248770000000  0.4544480000000  0.4199290000000 1.0
C      1  0.6095420000000  0.5050180000000  0.4424380000000 1.0
C      1  0.5855980000000  0.5386870000000  0.5548000000000 1.0
C      1  0.4959080000000  0.5076340000000  0.5085680000000 1.0
C      1  0.5431410000000  0.4278190000000  0.5496370000000 1.0
C      1  0.4588970000000  0.4499500000000  0.4955480000000 1.0
C      1  0.3955650000000  0.5807430000000  0.4875060000000 1.0
C      1  0.5151730000000  0.4675820000000  0.4432170000000 1.0
C      1  0.5563570000000  0.4474550000000  0.5644900000000 1.0
C      1  0.3940060000000  0.5556770000000  0.4960880000000 1.0
C      1  0.5670970000000  0.4847570000000  0.4697800000000 1.0
C      1  0.5729710000000  0.4369070000000  0.6147590000000 1.0
C      1  0.5183090000000  0.4070220000000  0.5084580000000 1.0
C      1  0.4756620000000  0.5243310000000  0.5180380000000 1.0
C      1  0.5591350000000  0.4991500000000  0.5442810000000 1.0
C      1  0.5651890000000  0.4418520000000  0.5903830000000 1.0
C      1  0.5172800000000  0.5193300000000  0.5615290000000 1.0
C      1  0.5233540000000  0.5127850000000  0.5130300000000 1.0
C      1  0.4906940000000  0.5329360000000  0.4310950000000 1.0
C      1  0.4666520000000  0.4213920000000  0.5880520000000 1.0
C      1  0.5110250000000  0.4121330000000  0.4352710000000 1.0
C      1  0.3955490000000  0.5749900000000  0.4160670000000 1.0
C      1  0.5335000000000  0.5106560000000  0.5394070000000 1.0
C      1  0.4199420000000  0.5667890000000  0.4202300000000 1.0
C      1  0.5381960000000  0.5194960000000  0.4896440000000 1.0
C      1  0.5720810000000  0.5562760000000  0.5697210000000 1.0
C      1  0.4492170000000  0.5271380000000  0.5192530000000 1.0
C      1  0.5223410000000  0.4276720000000  0.4160450000000 1.0
C      1  0.5428370000000  0.4994720000000  0.4697650000000 1.0
C      1  0.5029240000000  0.4230250000000  0.4602680000000 1.0
C      1  0.5888540000000  0.4944960000000  0.4551960000000 1.0
C      1  0.4096390000000  0.4956840000000  0.4511500000000 1.0
C      1  0.5304170000000  0.5704850000000  0.4788700000000 1.0
C      1  0.5250400000000  0.5428140000000  0.5748590000000 1.0
C      1  0.4411450000000  0.4686610000000  0.5108920000000 1.0
C      1  0.5228610000000  0.4940600000000  0.4499900000000 1.0
C      1  0.4893470000000  0.4857630000000  0.4926650000000 1.0
C      1  0.4445720000000  0.5578070000000  0.4241240000000 1.0
C      1  0.4577730000000  0.4184760000000  0.5629700000000 1.0
C      1  0.4038310000000  0.5322240000000  0.5038040000000 1.0
C      1  0.3898730000000  0.5037060000000  0.4361800000000 1.0
C      1  0.4548230000000  0.4790420000000  0.5581560000000 1.0
C      1  0.4763020000000  0.4649540000000  0.4753950000000 1.0
C      1  0.6513650000000  0.5262290000000  0.4186660000000 1.0
C      1  0.4345370000000  0.6070350000000  0.4766150000000 1.0
C      1  0.4685670000000  0.5469980000000  0.4272280000000 1.0
END
