TITL C-612601-4209-1122 -0.000507867646351852 125000 -399.698574425725 0 0 67 (C1) n - 1
REM
REM in /home/nfs/bkarasulu/CARBON/AIRSS/Generating-Clusters/TERSOFF/Only-C1/FIRE-HFTN
REM
REM
REM
REM
REM
REM ./C.cell (11c1c37f851c82e70ff6c80c92926a4b)
REM AIRSS Version 0.9.1 bugfix July 2018 build 013d7b7c2542+ Fri, 06 Jul 2018 19:26:36 +0100
REM compiler GCC version 9.2.1 20190827 (Red Hat 9.2.1-1)
REM options -cpp -mtune=generic -march=x86-64 -g -O0 -fpre-include=/usr/include/finclude/math-vector-fortran.h
REM seed -1937545667 -297411670 1684641441 -1418114252 -1765353695 922856040 -482359473 1922194840 -2128556957 -561887088 1910234775 1749171098 -885377301 12516476 -1527237856 335126627 1806271892 -2025874211 195692703 631602166 -391465761 1181513133 -1734110862 -1658457750 2121623337 1536807027 -2107034706 1653465913 677269850 -1603630094 -1369369041 1186336232 -669347921
REM
CELL 1.54180   50.00000   50.00000   50.00000   90.00000   90.00000   90.00000
LATT -1
SFAC C  
C      1  0.4141240000000  0.4589960000000  0.4934320000000 1.0
C      1  0.4926650000000  0.5791150000000  0.5310240000000 1.0
C      1  0.5823250000000  0.5420110000000  0.4659810000000 1.0
C      1  0.4981820000000  0.4469430000000  0.4383290000000 1.0
C      1  0.4655740000000  0.5792320000000  0.4609820000000 1.0
C      1  0.5205000000000  0.5164910000000  0.5328960000000 1.0
C      1  0.5429000000000  0.5606830000000  0.5302720000000 1.0
C      1  0.5831010000000  0.4793200000000  0.5308000000000 1.0
C      1  0.5692600000000  0.5157680000000  0.5000120000000 1.0
C      1  0.5437090000000  0.5287800000000  0.4937850000000 1.0
C      1  0.4512720000000  0.5189830000000  0.5581200000000 1.0
C      1  0.4577160000000  0.4682780000000  0.5689410000000 1.0
C      1  0.5330650000000  0.4448820000000  0.5185900000000 1.0
C      1  0.5753960000000  0.4884980000000  0.5054060000000 1.0
C      1  0.4935350000000  0.5107510000000  0.5386440000000 1.0
C      1  0.4207050000000  0.4955240000000  0.4586310000000 1.0
C      1  0.5618390000000  0.5285830000000  0.4488310000000 1.0
C      1  0.5199880000000  0.4343700000000  0.4506090000000 1.0
C      1  0.5365470000000  0.4332370000000  0.4713950000000 1.0
C      1  0.5047400000000  0.4449520000000  0.5204040000000 1.0
C      1  0.4473680000000  0.4092690000000  0.4733750000000 1.0
C      1  0.5710950000000  0.4613200000000  0.5468420000000 1.0
C      1  0.4904370000000  0.5816840000000  0.4703140000000 1.0
C      1  0.5140930000000  0.4926860000000  0.4862450000000 1.0
C      1  0.4686290000000  0.5017290000000  0.4540250000000 1.0
C      1  0.4359300000000  0.5018950000000  0.5404130000000 1.0
C      1  0.4464990000000  0.3834650000000  0.4647800000000 1.0
C      1  0.4581760000000  0.4301870000000  0.4581460000000 1.0
C      1  0.5522150000000  0.5300000000000  0.5682940000000 1.0
C      1  0.4375540000000  0.4174760000000  0.4984070000000 1.0
C      1  0.4753700000000  0.4519830000000  0.4547950000000 1.0
C      1  0.5464430000000  0.4480900000000  0.4931280000000 1.0
C      1  0.4534390000000  0.4573290000000  0.5222410000000 1.0
C      1  0.4775150000000  0.4854410000000  0.5771000000000 1.0
C      1  0.5656370000000  0.5220470000000  0.5897030000000 1.0
C      1  0.5195440000000  0.5004030000000  0.4580420000000 1.0
C      1  0.5314560000000  0.5498830000000  0.4767190000000 1.0
C      1  0.4450050000000  0.5621660000000  0.4610620000000 1.0
C      1  0.5387700000000  0.5354690000000  0.5445280000000 1.0
C      1  0.4795870000000  0.5074960000000  0.5129990000000 1.0
C      1  0.5800390000000  0.5581190000000  0.4889630000000 1.0
C      1  0.4782620000000  0.5099660000000  0.5624250000000 1.0
C      1  0.4728980000000  0.4769490000000  0.4686910000000 1.0
C      1  0.4379760000000  0.5378790000000  0.4734700000000 1.0
C      1  0.4951840000000  0.5094260000000  0.4449100000000 1.0
C      1  0.5645970000000  0.4696540000000  0.4864390000000 1.0
C      1  0.5195870000000  0.5771790000000  0.5308830000000 1.0
C      1  0.4335760000000  0.4438860000000  0.5070470000000 1.0
C      1  0.5118490000000  0.5693280000000  0.4802960000000 1.0
C      1  0.5790500000000  0.5132530000000  0.6102540000000 1.0
C      1  0.4097670000000  0.4762300000000  0.4735350000000 1.0
C      1  0.4257700000000  0.5156860000000  0.5177220000000 1.0
C      1  0.4444340000000  0.4737440000000  0.5438800000000 1.0
C      1  0.4331260000000  0.5386470000000  0.5022640000000 1.0
C      1  0.5407380000000  0.5480040000000  0.4498190000000 1.0
C      1  0.4864320000000  0.4825050000000  0.4954700000000 1.0
C      1  0.5486380000000  0.5020640000000  0.4507470000000 1.0
C      1  0.4426470000000  0.5133450000000  0.4591400000000 1.0
C      1  0.4777960000000  0.5306760000000  0.4984130000000 1.0
C      1  0.4812470000000  0.4592110000000  0.5137570000000 1.0
C      1  0.5257410000000  0.5105010000000  0.5054680000000 1.0
C      1  0.4667410000000  0.5733850000000  0.5264210000000 1.0
C      1  0.4983840000000  0.4535660000000  0.4118400000000 1.0
C      1  0.5637300000000  0.4797020000000  0.4597320000000 1.0
C      1  0.5492210000000  0.4465080000000  0.5416370000000 1.0
C      1  0.4450800000000  0.5605710000000  0.5166460000000 1.0
C      1  0.5655830000000  0.5646000000000  0.5118880000000 1.0
END
