TITL C-612602-9376-783 1.61691073377701 125000 -955.665040624861 0 0 157 (C1) n - 1
REM
REM in /home/nfs/bkarasulu/CARBON/AIRSS/Generating-Clusters/TERSOFF/Only-C1/FIRE-HFTN
REM
REM
REM
REM
REM
REM ./C.cell (11c1c37f851c82e70ff6c80c92926a4b)
REM AIRSS Version 0.9.1 bugfix July 2018 build 013d7b7c2542+ Fri, 06 Jul 2018 19:26:36 +0100
REM compiler GCC version 9.2.1 20190827 (Red Hat 9.2.1-1)
REM options -cpp -mtune=generic -march=x86-64 -g -O0 -fpre-include=/usr/include/finclude/math-vector-fortran.h
REM seed 918374367 1236878442 -1175359010 1810218959 -1190320552 -11202544 269891494 141398538 1583652139 1296572268 -796776597 1624451284 90468545 -1849199043 403542462 -402783384 -2124060865 1994031328 791859920 -1281952218 974670306 -1417966110 -1400824504 229272362 -779585700 -1090611753 1439926972 -1058473085 1434374357 -124305025 399781977 949621037 -2026419287
REM
CELL 1.54180   50.00000   50.00000   50.00000   90.00000   90.00000   90.00000
LATT -1
SFAC C  
C      1  0.4619000000000  0.5160730000000  0.5737440000000 1.0
C      1  0.4876080000000  0.5967580000000  0.5087620000000 1.0
C      1  0.4984850000000  0.5729180000000  0.5771750000000 1.0
C      1  0.4980230000000  0.5449940000000  0.6193580000000 1.0
C      1  0.4149530000000  0.4468240000000  0.5573020000000 1.0
C      1  0.5672170000000  0.5593550000000  0.5544330000000 1.0
C      1  0.4097380000000  0.4080190000000  0.4729060000000 1.0
C      1  0.5404810000000  0.4228270000000  0.4372790000000 1.0
C      1  0.5576330000000  0.5410100000000  0.6070960000000 1.0
C      1  0.4675720000000  0.4493370000000  0.4897080000000 1.0
C      1  0.4715740000000  0.4167350000000  0.4228960000000 1.0
C      1  0.5149410000000  0.4945110000000  0.5563790000000 1.0
C      1  0.5097530000000  0.4018400000000  0.5307910000000 1.0
C      1  0.6056370000000  0.5129710000000  0.5199670000000 1.0
C      1  0.4353150000000  0.3549200000000  0.5014970000000 1.0
C      1  0.5147500000000  0.5134230000000  0.5113550000000 1.0
C      1  0.5957470000000  0.5155980000000  0.5482620000000 1.0
C      1  0.5704300000000  0.5304060000000  0.4035150000000 1.0
C      1  0.3772740000000  0.5583710000000  0.4829740000000 1.0
C      1  0.5237000000000  0.5384340000000  0.5204510000000 1.0
C      1  0.4995830000000  0.4700260000000  0.3880610000000 1.0
C      1  0.5647130000000  0.5654060000000  0.5260680000000 1.0
C      1  0.4989240000000  0.4840510000000  0.4629660000000 1.0
C      1  0.5149810000000  0.4175120000000  0.4431770000000 1.0
C      1  0.6129670000000  0.4648480000000  0.5171050000000 1.0
C      1  0.5820950000000  0.5354580000000  0.5649370000000 1.0
C      1  0.6399920000000  0.5458990000000  0.4098590000000 1.0
C      1  0.4379660000000  0.3816170000000  0.5088360000000 1.0
C      1  0.4760120000000  0.5955100000000  0.4153400000000 1.0
C      1  0.5684380000000  0.4764560000000  0.5705000000000 1.0
C      1  0.4184440000000  0.6141880000000  0.5590810000000 1.0
C      1  0.4084560000000  0.4354530000000  0.4689350000000 1.0
C      1  0.4684430000000  0.4347740000000  0.4028800000000 1.0
C      1  0.4315140000000  0.2788350000000  0.4788200000000 1.0
C      1  0.4934260000000  0.3804620000000  0.4942730000000 1.0
C      1  0.5219010000000  0.5845580000000  0.5631440000000 1.0
C      1  0.4769450000000  0.6316880000000  0.5383900000000 1.0
C      1  0.4576000000000  0.5106330000000  0.4584960000000 1.0
C      1  0.5721780000000  0.5234770000000  0.5904360000000 1.0
C      1  0.5685970000000  0.5962330000000  0.4868160000000 1.0
C      1  0.4592240000000  0.4896360000000  0.5691100000000 1.0
C      1  0.5836390000000  0.5465860000000  0.3846020000000 1.0
C      1  0.4203320000000  0.4496660000000  0.4914940000000 1.0
C      1  0.5162560000000  0.5210810000000  0.5646950000000 1.0
C      1  0.4733930000000  0.5188040000000  0.3861500000000 1.0
C      1  0.4291180000000  0.2285130000000  0.4637800000000 1.0
C      1  0.5902310000000  0.4481170000000  0.5205200000000 1.0
C      1  0.5232560000000  0.5153920000000  0.3872710000000 1.0
C      1  0.6330870000000  0.5275040000000  0.4279530000000 1.0
C      1  0.5608330000000  0.4924770000000  0.4682050000000 1.0
C      1  0.4820050000000  0.4668740000000  0.4497620000000 1.0
C      1  0.6294860000000  0.5590080000000  0.3890910000000 1.0
C      1  0.4764460000000  0.5331760000000  0.4650670000000 1.0
C      1  0.5087780000000  0.4730020000000  0.6026950000000 1.0
C      1  0.4068350000000  0.6374680000000  0.5575200000000 1.0
C      1  0.5653950000000  0.4319440000000  0.4342720000000 1.0
C      1  0.4863630000000  0.5749850000000  0.4912920000000 1.0
C      1  0.4828010000000  0.4498390000000  0.5428830000000 1.0
C      1  0.4208330000000  0.4019520000000  0.4988850000000 1.0
C      1  0.5015440000000  0.5552130000000  0.4018580000000 1.0
C      1  0.5246140000000  0.4157030000000  0.5062910000000 1.0
C      1  0.4953620000000  0.6414110000000  0.5201180000000 1.0
C      1  0.6252000000000  0.4924130000000  0.4793090000000 1.0
C      1  0.5189680000000  0.4515580000000  0.6164340000000 1.0
C      1  0.4142330000000  0.5033170000000  0.4796320000000 1.0
C      1  0.5044890000000  0.5310290000000  0.4559300000000 1.0
C      1  0.5411170000000  0.4965220000000  0.4489780000000 1.0
C      1  0.6153440000000  0.4889620000000  0.4528280000000 1.0
C      1  0.5470650000000  0.5494670000000  0.5097910000000 1.0
C      1  0.4634610000000  0.5394060000000  0.5578570000000 1.0
C      1  0.4869710000000  0.4207620000000  0.4465280000000 1.0
C      1  0.4378900000000  0.5507790000000  0.5151750000000 1.0
C      1  0.4656630000000  0.6147110000000  0.4305770000000 1.0
C      1  0.5688240000000  0.4947520000000  0.5926510000000 1.0
C      1  0.5555010000000  0.5853210000000  0.4657040000000 1.0
C      1  0.5767900000000  0.4924660000000  0.5489470000000 1.0
C      1  0.4303060000000  0.2534650000000  0.4712380000000 1.0
C      1  0.4988980000000  0.5311750000000  0.3850730000000 1.0
C      1  0.5959210000000  0.4148190000000  0.5558560000000 1.0
C      1  0.5245430000000  0.4668150000000  0.5142480000000 1.0
C      1  0.4493230000000  0.6182160000000  0.4513180000000 1.0
C      1  0.5678140000000  0.5165770000000  0.4819630000000 1.0
C      1  0.5023650000000  0.6211600000000  0.5025790000000 1.0
C      1  0.4699110000000  0.4767790000000  0.4260280000000 1.0
C      1  0.4341820000000  0.6048120000000  0.4685870000000 1.0
C      1  0.5473470000000  0.5723990000000  0.5714980000000 1.0
C      1  0.5741020000000  0.5882710000000  0.5121730000000 1.0
C      1  0.4327220000000  0.3041990000000  0.4864010000000 1.0
C      1  0.5537870000000  0.5413200000000  0.4828670000000 1.0
C      1  0.4416190000000  0.5610610000000  0.4892020000000 1.0
C      1  0.4560180000000  0.5504060000000  0.4157730000000 1.0
C      1  0.6062960000000  0.4637140000000  0.4438900000000 1.0
C      1  0.3693990000000  0.5359920000000  0.5248730000000 1.0
C      1  0.4211690000000  0.4286360000000  0.5123590000000 1.0
C      1  0.4308800000000  0.5891600000000  0.5597130000000 1.0
C      1  0.5194410000000  0.4877590000000  0.3844560000000 1.0
C      1  0.4635950000000  0.4673400000000  0.5546850000000 1.0
C      1  0.4778360000000  0.5682080000000  0.4104940000000 1.0
C      1  0.5110640000000  0.5613260000000  0.6010240000000 1.0
C      1  0.5798430000000  0.5108970000000  0.5060250000000 1.0
C      1  0.5172420000000  0.4903520000000  0.5275600000000 1.0
C      1  0.5448020000000  0.5592500000000  0.4626030000000 1.0
C      1  0.4041190000000  0.5213210000000  0.5850310000000 1.0
C      1  0.5867230000000  0.5166100000000  0.4221580000000 1.0
C      1  0.4157120000000  0.5665550000000  0.5674070000000 1.0
C      1  0.4737030000000  0.5656730000000  0.5644760000000 1.0
C      1  0.4855440000000  0.3869870000000  0.5216150000000 1.0
C      1  0.3967850000000  0.5750750000000  0.4759060000000 1.0
C      1  0.5077470000000  0.4484950000000  0.5595090000000 1.0
C      1  0.5151010000000  0.5046290000000  0.4549820000000 1.0
C      1  0.4936810000000  0.5192860000000  0.6247070000000 1.0
C      1  0.4540840000000  0.5342940000000  0.5311250000000 1.0
C      1  0.5619860000000  0.4495280000000  0.5618340000000 1.0
C      1  0.5114300000000  0.4430900000000  0.5073420000000 1.0
C      1  0.4575360000000  0.5225640000000  0.4096220000000 1.0
C      1  0.4474300000000  0.4093110000000  0.5465330000000 1.0
C      1  0.5709050000000  0.4453680000000  0.4991270000000 1.0
C      1  0.5421690000000  0.5306140000000  0.4036170000000 1.0
C      1  0.4716080000000  0.6033280000000  0.5335450000000 1.0
C      1  0.4768040000000  0.4618730000000  0.4025670000000 1.0
C      1  0.5257420000000  0.5510090000000  0.4174350000000 1.0
C      1  0.6054010000000  0.5614140000000  0.3747940000000 1.0
C      1  0.4055070000000  0.4696830000000  0.5673670000000 1.0
C      1  0.4107580000000  0.5257420000000  0.6118150000000 1.0
C      1  0.4437040000000  0.4658970000000  0.4875240000000 1.0
C      1  0.4405800000000  0.4932660000000  0.4760370000000 1.0
C      1  0.5146270000000  0.3960250000000  0.4853300000000 1.0
C      1  0.5884690000000  0.4452560000000  0.4363890000000 1.0
C      1  0.5097810000000  0.4734560000000  0.5743460000000 1.0
C      1  0.4585470000000  0.5869540000000  0.5525540000000 1.0
C      1  0.6032710000000  0.5772330000000  0.3526820000000 1.0
C      1  0.6114250000000  0.5110930000000  0.4351410000000 1.0
C      1  0.3993220000000  0.5436120000000  0.5678290000000 1.0
C      1  0.6203630000000  0.4908100000000  0.5074440000000 1.0
C      1  0.3784600000000  0.5413250000000  0.5492710000000 1.0
C      1  0.4580250000000  0.3903300000000  0.5279430000000 1.0
C      1  0.4779610000000  0.4422690000000  0.4632310000000 1.0
C      1  0.5645910000000  0.4943420000000  0.5236700000000 1.0
C      1  0.5662900000000  0.4667790000000  0.4803010000000 1.0
C      1  0.4339330000000  0.3295620000000  0.4939800000000 1.0
C      1  0.5399980000000  0.5605910000000  0.5975750000000 1.0
C      1  0.3760950000000  0.5346000000000  0.4978060000000 1.0
C      1  0.4193970000000  0.5301120000000  0.6360110000000 1.0
C      1  0.4241440000000  0.5804130000000  0.4778260000000 1.0
C      1  0.3910140000000  0.5130380000000  0.4880160000000 1.0
C      1  0.5829910000000  0.4369830000000  0.5462280000000 1.0
C      1  0.5351520000000  0.4390020000000  0.5597680000000 1.0
C      1  0.4682900000000  0.5567100000000  0.4794960000000 1.0
C      1  0.4582730000000  0.5027170000000  0.4300570000000 1.0
C      1  0.4276040000000  0.4288590000000  0.5399700000000 1.0
C      1  0.5178060000000  0.5415860000000  0.5474650000000 1.0
C      1  0.5234610000000  0.5506230000000  0.4458240000000 1.0
C      1  0.5532450000000  0.4230500000000  0.5015610000000 1.0
C      1  0.4619260000000  0.5105290000000  0.5198140000000 1.0
C      1  0.4975850000000  0.4941080000000  0.6172380000000 1.0
C      1  0.4020830000000  0.4949130000000  0.5753610000000 1.0
C      1  0.4834370000000  0.4451710000000  0.5134930000000 1.0
END
