TITL C-612606-7351-1461 0.0538405030936981 125000 -602.421668820464 0 0 99 (C1) n - 1
REM
REM in /home/nfs/bkarasulu/CARBON/AIRSS/Generating-Clusters/TERSOFF/Only-C1/FIRE-HFTN
REM
REM
REM
REM
REM
REM ./C.cell (11c1c37f851c82e70ff6c80c92926a4b)
REM AIRSS Version 0.9.1 bugfix July 2018 build 013d7b7c2542+ Fri, 06 Jul 2018 19:26:36 +0100
REM compiler GCC version 9.2.1 20190827 (Red Hat 9.2.1-1)
REM options -cpp -mtune=generic -march=x86-64 -g -O0 -fpre-include=/usr/include/finclude/math-vector-fortran.h
REM seed -242460670 -2090699289 606954586 -1791743946 371942428 -1328081143 1195032214 -307259244 2005126828 1466227286 -290272947 -2146076390 -100961949 -1555503543 -9452266 195496888 -106001942 632761791 -1242313323 -746795543 -2107642387 -1406180852 192457623 -327792958 1964542373 891489179 1405544120 625616583 -492200800 1028485195 630949851 -1243670690 -194315970
REM
CELL 1.54180   50.00000   50.00000   50.00000   90.00000   90.00000   90.00000
LATT -1
SFAC C  
C      1  0.5368540000000  0.4583260000000  0.4571760000000 1.0
C      1  0.4753310000000  0.4085290000000  0.4726070000000 1.0
C      1  0.5082690000000  0.4510410000000  0.4216990000000 1.0
C      1  0.5118060000000  0.4762300000000  0.5905170000000 1.0
C      1  0.5684520000000  0.4695520000000  0.4934410000000 1.0
C      1  0.5080580000000  0.5669330000000  0.4402390000000 1.0
C      1  0.5363500000000  0.4135410000000  0.5010350000000 1.0
C      1  0.5259680000000  0.4630530000000  0.5249750000000 1.0
C      1  0.5090000000000  0.4257300000000  0.4363240000000 1.0
C      1  0.4210290000000  0.5471380000000  0.4445470000000 1.0
C      1  0.5069110000000  0.5214290000000  0.5702960000000 1.0
C      1  0.4478280000000  0.5017150000000  0.5073080000000 1.0
C      1  0.4553840000000  0.5164960000000  0.4615160000000 1.0
C      1  0.5128800000000  0.5864800000000  0.4208000000000 1.0
C      1  0.5864760000000  0.5392750000000  0.5244890000000 1.0
C      1  0.4936540000000  0.5432540000000  0.4325370000000 1.0
C      1  0.4666120000000  0.4927960000000  0.4500520000000 1.0
C      1  0.5270810000000  0.4319840000000  0.5695120000000 1.0
C      1  0.4708460000000  0.4091170000000  0.4990600000000 1.0
C      1  0.4591560000000  0.5561020000000  0.4000890000000 1.0
C      1  0.3461240000000  0.5265710000000  0.5090750000000 1.0
C      1  0.5442450000000  0.4806840000000  0.4050070000000 1.0
C      1  0.4684680000000  0.4927430000000  0.5707600000000 1.0
C      1  0.5178630000000  0.6371920000000  0.3603880000000 1.0
C      1  0.5322110000000  0.4295450000000  0.4537170000000 1.0
C      1  0.4889990000000  0.5585540000000  0.5164420000000 1.0
C      1  0.3668480000000  0.5156020000000  0.5204690000000 1.0
C      1  0.4602380000000  0.4649030000000  0.5692590000000 1.0
C      1  0.4950460000000  0.4983420000000  0.5820600000000 1.0
C      1  0.4871890000000  0.4130310000000  0.4488740000000 1.0
C      1  0.4849120000000  0.4214950000000  0.5495340000000 1.0
C      1  0.5118340000000  0.4704770000000  0.4444980000000 1.0
C      1  0.5153570000000  0.6038800000000  0.4009850000000 1.0
C      1  0.5577630000000  0.4584860000000  0.5939010000000 1.0
C      1  0.4138540000000  0.4722960000000  0.5581230000000 1.0
C      1  0.5327190000000  0.5670100000000  0.4903050000000 1.0
C      1  0.5118110000000  0.4114550000000  0.5559830000000 1.0
C      1  0.3882950000000  0.5046810000000  0.5315470000000 1.0
C      1  0.4579120000000  0.5217240000000  0.4894140000000 1.0
C      1  0.5328480000000  0.5641940000000  0.5677360000000 1.0
C      1  0.4468360000000  0.5367910000000  0.4436050000000 1.0
C      1  0.4502280000000  0.4712730000000  0.4433010000000 1.0
C      1  0.5232490000000  0.3900260000000  0.5423740000000 1.0
C      1  0.5674330000000  0.4482000000000  0.5152200000000 1.0
C      1  0.4123460000000  0.4943540000000  0.5408690000000 1.0
C      1  0.4332610000000  0.4518800000000  0.4371560000000 1.0
C      1  0.4533210000000  0.5667500000000  0.3770300000000 1.0
C      1  0.4663210000000  0.5458410000000  0.4249770000000 1.0
C      1  0.5609430000000  0.5586420000000  0.4868630000000 1.0
C      1  0.5294760000000  0.5716610000000  0.5405560000000 1.0
C      1  0.5253770000000  0.4612570000000  0.4011400000000 1.0
C      1  0.5377400000000  0.4753990000000  0.6025270000000 1.0
C      1  0.5179620000000  0.5710200000000  0.4663160000000 1.0
C      1  0.5541360000000  0.4937520000000  0.5002200000000 1.0
C      1  0.5632340000000  0.4688350000000  0.4641440000000 1.0
C      1  0.5523340000000  0.4979330000000  0.4260850000000 1.0
C      1  0.5473590000000  0.4775280000000  0.5428590000000 1.0
C      1  0.5390120000000  0.4394300000000  0.5121620000000 1.0
C      1  0.5059350000000  0.5175120000000  0.4342630000000 1.0
C      1  0.5392640000000  0.4113870000000  0.4734200000000 1.0
C      1  0.5337420000000  0.5168480000000  0.4378760000000 1.0
C      1  0.5548350000000  0.4420140000000  0.5701340000000 1.0
C      1  0.4625640000000  0.5407440000000  0.5540290000000 1.0
C      1  0.5843410000000  0.5165380000000  0.4579930000000 1.0
C      1  0.5173290000000  0.5663760000000  0.5152230000000 1.0
C      1  0.5030370000000  0.4758660000000  0.5162330000000 1.0
C      1  0.5060260000000  0.4513440000000  0.5779640000000 1.0
C      1  0.4805490000000  0.4453940000000  0.5655620000000 1.0
C      1  0.3961900000000  0.5558410000000  0.4475620000000 1.0
C      1  0.4671750000000  0.6132930000000  0.5592060000000 1.0
C      1  0.5629880000000  0.5118050000000  0.5776040000000 1.0
C      1  0.5099930000000  0.5184700000000  0.5425100000000 1.0
C      1  0.5723910000000  0.4914830000000  0.4469280000000 1.0
C      1  0.5661300000000  0.4541670000000  0.5451440000000 1.0
C      1  0.4696120000000  0.5889910000000  0.5501200000000 1.0
C      1  0.5359530000000  0.5089310000000  0.4871840000000 1.0
C      1  0.5026320000000  0.5030520000000  0.5223230000000 1.0
C      1  0.5779340000000  0.5158640000000  0.5339240000000 1.0
C      1  0.5167080000000  0.6207190000000  0.3805610000000 1.0
C      1  0.4329300000000  0.4575540000000  0.5725170000000 1.0
C      1  0.5608040000000  0.5016380000000  0.5512920000000 1.0
C      1  0.4255500000000  0.4372410000000  0.5892160000000 1.0
C      1  0.5408300000000  0.5243220000000  0.4642490000000 1.0
C      1  0.5580790000000  0.5607140000000  0.5799680000000 1.0
C      1  0.3717150000000  0.5641200000000  0.4510320000000 1.0
C      1  0.4941740000000  0.4930720000000  0.4434940000000 1.0
C      1  0.5130250000000  0.5472380000000  0.5794010000000 1.0
C      1  0.4804400000000  0.4646920000000  0.5044140000000 1.0
C      1  0.4171420000000  0.4321360000000  0.4316900000000 1.0
C      1  0.4374420000000  0.5054500000000  0.5335020000000 1.0
C      1  0.5678570000000  0.5365500000000  0.5872220000000 1.0
C      1  0.4553650000000  0.5133650000000  0.5545440000000 1.0
C      1  0.5661120000000  0.5379040000000  0.4670450000000 1.0
C      1  0.4752210000000  0.5425530000000  0.4976160000000 1.0
C      1  0.4559410000000  0.4752190000000  0.5014720000000 1.0
C      1  0.5333090000000  0.3912260000000  0.5175770000000 1.0
C      1  0.4726050000000  0.4139300000000  0.5254140000000 1.0
C      1  0.5792090000000  0.5591900000000  0.5081580000000 1.0
C      1  0.4738730000000  0.5630900000000  0.5407150000000 1.0
END
