TITL C-612600-6631-371 0.000991975509567357 125000 -332.355653706142 0 0 56 (C1) n - 1
REM
REM in /home/nfs/bkarasulu/CARBON/AIRSS/Generating-Clusters/TERSOFF/Only-C1/FIRE-HFTN
REM
REM
REM
REM
REM
REM ./C.cell (11c1c37f851c82e70ff6c80c92926a4b)
REM AIRSS Version 0.9.1 bugfix July 2018 build 013d7b7c2542+ Fri, 06 Jul 2018 19:26:36 +0100
REM compiler GCC version 9.2.1 20190827 (Red Hat 9.2.1-1)
REM options -cpp -mtune=generic -march=x86-64 -g -O0 -fpre-include=/usr/include/finclude/math-vector-fortran.h
REM seed -1505569770 980474046 -1013461528 1554212266 678042438 673144603 -540096174 -1905158618 509478943 1643407813 -882585934 -64831559 1437714380 1607434630 579386714 -366888375 -1010456548 -360648874 909358700 -288080722 -939643002 618850766 -1483142818 1765302246 576191794 -981794845 1790343144 -549939513 288977270 -1205873442 -892750131 230915147 474461196
REM
CELL 1.54180   50.00000   50.00000   50.00000   90.00000   90.00000   90.00000
LATT -1
SFAC C  
C      1  0.4834920000000  0.5053470000000  0.5616180000000 1.0
C      1  0.5351080000000  0.5723600000000  0.5154260000000 1.0
C      1  0.4658580000000  0.4405960000000  0.5254790000000 1.0
C      1  0.5907480000000  0.4999330000000  0.4911640000000 1.0
C      1  0.5331240000000  0.4825110000000  0.4353370000000 1.0
C      1  0.4361480000000  0.4570780000000  0.4637360000000 1.0
C      1  0.5176160000000  0.4510130000000  0.5321790000000 1.0
C      1  0.4838900000000  0.5718190000000  0.5219300000000 1.0
C      1  0.4431170000000  0.4441130000000  0.5092860000000 1.0
C      1  0.5576110000000  0.4916070000000  0.4293590000000 1.0
C      1  0.5644390000000  0.4601480000000  0.5455650000000 1.0
C      1  0.6095240000000  0.4775330000000  0.5326240000000 1.0
C      1  0.4577030000000  0.5622300000000  0.5164670000000 1.0
C      1  0.4920260000000  0.4428180000000  0.5313540000000 1.0
C      1  0.5384620000000  0.5952960000000  0.5009400000000 1.0
C      1  0.5113530000000  0.5194360000000  0.5270110000000 1.0
C      1  0.5143450000000  0.5418690000000  0.5489550000000 1.0
C      1  0.4375470000000  0.5215900000000  0.5354700000000 1.0
C      1  0.4738580000000  0.4949430000000  0.5127240000000 1.0
C      1  0.4498130000000  0.4622780000000  0.4397370000000 1.0
C      1  0.4133370000000  0.4799250000000  0.5310510000000 1.0
C      1  0.4761430000000  0.4988260000000  0.4210380000000 1.0
C      1  0.5221260000000  0.5240170000000  0.5013350000000 1.0
C      1  0.5083000000000  0.5302540000000  0.4787210000000 1.0
C      1  0.4909740000000  0.4778660000000  0.4625710000000 1.0
C      1  0.4421960000000  0.5239670000000  0.4880540000000 1.0
C      1  0.5417800000000  0.5422890000000  0.5610200000000 1.0
C      1  0.4937850000000  0.5314740000000  0.5686350000000 1.0
C      1  0.4492290000000  0.5518140000000  0.4904970000000 1.0
C      1  0.4259470000000  0.5054690000000  0.4741150000000 1.0
C      1  0.5810370000000  0.4984850000000  0.4402950000000 1.0
C      1  0.4512750000000  0.5114280000000  0.5122950000000 1.0
C      1  0.4820830000000  0.4820190000000  0.4890910000000 1.0
C      1  0.5428020000000  0.4633410000000  0.5279150000000 1.0
C      1  0.4182200000000  0.5031430000000  0.5442540000000 1.0
C      1  0.5504330000000  0.5272130000000  0.5027940000000 1.0
C      1  0.6100670000000  0.4914250000000  0.5096570000000 1.0
C      1  0.4726830000000  0.4793230000000  0.4407690000000 1.0
C      1  0.4707980000000  0.4880920000000  0.5782400000000 1.0
C      1  0.4438530000000  0.4357660000000  0.4814880000000 1.0
C      1  0.5105900000000  0.5663190000000  0.5305010000000 1.0
C      1  0.5189360000000  0.4746960000000  0.4583070000000 1.0
C      1  0.5639920000000  0.5021670000000  0.5008060000000 1.0
C      1  0.4430080000000  0.5494070000000  0.5380200000000 1.0
C      1  0.4791100000000  0.5177510000000  0.4033710000000 1.0
C      1  0.4911300000000  0.5008590000000  0.5341060000000 1.0
C      1  0.4339820000000  0.4405090000000  0.3929980000000 1.0
C      1  0.5348000000000  0.4687440000000  0.4806620000000 1.0
C      1  0.4414960000000  0.4508550000000  0.4157050000000 1.0
C      1  0.4236460000000  0.4776640000000  0.4804590000000 1.0
C      1  0.5942340000000  0.5014570000000  0.4633790000000 1.0
C      1  0.5631980000000  0.5472420000000  0.5447000000000 1.0
C      1  0.4242110000000  0.4669430000000  0.5085140000000 1.0
C      1  0.5480130000000  0.4779010000000  0.5036680000000 1.0
C      1  0.5561110000000  0.5516120000000  0.5173810000000 1.0
C      1  0.5906910000000  0.4652230000000  0.5472280000000 1.0
END
