TITL C-612605-9286-430 1170.63089064697 125000 -623.994957486488 0 0 104 (C1) n - 1
REM
REM in /home/nfs/bkarasulu/CARBON/AIRSS/Generating-Clusters/TERSOFF/Only-C1/FIRE-HFTN
REM
REM
REM
REM
REM
REM ./C.cell (11c1c37f851c82e70ff6c80c92926a4b)
REM AIRSS Version 0.9.1 bugfix July 2018 build 013d7b7c2542+ Fri, 06 Jul 2018 19:26:36 +0100
REM compiler GCC version 9.2.1 20190827 (Red Hat 9.2.1-1)
REM options -cpp -mtune=generic -march=x86-64 -g -O0 -fpre-include=/usr/include/finclude/math-vector-fortran.h
REM seed -1801682497 1964922969 -1202692340 -1056428884 -717810167 1925070516 893597745 997492202 2016925874 -112006634 2061911452 -1826998384 -1036551707 -1013499469 -1434047741 408496939 -1746025775 408151418 -874171062 -677373692 -1728805077 2040061414 1048561449 1352203468 1374428820 1155593015 1942612556 -334659878 -1688375786 -257618566 -1274001653 -843746013 -496666197
REM
CELL 1.54180   50.00000   50.00000   50.00000   90.00000   90.00000   90.00000
LATT -1
SFAC C  
C      1  0.5172350000000  0.5511950000000  0.5766100000000 1.0
C      1  0.4696060000000  0.5180100000000  0.4743100000000 1.0
C      1  0.5719230000000  0.4690870000000  0.5742860000000 1.0
C      1  0.4818010000000  0.4545630000000  0.4620480000000 1.0
C      1  0.5164540000000  0.5270000000000  0.5919200000000 1.0
C      1  0.4982880000000  0.5796630000000  0.4776200000000 1.0
C      1  0.5414290000000  0.4453780000000  0.5005630000000 1.0
C      1  0.5498420000000  0.5011430000000  0.4811140000000 1.0
C      1  0.4929890000000  0.4857680000000  0.5956640000000 1.0
C      1  0.4294400000000  0.4836070000000  0.5617870000000 1.0
C      1  0.4498770000000  0.4287350000000  0.4871380000000 1.0
C      1  0.5070490000000  0.4881090000000  0.4028110000000 1.0
C      1  0.5447900000000  0.4548620000000  0.3918230000000 1.0
C      1  0.5625820000000  0.4313010000000  0.4832430000000 1.0
C      1  0.4319940000000  0.5569290000000  0.5074690000000 1.0
C      1  0.4739930000000  0.4207810000000  0.5305790000000 1.0
C      1  0.3782770000000  0.4960370000000  0.4791340000000 1.0
C      1  0.5496570000000  0.5600740000000  0.4686410000000 1.0
C      1  0.5802600000000  0.4876400000000  0.5545180000000 1.0
C      1  0.3833950000000  0.5174620000000  0.4632720000000 1.0
C      1  0.4020310000000  0.5251780000000  0.5260030000000 1.0
C      1  0.4759590000000  0.5527620000000  0.5968020000000 1.0
C      1  0.4342340000000  0.4954490000000  0.5851890000000 1.0
C      1  0.4908470000000  0.5207850000000  0.5205150000000 1.0
C      1  0.5324580000000  0.4740420000000  0.5389760000000 1.0
C      1  0.4689540000000  0.5357620000000  0.4155910000000 1.0
C      1  0.4070490000000  0.5340970000000  0.4622570000000 1.0
C      1  0.5211800000000  0.4640650000000  0.4852940000000 1.0
C      1  0.4224670000000  0.5443480000000  0.5325610000000 1.0
C      1  0.5394130000000  0.5507370000000  0.4431570000000 1.0
C      1  0.4506340000000  0.5377400000000  0.4379060000000 1.0
C      1  0.5082690000000  0.5061010000000  0.4232060000000 1.0
C      1  0.5303650000000  0.4370160000000  0.5773870000000 1.0
C      1  0.5162070000000  0.5008830000000  0.4503210000000 1.0
C      1  0.4909530000000  0.5617230000000  0.4574270000000 1.0
C      1  0.5317190000000  0.5765960000000  0.5126990000000 1.0
C      1  0.4870880000000  0.4261790000000  0.5535350000000 1.0
C      1  0.5425470000000  0.5783150000000  0.5394250000000 1.0
C      1  0.4252870000000  0.4927150000000  0.4464940000000 1.0
C      1  0.5542430000000  0.4494130000000  0.5800400000000 1.0
C      1  0.4058950000000  0.4970900000000  0.5218990000000 1.0
C      1  0.4281980000000  0.4832460000000  0.5336410000000 1.0
C      1  0.4839330000000  0.5773250000000  0.5509700000000 1.0
C      1  0.4728760000000  0.4190550000000  0.5019620000000 1.0
C      1  0.5397400000000  0.5139270000000  0.5039180000000 1.0
C      1  0.5908170000000  0.4989250000000  0.5102380000000 1.0
C      1  0.5527880000000  0.4637380000000  0.5218430000000 1.0
C      1  0.5527090000000  0.5618610000000  0.4969950000000 1.0
C      1  0.5719900000000  0.5410420000000  0.5639720000000 1.0
C      1  0.5248640000000  0.4899840000000  0.5588150000000 1.0
C      1  0.5960070000000  0.5007380000000  0.4827090000000 1.0
C      1  0.4895880000000  0.4586720000000  0.5899070000000 1.0
C      1  0.5364100000000  0.4418730000000  0.3411350000000 1.0
C      1  0.4721250000000  0.4728860000000  0.4450490000000 1.0
C      1  0.5333190000000  0.4143060000000  0.4516850000000 1.0
C      1  0.5861210000000  0.5242470000000  0.5235700000000 1.0
C      1  0.5527350000000  0.4055970000000  0.4727830000000 1.0
C      1  0.4499120000000  0.5131010000000  0.6001150000000 1.0
C      1  0.5152710000000  0.4997750000000  0.5829010000000 1.0
C      1  0.5874230000000  0.4629710000000  0.4459960000000 1.0
C      1  0.5824660000000  0.5166550000000  0.5528010000000 1.0
C      1  0.5736730000000  0.5057570000000  0.4666170000000 1.0
C      1  0.4976690000000  0.5328890000000  0.4193800000000 1.0
C      1  0.4915780000000  0.5651760000000  0.5751930000000 1.0
C      1  0.5068620000000  0.4110880000000  0.4624350000000 1.0
C      1  0.5692250000000  0.5064890000000  0.4379970000000 1.0
C      1  0.5020570000000  0.4386590000000  0.5741570000000 1.0
C      1  0.4924080000000  0.4630580000000  0.4871660000000 1.0
C      1  0.5480400000000  0.4374380000000  0.4390270000000 1.0
C      1  0.4921410000000  0.5306430000000  0.6086070000000 1.0
C      1  0.4271820000000  0.5221800000000  0.4456070000000 1.0
C      1  0.3890970000000  0.4861270000000  0.5018550000000 1.0
C      1  0.5641130000000  0.5601830000000  0.5440980000000 1.0
C      1  0.4770870000000  0.5079850000000  0.4995670000000 1.0
C      1  0.5409910000000  0.4483870000000  0.3664150000000 1.0
C      1  0.5312400000000  0.4837930000000  0.4679750000000 1.0
C      1  0.4507360000000  0.4736970000000  0.5188560000000 1.0
C      1  0.5514670000000  0.4587230000000  0.4185890000000 1.0
C      1  0.5719120000000  0.5492470000000  0.5167730000000 1.0
C      1  0.5317170000000  0.4354020000000  0.3163210000000 1.0
C      1  0.4223370000000  0.5567200000000  0.5573170000000 1.0
C      1  0.4740570000000  0.4794620000000  0.5034110000000 1.0
C      1  0.4258550000000  0.4680990000000  0.4587580000000 1.0
C      1  0.4776360000000  0.5246860000000  0.5439420000000 1.0
C      1  0.4812900000000  0.5777160000000  0.5226530000000 1.0
C      1  0.5712920000000  0.4794440000000  0.4277460000000 1.0
C      1  0.5102430000000  0.5530950000000  0.4367820000000 1.0
C      1  0.4680210000000  0.5439990000000  0.4613840000000 1.0
C      1  0.5114680000000  0.5225790000000  0.4672280000000 1.0
C      1  0.4341190000000  0.4461950000000  0.4730170000000 1.0
C      1  0.5043600000000  0.5799920000000  0.5052010000000 1.0
C      1  0.4764590000000  0.5054470000000  0.6084380000000 1.0
C      1  0.4677670000000  0.4976400000000  0.4542390000000 1.0
C      1  0.5781330000000  0.4775030000000  0.5261340000000 1.0
C      1  0.4491970000000  0.5419940000000  0.5962350000000 1.0
C      1  0.4991620000000  0.4144850000000  0.4901400000000 1.0
C      1  0.5559550000000  0.5306440000000  0.4300120000000 1.0
C      1  0.4107910000000  0.5495520000000  0.4867010000000 1.0
C      1  0.4560200000000  0.5715860000000  0.5103440000000 1.0
C      1  0.4288950000000  0.5552830000000  0.5829590000000 1.0
C      1  0.3885890000000  0.5399890000000  0.5047770000000 1.0
C      1  0.5186160000000  0.5224360000000  0.5178050000000 1.0
C      1  0.5216090000000  0.4225140000000  0.5072700000000 1.0
C      1  0.5709580000000  0.4437540000000  0.4586320000000 1.0
END
