TITL C-612600-6631-820 -0.000913655386653276 125000 -1172.29750279415 0 0 190 (C1) n - 1
REM
REM in /home/nfs/bkarasulu/CARBON/AIRSS/Generating-Clusters/TERSOFF/Only-C1/FIRE-HFTN
REM
REM
REM
REM
REM
REM ./C.cell (11c1c37f851c82e70ff6c80c92926a4b)
REM AIRSS Version 0.9.1 bugfix July 2018 build 013d7b7c2542+ Fri, 06 Jul 2018 19:26:36 +0100
REM compiler GCC version 9.2.1 20190827 (Red Hat 9.2.1-1)
REM options -cpp -mtune=generic -march=x86-64 -g -O0 -fpre-include=/usr/include/finclude/math-vector-fortran.h
REM seed -1516429166 -1625001507 1138705170 -957532802 678071555 -1858157248 1402764826 -2048176600 -449048152 1335656896 2076951911 1951426537 -715530864 687083785 -1726490897 594619985 1418188692 -209230125 -239639415 -1216017676 1423849520 -512133870 -1462448904 1608472411 1459462606 258938707 -196151241 1476144675 -1548563771 -1962250417 -562917080 752542438 1358594564
REM
CELL 1.54180   50.00000   50.00000   50.00000   90.00000   90.00000   90.00000
LATT -1
SFAC C  
C      1  0.5770160000000  0.5255920000000  0.6021060000000 1.0
C      1  0.5850970000000  0.4553690000000  0.4793540000000 1.0
C      1  0.4841260000000  0.4981740000000  0.4434180000000 1.0
C      1  0.5096830000000  0.5638860000000  0.4017200000000 1.0
C      1  0.4566510000000  0.5350870000000  0.4568350000000 1.0
C      1  0.5738640000000  0.5212470000000  0.3871280000000 1.0
C      1  0.5455990000000  0.5433840000000  0.6368730000000 1.0
C      1  0.5527520000000  0.5661750000000  0.5925930000000 1.0
C      1  0.3812330000000  0.4839190000000  0.4991730000000 1.0
C      1  0.6226810000000  0.5354130000000  0.4888800000000 1.0
C      1  0.4866560000000  0.4120110000000  0.4205200000000 1.0
C      1  0.4035830000000  0.4164500000000  0.5111220000000 1.0
C      1  0.5646410000000  0.4338690000000  0.4881450000000 1.0
C      1  0.5317570000000  0.4564690000000  0.4366670000000 1.0
C      1  0.4772910000000  0.5851950000000  0.5774420000000 1.0
C      1  0.5258880000000  0.4738160000000  0.5862410000000 1.0
C      1  0.5095520000000  0.4238170000000  0.5462370000000 1.0
C      1  0.6041910000000  0.5868340000000  0.4863180000000 1.0
C      1  0.5717260000000  0.4299390000000  0.5375100000000 1.0
C      1  0.4049500000000  0.5341760000000  0.5609240000000 1.0
C      1  0.4624860000000  0.5193570000000  0.3965180000000 1.0
C      1  0.5075360000000  0.4109890000000  0.4405190000000 1.0
C      1  0.5531710000000  0.4809130000000  0.3731800000000 1.0
C      1  0.4372570000000  0.4979030000000  0.5322270000000 1.0
C      1  0.5212830000000  0.5056920000000  0.4128880000000 1.0
C      1  0.6024090000000  0.5224590000000  0.5563420000000 1.0
C      1  0.4881860000000  0.4078810000000  0.5562620000000 1.0
C      1  0.4665070000000  0.6139800000000  0.4499040000000 1.0
C      1  0.5093650000000  0.4408410000000  0.5232060000000 1.0
C      1  0.4941230000000  0.3864080000000  0.5112820000000 1.0
C      1  0.4058110000000  0.5753430000000  0.4538970000000 1.0
C      1  0.4846140000000  0.4649620000000  0.5625840000000 1.0
C      1  0.5495100000000  0.5555830000000  0.5349440000000 1.0
C      1  0.4766570000000  0.5900710000000  0.5021220000000 1.0
C      1  0.4155160000000  0.5546590000000  0.5437030000000 1.0
C      1  0.5644400000000  0.4938690000000  0.4412970000000 1.0
C      1  0.4686120000000  0.3964860000000  0.4710040000000 1.0
C      1  0.5339890000000  0.5356250000000  0.4728680000000 1.0
C      1  0.5929500000000  0.4753680000000  0.5962150000000 1.0
C      1  0.4812290000000  0.5755590000000  0.4767360000000 1.0
C      1  0.4785430000000  0.4259670000000  0.6063320000000 1.0
C      1  0.5572860000000  0.5446300000000  0.6123020000000 1.0
C      1  0.4120990000000  0.5549770000000  0.5138880000000 1.0
C      1  0.3691210000000  0.4824990000000  0.5508960000000 1.0
C      1  0.5344940000000  0.4574750000000  0.5174630000000 1.0
C      1  0.6005880000000  0.4539140000000  0.6112580000000 1.0
C      1  0.5737960000000  0.5441630000000  0.4323600000000 1.0
C      1  0.5864840000000  0.5952930000000  0.5094620000000 1.0
C      1  0.5920710000000  0.6016130000000  0.4647280000000 1.0
C      1  0.3690440000000  0.4820990000000  0.5242970000000 1.0
C      1  0.5476020000000  0.4725140000000  0.4566810000000 1.0
C      1  0.4086330000000  0.5474970000000  0.4457440000000 1.0
C      1  0.4436910000000  0.4978330000000  0.5063270000000 1.0
C      1  0.4303660000000  0.5293550000000  0.4454630000000 1.0
C      1  0.3908820000000  0.4353940000000  0.4972110000000 1.0
C      1  0.4927690000000  0.6127660000000  0.4435990000000 1.0
C      1  0.3970030000000  0.5331830000000  0.5018540000000 1.0
C      1  0.4180260000000  0.5142920000000  0.5769740000000 1.0
C      1  0.5007200000000  0.5713580000000  0.5910930000000 1.0
C      1  0.5924240000000  0.5791840000000  0.5318390000000 1.0
C      1  0.5481260000000  0.5296130000000  0.3748020000000 1.0
C      1  0.5282360000000  0.5811730000000  0.5846020000000 1.0
C      1  0.5097150000000  0.4921370000000  0.6020560000000 1.0
C      1  0.5060460000000  0.4992190000000  0.5034170000000 1.0
C      1  0.5105930000000  0.5012650000000  0.3615390000000 1.0
C      1  0.4586150000000  0.4630850000000  0.5702890000000 1.0
C      1  0.5295400000000  0.5464230000000  0.5525720000000 1.0
C      1  0.5073800000000  0.4640960000000  0.4754800000000 1.0
C      1  0.4623510000000  0.5400840000000  0.5871250000000 1.0
C      1  0.5176330000000  0.6026820000000  0.4406330000000 1.0
C      1  0.5054650000000  0.4577070000000  0.4484660000000 1.0
C      1  0.5585360000000  0.5679990000000  0.4357500000000 1.0
C      1  0.5173150000000  0.5325480000000  0.4503460000000 1.0
C      1  0.6161420000000  0.5354690000000  0.5346890000000 1.0
C      1  0.4917130000000  0.5415390000000  0.5937380000000 1.0
C      1  0.5776430000000  0.4908120000000  0.3866370000000 1.0
C      1  0.4631940000000  0.4899950000000  0.4858540000000 1.0
C      1  0.4243500000000  0.5867210000000  0.4714070000000 1.0
C      1  0.4868540000000  0.5596350000000  0.4214930000000 1.0
C      1  0.5888320000000  0.5360550000000  0.5777180000000 1.0
C      1  0.4917890000000  0.6016370000000  0.5269560000000 1.0
C      1  0.4487880000000  0.4688360000000  0.4702270000000 1.0
C      1  0.5928540000000  0.4746700000000  0.4052190000000 1.0
C      1  0.5680530000000  0.5028310000000  0.4926020000000 1.0
C      1  0.6188710000000  0.5170720000000  0.5112000000000 1.0
C      1  0.4745940000000  0.5598200000000  0.4520460000000 1.0
C      1  0.6059190000000  0.4486140000000  0.4061340000000 1.0
C      1  0.5343780000000  0.4684850000000  0.4829100000000 1.0
C      1  0.5825250000000  0.4988580000000  0.6080470000000 1.0
C      1  0.5390660000000  0.3694620000000  0.5064110000000 1.0
C      1  0.4941100000000  0.3971740000000  0.4843530000000 1.0
C      1  0.5073670000000  0.3452430000000  0.5339020000000 1.0
C      1  0.4460050000000  0.4457530000000  0.4857950000000 1.0
C      1  0.5101130000000  0.5188630000000  0.5894830000000 1.0
C      1  0.6075720000000  0.4383530000000  0.4322130000000 1.0
C      1  0.4683850000000  0.4768310000000  0.6314440000000 1.0
C      1  0.4159870000000  0.4420490000000  0.4426440000000 1.0
C      1  0.5998260000000  0.4942130000000  0.5474200000000 1.0
C      1  0.5166430000000  0.4083170000000  0.4680030000000 1.0
C      1  0.5347480000000  0.4516510000000  0.4091060000000 1.0
C      1  0.5131160000000  0.4689260000000  0.5612200000000 1.0
C      1  0.5959460000000  0.4563470000000  0.4519800000000 1.0
C      1  0.4859380000000  0.4716510000000  0.4346840000000 1.0
C      1  0.4236520000000  0.5010310000000  0.4403150000000 1.0
C      1  0.5220620000000  0.5455640000000  0.3811390000000 1.0
C      1  0.6145080000000  0.5622120000000  0.5253610000000 1.0
C      1  0.4758830000000  0.3974990000000  0.5314050000000 1.0
C      1  0.4546410000000  0.5062190000000  0.5526780000000 1.0
C      1  0.4649990000000  0.4321600000000  0.4200110000000 1.0
C      1  0.4309720000000  0.4637020000000  0.5771550000000 1.0
C      1  0.4466560000000  0.5184570000000  0.5771340000000 1.0
C      1  0.4487860000000  0.5881240000000  0.5122570000000 1.0
C      1  0.4538060000000  0.4128370000000  0.5214850000000 1.0
C      1  0.4932680000000  0.4732590000000  0.6181260000000 1.0
C      1  0.5045710000000  0.4757760000000  0.3755340000000 1.0
C      1  0.5380390000000  0.5647710000000  0.5105790000000 1.0
C      1  0.4146810000000  0.4392660000000  0.5801650000000 1.0
C      1  0.5021500000000  0.5285760000000  0.3664820000000 1.0
C      1  0.4996160000000  0.4438040000000  0.6144390000000 1.0
C      1  0.5397570000000  0.5040630000000  0.3609920000000 1.0
C      1  0.5461110000000  0.4993640000000  0.4188200000000 1.0
C      1  0.5415140000000  0.5015800000000  0.5498340000000 1.0
C      1  0.4244050000000  0.4132900000000  0.5805600000000 1.0
C      1  0.5061060000000  0.5608700000000  0.5495990000000 1.0
C      1  0.4842490000000  0.5568040000000  0.5353650000000 1.0
C      1  0.3776590000000  0.5814800000000  0.4518310000000 1.0
C      1  0.5416100000000  0.4539510000000  0.5985390000000 1.0
C      1  0.4889070000000  0.4761580000000  0.4954090000000 1.0
C      1  0.4509740000000  0.4559520000000  0.6341100000000 1.0
C      1  0.5203270000000  0.6032890000000  0.5323400000000 1.0
C      1  0.5749480000000  0.5614840000000  0.5735050000000 1.0
C      1  0.4836710000000  0.5321630000000  0.5241050000000 1.0
C      1  0.5270540000000  0.4369430000000  0.6137780000000 1.0
C      1  0.4413410000000  0.4267870000000  0.4374830000000 1.0
C      1  0.5310770000000  0.4642740000000  0.3839740000000 1.0
C      1  0.4480990000000  0.4060720000000  0.4563500000000 1.0
C      1  0.4534700000000  0.5663840000000  0.5783480000000 1.0
C      1  0.3632920000000  0.5581450000000  0.4479430000000 1.0
C      1  0.3872860000000  0.4473280000000  0.5797330000000 1.0
C      1  0.4431500000000  0.6053640000000  0.4604440000000 1.0
C      1  0.4475060000000  0.5922860000000  0.5402970000000 1.0
C      1  0.5040420000000  0.5266380000000  0.5064790000000 1.0
C      1  0.4696640000000  0.5103310000000  0.4647360000000 1.0
C      1  0.4554260000000  0.4314140000000  0.6228890000000 1.0
C      1  0.4264540000000  0.4065980000000  0.5210330000000 1.0
C      1  0.4871650000000  0.3754260000000  0.3806830000000 1.0
C      1  0.5375680000000  0.5937470000000  0.5108650000000 1.0
C      1  0.3889390000000  0.4601250000000  0.4838230000000 1.0
C      1  0.5288350000000  0.5216490000000  0.5658470000000 1.0
C      1  0.4111710000000  0.4865790000000  0.5773810000000 1.0
C      1  0.5582100000000  0.4400380000000  0.5161100000000 1.0
C      1  0.4268790000000  0.5761710000000  0.4984260000000 1.0
C      1  0.5608080000000  0.6058270000000  0.4997500000000 1.0
C      1  0.3974160000000  0.4906010000000  0.4467680000000 1.0
C      1  0.4350300000000  0.5719580000000  0.5562930000000 1.0
C      1  0.3812660000000  0.5357370000000  0.4472220000000 1.0
C      1  0.3981120000000  0.4625560000000  0.4560520000000 1.0
C      1  0.3846530000000  0.4751320000000  0.5727470000000 1.0
C      1  0.5593320000000  0.5233980000000  0.4753230000000 1.0
C      1  0.5010230000000  0.5173360000000  0.4296110000000 1.0
C      1  0.5316470000000  0.4770620000000  0.5400980000000 1.0
C      1  0.5678390000000  0.6130450000000  0.4724990000000 1.0
C      1  0.4784430000000  0.4725170000000  0.3878180000000 1.0
C      1  0.4847900000000  0.4517380000000  0.5128290000000 1.0
C      1  0.4411230000000  0.4794630000000  0.4452650000000 1.0
C      1  0.4800650000000  0.5324540000000  0.4138860000000 1.0
C      1  0.5134680000000  0.3664210000000  0.5177920000000 1.0
C      1  0.5288220000000  0.5996360000000  0.5607820000000 1.0
C      1  0.5883520000000  0.4790770000000  0.4342140000000 1.0
C      1  0.5718860000000  0.5679830000000  0.5466690000000 1.0
C      1  0.4744660000000  0.4099140000000  0.5818690000000 1.0
C      1  0.4477070000000  0.4001190000000  0.5807620000000 1.0
C      1  0.6051970000000  0.4917500000000  0.5179210000000 1.0
C      1  0.5526430000000  0.3860500000000  0.4902260000000 1.0
C      1  0.3817180000000  0.5106590000000  0.4598290000000 1.0
C      1  0.3851820000000  0.5103280000000  0.4884130000000 1.0
C      1  0.6186690000000  0.5635090000000  0.4954780000000 1.0
C      1  0.5456420000000  0.4115590000000  0.4783010000000 1.0
C      1  0.4739650000000  0.5998380000000  0.5513940000000 1.0
C      1  0.5845060000000  0.5381130000000  0.4069520000000 1.0
C      1  0.5871140000000  0.4810170000000  0.4972900000000 1.0
C      1  0.5230910000000  0.5450250000000  0.4965240000000 1.0
C      1  0.5715140000000  0.5218280000000  0.4500480000000 1.0
C      1  0.4743240000000  0.4583150000000  0.4125230000000 1.0
C      1  0.4611790000000  0.4950420000000  0.3848590000000 1.0
C      1  0.4608860000000  0.4370360000000  0.5081290000000 1.0
C      1  0.5962510000000  0.4756720000000  0.5681150000000 1.0
C      1  0.4793820000000  0.5119570000000  0.5427330000000 1.0
C      1  0.5392120000000  0.5867170000000  0.4378310000000 1.0
C      1  0.4870210000000  0.3929170000000  0.4000000000000 1.0
END
