TITL C-612605-9286-473 0.390567846518257 125000 -466.471530461243 0 0 77 (C1) n - 1
REM
REM in /home/nfs/bkarasulu/CARBON/AIRSS/Generating-Clusters/TERSOFF/Only-C1/FIRE-HFTN
REM
REM
REM
REM
REM
REM ./C.cell (11c1c37f851c82e70ff6c80c92926a4b)
REM AIRSS Version 0.9.1 bugfix July 2018 build 013d7b7c2542+ Fri, 06 Jul 2018 19:26:36 +0100
REM compiler GCC version 9.2.1 20190827 (Red Hat 9.2.1-1)
REM options -cpp -mtune=generic -march=x86-64 -g -O0 -fpre-include=/usr/include/finclude/math-vector-fortran.h
REM seed -913282503 -1136857063 -612621691 622176016 1272579470 -1491432883 -260191908 776604672 -1556193561 -521667341 -811603708 335260306 127918697 891855078 -1784031064 157521509 -256466260 325058568 1987411650 2095373576 -511927609 -1785028340 1365199497 -999264186 1819708440 332533747 723521372 2095236312 706137767 1426905368 1448644352 -1670104134 -1473829771
REM
CELL 1.54180   50.00000   50.00000   50.00000   90.00000   90.00000   90.00000
LATT -1
SFAC C  
C      1  0.5047250000000  0.4166260000000  0.5829650000000 1.0
C      1  0.5363140000000  0.4373860000000  0.4433790000000 1.0
C      1  0.4434800000000  0.4481000000000  0.4898410000000 1.0
C      1  0.5956850000000  0.5358290000000  0.4918510000000 1.0
C      1  0.5769620000000  0.4644100000000  0.5232310000000 1.0
C      1  0.5082600000000  0.5826670000000  0.5581080000000 1.0
C      1  0.4490160000000  0.4624220000000  0.4438700000000 1.0
C      1  0.5179770000000  0.4429510000000  0.5097860000000 1.0
C      1  0.4808910000000  0.4990510000000  0.4777280000000 1.0
C      1  0.4513270000000  0.4947530000000  0.5459590000000 1.0
C      1  0.6163210000000  0.5489000000000  0.5021020000000 1.0
C      1  0.4866380000000  0.5652690000000  0.4329330000000 1.0
C      1  0.5306780000000  0.4503760000000  0.5347700000000 1.0
C      1  0.5398260000000  0.5607270000000  0.4738240000000 1.0
C      1  0.4823150000000  0.5560390000000  0.5265580000000 1.0
C      1  0.5519690000000  0.5351790000000  0.4696020000000 1.0
C      1  0.4214240000000  0.5155180000000  0.4857060000000 1.0
C      1  0.6166170000000  0.4748580000000  0.4972910000000 1.0
C      1  0.5729690000000  0.4924970000000  0.4844010000000 1.0
C      1  0.4511840000000  0.5205610000000  0.5400430000000 1.0
C      1  0.4249880000000  0.4374360000000  0.5068050000000 1.0
C      1  0.5206900000000  0.6056920000000  0.5622150000000 1.0
C      1  0.5078140000000  0.4522470000000  0.5528110000000 1.0
C      1  0.4616590000000  0.4902060000000  0.4064200000000 1.0
C      1  0.3619460000000  0.5522870000000  0.5040920000000 1.0
C      1  0.5192510000000  0.5281750000000  0.4315100000000 1.0
C      1  0.4960900000000  0.5375830000000  0.5707040000000 1.0
C      1  0.5738720000000  0.5214650000000  0.4820570000000 1.0
C      1  0.4889530000000  0.4454490000000  0.5107690000000 1.0
C      1  0.4724800000000  0.5723760000000  0.4546990000000 1.0
C      1  0.5131250000000  0.5079970000000  0.5118770000000 1.0
C      1  0.5005070000000  0.4103080000000  0.4670820000000 1.0
C      1  0.4817280000000  0.4320020000000  0.4649930000000 1.0
C      1  0.5465820000000  0.4936790000000  0.5455360000000 1.0
C      1  0.5511380000000  0.4787190000000  0.4718140000000 1.0
C      1  0.4302630000000  0.5829590000000  0.5122400000000 1.0
C      1  0.5067380000000  0.4986440000000  0.4862300000000 1.0
C      1  0.5290050000000  0.5097510000000  0.5331970000000 1.0
C      1  0.5059960000000  0.5094060000000  0.4153630000000 1.0
C      1  0.3875000000000  0.5456830000000  0.5017900000000 1.0
C      1  0.5455950000000  0.6514330000000  0.5694040000000 1.0
C      1  0.5205610000000  0.4502420000000  0.4238380000000 1.0
C      1  0.4943340000000  0.5653680000000  0.5021930000000 1.0
C      1  0.4771770000000  0.5730050000000  0.4810440000000 1.0
C      1  0.4753380000000  0.4496840000000  0.4431310000000 1.0
C      1  0.5530470000000  0.4673000000000  0.5375340000000 1.0
C      1  0.4890540000000  0.4871400000000  0.4130710000000 1.0
C      1  0.4145850000000  0.5389050000000  0.4995790000000 1.0
C      1  0.5016350000000  0.4925460000000  0.5980470000000 1.0
C      1  0.5068830000000  0.4445400000000  0.5798420000000 1.0
C      1  0.5347070000000  0.5185210000000  0.4534580000000 1.0
C      1  0.4998770000000  0.3861640000000  0.5409650000000 1.0
C      1  0.4621170000000  0.4705630000000  0.5450040000000 1.0
C      1  0.4985570000000  0.5168150000000  0.5872950000000 1.0
C      1  0.4982830000000  0.3919510000000  0.4884540000000 1.0
C      1  0.4560570000000  0.5443070000000  0.5260630000000 1.0
C      1  0.3368230000000  0.5588600000000  0.5063780000000 1.0
C      1  0.5313990000000  0.5716620000000  0.4486770000000 1.0
C      1  0.4424830000000  0.4777900000000  0.4210250000000 1.0
C      1  0.5020240000000  0.3960640000000  0.5657660000000 1.0
C      1  0.4365770000000  0.4666100000000  0.4692260000000 1.0
C      1  0.5281660000000  0.4950560000000  0.4678850000000 1.0
C      1  0.5251010000000  0.4137520000000  0.4537610000000 1.0
C      1  0.5048120000000  0.4659190000000  0.5978630000000 1.0
C      1  0.5133600000000  0.5563310000000  0.4323760000000 1.0
C      1  0.4985200000000  0.3848260000000  0.5142690000000 1.0
C      1  0.4834390000000  0.4546450000000  0.5374870000000 1.0
C      1  0.5332400000000  0.6287520000000  0.5658560000000 1.0
C      1  0.5221480000000  0.5648970000000  0.4958100000000 1.0
C      1  0.6367410000000  0.5614590000000  0.5123430000000 1.0
C      1  0.4340210000000  0.5557870000000  0.5120570000000 1.0
C      1  0.4950510000000  0.4617700000000  0.4254630000000 1.0
C      1  0.4956470000000  0.5585060000000  0.5518070000000 1.0
C      1  0.4244640000000  0.4910100000000  0.4758110000000 1.0
C      1  0.5897970000000  0.4772910000000  0.5016700000000 1.0
C      1  0.4708690000000  0.4405750000000  0.4901050000000 1.0
C      1  0.5526070000000  0.4537730000000  0.4592910000000 1.0
END
