TITL C-612600-6631-432 0.696806760224226 125000 -648.784559357835 0 0 104 (C1) n - 1
REM
REM in /home/nfs/bkarasulu/CARBON/AIRSS/Generating-Clusters/TERSOFF/Only-C1/FIRE-HFTN
REM
REM
REM
REM
REM
REM ./C.cell (11c1c37f851c82e70ff6c80c92926a4b)
REM AIRSS Version 0.9.1 bugfix July 2018 build 013d7b7c2542+ Fri, 06 Jul 2018 19:26:36 +0100
REM compiler GCC version 9.2.1 20190827 (Red Hat 9.2.1-1)
REM options -cpp -mtune=generic -march=x86-64 -g -O0 -fpre-include=/usr/include/finclude/math-vector-fortran.h
REM seed 1981235632 1370768311 779331544 -569838251 -73529097 1062288850 795761114 53560661 -1513163917 -809816744 1422162557 -1346676531 -1749620628 185747844 267079980 1129158910 1869745761 678153799 1280625553 563996972 -256638479 -1986548013 -1761622868 -743433104 -424881800 -340504616 1182133502 685043040 -1497306932 1117655036 -932482574 1378726367 1912833720
REM
CELL 1.54180   50.00000   50.00000   50.00000   90.00000   90.00000   90.00000
LATT -1
SFAC C  
C      1  0.3863870000000  0.4910720000000  0.4634850000000 1.0
C      1  0.4445970000000  0.4798330000000  0.5969390000000 1.0
C      1  0.4653550000000  0.6186530000000  0.5065970000000 1.0
C      1  0.5090290000000  0.5102390000000  0.5215240000000 1.0
C      1  0.4900990000000  0.4615370000000  0.5887960000000 1.0
C      1  0.5360330000000  0.5630100000000  0.4328060000000 1.0
C      1  0.4371880000000  0.4493070000000  0.5515560000000 1.0
C      1  0.4465910000000  0.5507440000000  0.5137760000000 1.0
C      1  0.3683660000000  0.4935850000000  0.4442300000000 1.0
C      1  0.6020970000000  0.5345480000000  0.3972660000000 1.0
C      1  0.4189900000000  0.5493940000000  0.5104070000000 1.0
C      1  0.5588020000000  0.4219430000000  0.4009630000000 1.0
C      1  0.6173020000000  0.4792890000000  0.3814920000000 1.0
C      1  0.5152110000000  0.4296480000000  0.4764040000000 1.0
C      1  0.3507510000000  0.4962050000000  0.4251920000000 1.0
C      1  0.5092730000000  0.4152050000000  0.5588280000000 1.0
C      1  0.5386230000000  0.4388740000000  0.4136020000000 1.0
C      1  0.4726800000000  0.4838090000000  0.5958660000000 1.0
C      1  0.5339630000000  0.4365500000000  0.5230600000000 1.0
C      1  0.5816820000000  0.4365050000000  0.3918100000000 1.0
C      1  0.4727720000000  0.5918290000000  0.5067830000000 1.0
C      1  0.5191160000000  0.4580700000000  0.4719220000000 1.0
C      1  0.4332910000000  0.4731040000000  0.5710810000000 1.0
C      1  0.5438020000000  0.4645940000000  0.4836540000000 1.0
C      1  0.5301900000000  0.4343540000000  0.5524310000000 1.0
C      1  0.5082730000000  0.5143220000000  0.5836650000000 1.0
C      1  0.5245760000000  0.5545590000000  0.5208070000000 1.0
C      1  0.4994880000000  0.5353450000000  0.4831200000000 1.0
C      1  0.5053120000000  0.5864400000000  0.5797460000000 1.0
C      1  0.5530810000000  0.4991740000000  0.5869510000000 1.0
C      1  0.5110470000000  0.5031110000000  0.4523290000000 1.0
C      1  0.5594570000000  0.5170270000000  0.4145950000000 1.0
C      1  0.4985580000000  0.5180680000000  0.4312620000000 1.0
C      1  0.5928290000000  0.4865190000000  0.3940430000000 1.0
C      1  0.5212610000000  0.5202690000000  0.4726850000000 1.0
C      1  0.4769690000000  0.4999210000000  0.5504460000000 1.0
C      1  0.5484530000000  0.4584280000000  0.5107610000000 1.0
C      1  0.5333240000000  0.5000840000000  0.5259050000000 1.0
C      1  0.6339040000000  0.5755160000000  0.3887380000000 1.0
C      1  0.5437030000000  0.4932790000000  0.4173310000000 1.0
C      1  0.4243870000000  0.4982660000000  0.5562200000000 1.0
C      1  0.5152730000000  0.4218820000000  0.5049290000000 1.0
C      1  0.4300340000000  0.5242830000000  0.5698560000000 1.0
C      1  0.4950110000000  0.5692550000000  0.5597390000000 1.0
C      1  0.5170770000000  0.4155770000000  0.4519490000000 1.0
C      1  0.5018100000000  0.4768850000000  0.4593140000000 1.0
C      1  0.4930510000000  0.5815790000000  0.4890250000000 1.0
C      1  0.4305860000000  0.4752840000000  0.4791690000000 1.0
C      1  0.5637550000000  0.5504110000000  0.5893190000000 1.0
C      1  0.5718490000000  0.4787420000000  0.5474050000000 1.0
C      1  0.5521500000000  0.5272450000000  0.5781800000000 1.0
C      1  0.4061900000000  0.4896240000000  0.4828970000000 1.0
C      1  0.6235230000000  0.4536410000000  0.3747320000000 1.0
C      1  0.5495030000000  0.4663900000000  0.4113820000000 1.0
C      1  0.4147900000000  0.4880270000000  0.5309200000000 1.0
C      1  0.4674410000000  0.5656050000000  0.5522800000000 1.0
C      1  0.5540300000000  0.4811880000000  0.5260700000000 1.0
C      1  0.5248770000000  0.5324660000000  0.5677940000000 1.0
C      1  0.5085000000000  0.5667500000000  0.4394550000000 1.0
C      1  0.4007990000000  0.5298050000000  0.5098370000000 1.0
C      1  0.5053800000000  0.5583380000000  0.4993920000000 1.0
C      1  0.4727990000000  0.5255240000000  0.4834490000000 1.0
C      1  0.4364330000000  0.4571530000000  0.5003740000000 1.0
C      1  0.5291320000000  0.5875450000000  0.5924370000000 1.0
C      1  0.4801970000000  0.4643350000000  0.5158540000000 1.0
C      1  0.4408900000000  0.5300350000000  0.4471310000000 1.0
C      1  0.5755330000000  0.4643140000000  0.3986760000000 1.0
C      1  0.4625120000000  0.4476520000000  0.5010930000000 1.0
C      1  0.4820960000000  0.5054440000000  0.5781480000000 1.0
C      1  0.4525840000000  0.4857970000000  0.4636550000000 1.0
C      1  0.5252160000000  0.4938000000000  0.5957400000000 1.0
C      1  0.4897690000000  0.4119760000000  0.5154550000000 1.0
C      1  0.5459650000000  0.5275390000000  0.4851390000000 1.0
C      1  0.4557090000000  0.5143240000000  0.4639350000000 1.0
C      1  0.4742560000000  0.4708440000000  0.4521880000000 1.0
C      1  0.4584580000000  0.6437830000000  0.5065250000000 1.0
C      1  0.5523420000000  0.5741840000000  0.5953390000000 1.0
C      1  0.4483450000000  0.5463210000000  0.5638090000000 1.0
C      1  0.4037370000000  0.5019770000000  0.5087130000000 1.0
C      1  0.6066550000000  0.4327930000000  0.3795200000000 1.0
C      1  0.5514390000000  0.5427430000000  0.4235450000000 1.0
C      1  0.4841430000000  0.4134030000000  0.5440170000000 1.0
C      1  0.4682670000000  0.4203500000000  0.4993090000000 1.0
C      1  0.4932220000000  0.5447290000000  0.4294080000000 1.0
C      1  0.5179440000000  0.4661650000000  0.5909100000000 1.0
C      1  0.6181550000000  0.5551720000000  0.3929500000000 1.0
C      1  0.4982310000000  0.5836040000000  0.4606290000000 1.0
C      1  0.5850750000000  0.5129100000000  0.4018840000000 1.0
C      1  0.4251880000000  0.4608290000000  0.5264360000000 1.0
C      1  0.5479980000000  0.5431340000000  0.5079450000000 1.0
C      1  0.4295690000000  0.4994080000000  0.6112200000000 1.0
C      1  0.4897090000000  0.4365540000000  0.4187680000000 1.0
C      1  0.5157930000000  0.5519610000000  0.5486360000000 1.0
C      1  0.4634020000000  0.5279790000000  0.5100840000000 1.0
C      1  0.4818330000000  0.4730570000000  0.5426120000000 1.0
C      1  0.4809790000000  0.4538240000000  0.5632230000000 1.0
C      1  0.5380970000000  0.4540890000000  0.5729890000000 1.0
C      1  0.5156470000000  0.4279930000000  0.4261040000000 1.0
C      1  0.4631140000000  0.4327300000000  0.5544080000000 1.0
C      1  0.4229140000000  0.5222360000000  0.5977390000000 1.0
C      1  0.4605030000000  0.5729510000000  0.5250360000000 1.0
C      1  0.5601950000000  0.4746280000000  0.5726060000000 1.0
C      1  0.4818110000000  0.5166030000000  0.5286080000000 1.0
C      1  0.4717050000000  0.4524030000000  0.4310340000000 1.0
END
