TITL C-612604-1799-1404 5844.32866070257 125000 -669.291140335622 0 0 111 (C1) n - 1
REM
REM in /home/nfs/bkarasulu/CARBON/AIRSS/Generating-Clusters/TERSOFF/Only-C1/FIRE-HFTN
REM
REM
REM
REM
REM
REM ./C.cell (11c1c37f851c82e70ff6c80c92926a4b)
REM AIRSS Version 0.9.1 bugfix July 2018 build 013d7b7c2542+ Fri, 06 Jul 2018 19:26:36 +0100
REM compiler GCC version 9.2.1 20190827 (Red Hat 9.2.1-1)
REM options -cpp -mtune=generic -march=x86-64 -g -O0 -fpre-include=/usr/include/finclude/math-vector-fortran.h
REM seed 179847193 -710281669 -959106538 -141601229 -1535807266 5904943 -376582933 693674412 -77658901 1672007102 1869207007 828762371 930588093 458690142 1538643457 -1945927309 818262978 582846894 1625498127 -1535867255 -506991414 -1786537743 1717109224 -1663915527 -801842325 -1504361907 -1993593981 -560709592 -1731393281 69777885 2115338420 1545109400 -1405740294
REM
CELL 1.54180   50.00000   50.00000   50.00000   90.00000   90.00000   90.00000
LATT -1
SFAC C  
C      1  0.4483770000000  0.5394700000000  0.5660610000000 1.0
C      1  0.4767240000000  0.5426650000000  0.5606390000000 1.0
C      1  0.5256190000000  0.5218850000000  0.5027480000000 1.0
C      1  0.5818450000000  0.4779200000000  0.5213330000000 1.0
C      1  0.5272810000000  0.5996980000000  0.5272450000000 1.0
C      1  0.5785810000000  0.4629980000000  0.4664800000000 1.0
C      1  0.4192470000000  0.4533110000000  0.5463300000000 1.0
C      1  0.3988400000000  0.4757240000000  0.4589640000000 1.0
C      1  0.5779870000000  0.4658880000000  0.5487300000000 1.0
C      1  0.4775250000000  0.4139440000000  0.4763490000000 1.0
C      1  0.4940550000000  0.4950310000000  0.4560190000000 1.0
C      1  0.5404160000000  0.5902940000000  0.5058590000000 1.0
C      1  0.4983250000000  0.5047790000000  0.3947340000000 1.0
C      1  0.5644520000000  0.5280480000000  0.5384300000000 1.0
C      1  0.5670960000000  0.4414620000000  0.5621820000000 1.0
C      1  0.5081480000000  0.5310140000000  0.4833770000000 1.0
C      1  0.5449320000000  0.4449290000000  0.5819570000000 1.0
C      1  0.4436030000000  0.4515480000000  0.5578370000000 1.0
C      1  0.5889280000000  0.5173530000000  0.4555980000000 1.0
C      1  0.4403490000000  0.4087250000000  0.5204260000000 1.0
C      1  0.5026180000000  0.4344450000000  0.5175650000000 1.0
C      1  0.5123500000000  0.5656290000000  0.4420070000000 1.0
C      1  0.4595210000000  0.4973600000000  0.5894740000000 1.0
C      1  0.4738020000000  0.4894700000000  0.4749480000000 1.0
C      1  0.5443420000000  0.6292790000000  0.5901150000000 1.0
C      1  0.4800730000000  0.3875750000000  0.4684960000000 1.0
C      1  0.4300970000000  0.5577010000000  0.5527710000000 1.0
C      1  0.4089440000000  0.5448050000000  0.5381280000000 1.0
C      1  0.4134800000000  0.4680970000000  0.5221980000000 1.0
C      1  0.5098580000000  0.4719520000000  0.4511080000000 1.0
C      1  0.5598190000000  0.4465450000000  0.4497750000000 1.0
C      1  0.5063990000000  0.4758210000000  0.5933440000000 1.0
C      1  0.5673170000000  0.4866620000000  0.5656770000000 1.0
C      1  0.4725000000000  0.5564570000000  0.5054670000000 1.0
C      1  0.5224490000000  0.4194810000000  0.4311630000000 1.0
C      1  0.4212530000000  0.5001890000000  0.5577120000000 1.0
C      1  0.4693390000000  0.5070390000000  0.4951210000000 1.0
C      1  0.5250230000000  0.4709460000000  0.5478200000000 1.0
C      1  0.4691280000000  0.4550680000000  0.5462690000000 1.0
C      1  0.5293550000000  0.6197770000000  0.5710280000000 1.0
C      1  0.4394980000000  0.5838270000000  0.5439730000000 1.0
C      1  0.5769900000000  0.4165550000000  0.5563110000000 1.0
C      1  0.4047120000000  0.4968560000000  0.4435160000000 1.0
C      1  0.4573770000000  0.5293620000000  0.5039460000000 1.0
C      1  0.5679660000000  0.4634040000000  0.4037910000000 1.0
C      1  0.4297320000000  0.5023980000000  0.4318420000000 1.0
C      1  0.5061970000000  0.5203860000000  0.4570410000000 1.0
C      1  0.5670530000000  0.5363240000000  0.4538430000000 1.0
C      1  0.4134430000000  0.4968800000000  0.5297050000000 1.0
C      1  0.4121070000000  0.5238590000000  0.5182610000000 1.0
C      1  0.4311540000000  0.5552920000000  0.4791080000000 1.0
C      1  0.4595990000000  0.5341270000000  0.4120450000000 1.0
C      1  0.5467810000000  0.5321310000000  0.4342980000000 1.0
C      1  0.5193440000000  0.4578690000000  0.5724190000000 1.0
C      1  0.4885170000000  0.4986910000000  0.5887930000000 1.0
C      1  0.5162130000000  0.5194440000000  0.5292700000000 1.0
C      1  0.5726890000000  0.4669790000000  0.4946230000000 1.0
C      1  0.5726820000000  0.5083080000000  0.5186840000000 1.0
C      1  0.4447520000000  0.4789430000000  0.4251190000000 1.0
C      1  0.5381240000000  0.5193180000000  0.5474210000000 1.0
C      1  0.5139570000000  0.6083710000000  0.5505840000000 1.0
C      1  0.4508570000000  0.4250970000000  0.4756330000000 1.0
C      1  0.4733510000000  0.4377080000000  0.4226430000000 1.0
C      1  0.5837460000000  0.4661930000000  0.3832420000000 1.0
C      1  0.4937260000000  0.5254580000000  0.5771180000000 1.0
C      1  0.5412910000000  0.4232550000000  0.4531320000000 1.0
C      1  0.4509080000000  0.4520990000000  0.4327590000000 1.0
C      1  0.4807620000000  0.4311650000000  0.5350240000000 1.0
C      1  0.5244690000000  0.4680780000000  0.4970560000000 1.0
C      1  0.5252520000000  0.4724160000000  0.4270080000000 1.0
C      1  0.5033250000000  0.4275860000000  0.4864940000000 1.0
C      1  0.4653810000000  0.4646410000000  0.4806410000000 1.0
C      1  0.4370700000000  0.4419010000000  0.4558960000000 1.0
C      1  0.4817380000000  0.5555980000000  0.5352060000000 1.0
C      1  0.4340490000000  0.4266300000000  0.4997790000000 1.0
C      1  0.5783410000000  0.5504590000000  0.5466110000000 1.0
C      1  0.5902260000000  0.5723260000000  0.5543360000000 1.0
C      1  0.4974860000000  0.4255450000000  0.4224050000000 1.0
C      1  0.5402630000000  0.5763300000000  0.4813220000000 1.0
C      1  0.5135340000000  0.5731920000000  0.4698950000000 1.0
C      1  0.4605400000000  0.5980380000000  0.5564950000000 1.0
C      1  0.4407240000000  0.5125760000000  0.5739440000000 1.0
C      1  0.4400260000000  0.5291600000000  0.4316100000000 1.0
C      1  0.6383990000000  0.5384020000000  0.4619050000000 1.0
C      1  0.5514500000000  0.4613650000000  0.4261270000000 1.0
C      1  0.4171280000000  0.4512750000000  0.4988420000000 1.0
C      1  0.5105560000000  0.4558620000000  0.4749130000000 1.0
C      1  0.4861210000000  0.6059420000000  0.5547050000000 1.0
C      1  0.4483780000000  0.5741260000000  0.4952200000000 1.0
C      1  0.5439990000000  0.4518190000000  0.6102510000000 1.0
C      1  0.4294310000000  0.5324550000000  0.4976290000000 1.0
C      1  0.4151280000000  0.4560890000000  0.4702090000000 1.0
C      1  0.5144230000000  0.4861000000000  0.4049090000000 1.0
C      1  0.5503310000000  0.5085770000000  0.4987370000000 1.0
C      1  0.5192930000000  0.5376740000000  0.4383530000000 1.0
C      1  0.5476230000000  0.4814200000000  0.4921180000000 1.0
C      1  0.4961680000000  0.5569930000000  0.4868180000000 1.0
C      1  0.4782530000000  0.4811290000000  0.5396300000000 1.0
C      1  0.5411250000000  0.4935580000000  0.5577630000000 1.0
C      1  0.4934500000000  0.5028030000000  0.5343280000000 1.0
C      1  0.5191790000000  0.4579940000000  0.5230270000000 1.0
C      1  0.5869820000000  0.4885790000000  0.4548750000000 1.0
C      1  0.6147170000000  0.5281010000000  0.4584120000000 1.0
C      1  0.5610950000000  0.5588810000000  0.4712180000000 1.0
C      1  0.4367320000000  0.5894480000000  0.5160440000000 1.0
C      1  0.5228990000000  0.4690520000000  0.6165410000000 1.0
C      1  0.4636660000000  0.4087630000000  0.5340800000000 1.0
C      1  0.5293720000000  0.4137050000000  0.4777980000000 1.0
C      1  0.4331140000000  0.5481890000000  0.4517170000000 1.0
C      1  0.4793850000000  0.5233410000000  0.3977010000000 1.0
C      1  0.5056550000000  0.5826000000000  0.4218070000000 1.0
END
