TITL C-612606-7351-663 -1.42744564624763e-05 125000 -214.234865324936 0 0 37 (C1) n - 1
REM
REM in /home/nfs/bkarasulu/CARBON/AIRSS/Generating-Clusters/TERSOFF/Only-C1/FIRE-HFTN
REM
REM
REM
REM
REM
REM ./C.cell (11c1c37f851c82e70ff6c80c92926a4b)
REM AIRSS Version 0.9.1 bugfix July 2018 build 013d7b7c2542+ Fri, 06 Jul 2018 19:26:36 +0100
REM compiler GCC version 9.2.1 20190827 (Red Hat 9.2.1-1)
REM options -cpp -mtune=generic -march=x86-64 -g -O0 -fpre-include=/usr/include/finclude/math-vector-fortran.h
REM seed -1018017333 327136349 -2133188411 1870262874 1975753290 1942064628 -1660699521 1235344399 -156057861 848319178 195440073 1930639813 1271726652 2077304627 -1688464816 1652322740 1593136356 1494242015 -2138042586 -822036413 1709336688 396800920 1229216851 -724694300 -1307530633 -1814473285 -1277331595 1058659091 -879556908 -483738385 1942129969 1096814446 1354445393
REM
CELL 1.54180   50.00000   50.00000   50.00000   90.00000   90.00000   90.00000
LATT -1
SFAC C  
C      1  0.5059930000000  0.4658960000000  0.5615880000000 1.0
C      1  0.4718830000000  0.4453020000000  0.4726690000000 1.0
C      1  0.4695100000000  0.5625280000000  0.4656040000000 1.0
C      1  0.5370270000000  0.5682480000000  0.4997790000000 1.0
C      1  0.5208250000000  0.4444760000000  0.5503280000000 1.0
C      1  0.4612780000000  0.5258560000000  0.5422690000000 1.0
C      1  0.4575030000000  0.4852360000000  0.4909610000000 1.0
C      1  0.5069690000000  0.4277190000000  0.5303460000000 1.0
C      1  0.4755070000000  0.5071700000000  0.5581250000000 1.0
C      1  0.5584400000000  0.5045480000000  0.4502850000000 1.0
C      1  0.4930380000000  0.5546490000000  0.4823480000000 1.0
C      1  0.5137120000000  0.4401920000000  0.5045980000000 1.0
C      1  0.5385310000000  0.5239600000000  0.5224150000000 1.0
C      1  0.5007270000000  0.4913940000000  0.5210100000000 1.0
C      1  0.4273710000000  0.4625070000000  0.4575330000000 1.0
C      1  0.4858970000000  0.5586260000000  0.5111800000000 1.0
C      1  0.4414660000000  0.5158950000000  0.5246800000000 1.0
C      1  0.4424250000000  0.5082570000000  0.4974640000000 1.0
C      1  0.5211790000000  0.5639690000000  0.4766090000000 1.0
C      1  0.5417150000000  0.4813010000000  0.4975950000000 1.0
C      1  0.5437810000000  0.5498490000000  0.5182540000000 1.0
C      1  0.4837670000000  0.4788770000000  0.5019570000000 1.0
C      1  0.4459260000000  0.5491200000000  0.4653030000000 1.0
C      1  0.4924950000000  0.4528060000000  0.4910480000000 1.0
C      1  0.4743610000000  0.5491960000000  0.5333890000000 1.0
C      1  0.5530170000000  0.4895230000000  0.4734540000000 1.0
C      1  0.5395680000000  0.4547590000000  0.5075900000000 1.0
C      1  0.5269610000000  0.5000980000000  0.5135550000000 1.0
C      1  0.4500560000000  0.4642110000000  0.4722760000000 1.0
C      1  0.4917680000000  0.4057280000000  0.5348320000000 1.0
C      1  0.5742350000000  0.4940220000000  0.4305710000000 1.0
C      1  0.5344660000000  0.5525250000000  0.4544500000000 1.0
C      1  0.5454110000000  0.4510750000000  0.5360560000000 1.0
C      1  0.4360240000000  0.5274390000000  0.4777670000000 1.0
C      1  0.4951890000000  0.5242580000000  0.4758420000000 1.0
C      1  0.4943410000000  0.4884130000000  0.5489210000000 1.0
C      1  0.5476390000000  0.5303710000000  0.4473500000000 1.0
END
