TITL C-612601-4209-618 277.387782895331 125000 -1210.50121045467 0 0 195 (C1) n - 1
REM
REM in /home/nfs/bkarasulu/CARBON/AIRSS/Generating-Clusters/TERSOFF/Only-C1/FIRE-HFTN
REM
REM
REM
REM
REM
REM ./C.cell (11c1c37f851c82e70ff6c80c92926a4b)
REM AIRSS Version 0.9.1 bugfix July 2018 build 013d7b7c2542+ Fri, 06 Jul 2018 19:26:36 +0100
REM compiler GCC version 9.2.1 20190827 (Red Hat 9.2.1-1)
REM options -cpp -mtune=generic -march=x86-64 -g -O0 -fpre-include=/usr/include/finclude/math-vector-fortran.h
REM seed 1228989823 1260977096 574899193 914758337 -745316413 2009889497 -55998321 -1010441378 1137018674 -450613222 491789840 -1792547212 1804102897 281057326 173302540 -732381066 -1313414621 -2009295459 897149782 -1146695732 -1587086773 -679434850 -781418602 309089326 699945179 -1276973274 -1802259753 -512271514 513189658 -521898985 -1103125700 810569264 1056121155
REM
CELL 1.54180   50.00000   50.00000   50.00000   90.00000   90.00000   90.00000
LATT -1
SFAC C  
C      1  0.5304170000000  0.5341900000000  0.3961110000000 1.0
C      1  0.5295340000000  0.5245140000000  0.5615350000000 1.0
C      1  0.4991790000000  0.6041190000000  0.4645830000000 1.0
C      1  0.5754670000000  0.5084080000000  0.4813500000000 1.0
C      1  0.5721650000000  0.3887950000000  0.5273190000000 1.0
C      1  0.5562890000000  0.5478620000000  0.4680950000000 1.0
C      1  0.5377320000000  0.4556560000000  0.5839330000000 1.0
C      1  0.5780270000000  0.5621240000000  0.5045200000000 1.0
C      1  0.5955320000000  0.5151120000000  0.5442160000000 1.0
C      1  0.4326560000000  0.4628000000000  0.4487880000000 1.0
C      1  0.5767750000000  0.5018680000000  0.5604240000000 1.0
C      1  0.5244130000000  0.5583820000000  0.5316950000000 1.0
C      1  0.4554890000000  0.5472230000000  0.5920790000000 1.0
C      1  0.4600010000000  0.4650460000000  0.5034210000000 1.0
C      1  0.4290030000000  0.4088560000000  0.5888320000000 1.0
C      1  0.4728860000000  0.5644500000000  0.5208170000000 1.0
C      1  0.6212940000000  0.4576920000000  0.5473730000000 1.0
C      1  0.5141270000000  0.5626810000000  0.4835720000000 1.0
C      1  0.4051710000000  0.3841290000000  0.5235000000000 1.0
C      1  0.5293540000000  0.4147930000000  0.5060130000000 1.0
C      1  0.5138940000000  0.6003640000000  0.4084720000000 1.0
C      1  0.6241340000000  0.4663120000000  0.4973070000000 1.0
C      1  0.5551390000000  0.5433090000000  0.5982230000000 1.0
C      1  0.4818870000000  0.3955200000000  0.5721790000000 1.0
C      1  0.4376160000000  0.5554470000000  0.5696410000000 1.0
C      1  0.4861720000000  0.4543340000000  0.5500970000000 1.0
C      1  0.4088250000000  0.3855820000000  0.5500730000000 1.0
C      1  0.6142250000000  0.5269830000000  0.3751400000000 1.0
C      1  0.5068380000000  0.5646410000000  0.5532090000000 1.0
C      1  0.3942670000000  0.5633640000000  0.4907210000000 1.0
C      1  0.5499280000000  0.4608410000000  0.4530970000000 1.0
C      1  0.3914030000000  0.4562600000000  0.4298290000000 1.0
C      1  0.4466020000000  0.4843930000000  0.5472380000000 1.0
C      1  0.4819040000000  0.5105980000000  0.5254350000000 1.0
C      1  0.5593470000000  0.4763350000000  0.5197510000000 1.0
C      1  0.5304510000000  0.5550920000000  0.4621490000000 1.0
C      1  0.3610270000000  0.4979410000000  0.4392660000000 1.0
C      1  0.5457770000000  0.4764930000000  0.4295280000000 1.0
C      1  0.5056820000000  0.4998860000000  0.5142530000000 1.0
C      1  0.3474500000000  0.5176160000000  0.4259890000000 1.0
C      1  0.5609320000000  0.4227490000000  0.5576610000000 1.0
C      1  0.4140330000000  0.4770280000000  0.5078720000000 1.0
C      1  0.6158530000000  0.4801070000000  0.4731130000000 1.0
C      1  0.5076310000000  0.3980110000000  0.4564790000000 1.0
C      1  0.5240630000000  0.6144830000000  0.5293330000000 1.0
C      1  0.3642880000000  0.4991370000000  0.4676400000000 1.0
C      1  0.4284450000000  0.5428120000000  0.5165720000000 1.0
C      1  0.4803160000000  0.5673440000000  0.3842600000000 1.0
C      1  0.3948330000000  0.4559540000000  0.5051700000000 1.0
C      1  0.3491000000000  0.4624240000000  0.5246120000000 1.0
C      1  0.6006250000000  0.4985180000000  0.5219820000000 1.0
C      1  0.4295810000000  0.5936500000000  0.5072590000000 1.0
C      1  0.4749130000000  0.5367850000000  0.5188420000000 1.0
C      1  0.5186880000000  0.4815040000000  0.6187940000000 1.0
C      1  0.5030720000000  0.3731540000000  0.5020450000000 1.0
C      1  0.4424310000000  0.5113470000000  0.4511910000000 1.0
C      1  0.4173770000000  0.5678450000000  0.5060840000000 1.0
C      1  0.4932740000000  0.3779190000000  0.5281630000000 1.0
C      1  0.5427540000000  0.4976730000000  0.6187590000000 1.0
C      1  0.5260600000000  0.6102410000000  0.4580600000000 1.0
C      1  0.5393370000000  0.4230510000000  0.4814890000000 1.0
C      1  0.5721930000000  0.5988330000000  0.4656500000000 1.0
C      1  0.5319310000000  0.3850870000000  0.5622420000000 1.0
C      1  0.5785630000000  0.4906560000000  0.5057710000000 1.0
C      1  0.4647910000000  0.3846850000000  0.5282860000000 1.0
C      1  0.4944870000000  0.4960940000000  0.6193220000000 1.0
C      1  0.5851400000000  0.5491540000000  0.4060150000000 1.0
C      1  0.4944870000000  0.4405800000000  0.5956130000000 1.0
C      1  0.5350380000000  0.4065650000000  0.4586250000000 1.0
C      1  0.5302020000000  0.4670950000000  0.4084370000000 1.0
C      1  0.4364210000000  0.5055480000000  0.4034030000000 1.0
C      1  0.6196810000000  0.5295040000000  0.4900020000000 1.0
C      1  0.5364740000000  0.4768530000000  0.5648640000000 1.0
C      1  0.5233900000000  0.5203450000000  0.5065290000000 1.0
C      1  0.6026090000000  0.4811620000000  0.5913840000000 1.0
C      1  0.4550620000000  0.5188650000000  0.5977730000000 1.0
C      1  0.6093550000000  0.4230820000000  0.5151410000000 1.0
C      1  0.4398660000000  0.5835580000000  0.5655770000000 1.0
C      1  0.4498190000000  0.4431910000000  0.4614120000000 1.0
C      1  0.5141790000000  0.5478110000000  0.5066980000000 1.0
C      1  0.3743960000000  0.4533460000000  0.5243590000000 1.0
C      1  0.5182510000000  0.4990630000000  0.5662390000000 1.0
C      1  0.5196920000000  0.6775800000000  0.4952010000000 1.0
C      1  0.5449690000000  0.5046320000000  0.4349370000000 1.0
C      1  0.5813900000000  0.5003650000000  0.5885950000000 1.0
C      1  0.4745970000000  0.6246730000000  0.5135790000000 1.0
C      1  0.5253560000000  0.4823780000000  0.3838930000000 1.0
C      1  0.5681500000000  0.5362140000000  0.4929080000000 1.0
C      1  0.5015930000000  0.4511500000000  0.5277280000000 1.0
C      1  0.4731140000000  0.5812140000000  0.4984480000000 1.0
C      1  0.6016910000000  0.5428910000000  0.5391730000000 1.0
C      1  0.5695680000000  0.5792070000000  0.5258920000000 1.0
C      1  0.5262330000000  0.5513280000000  0.6002730000000 1.0
C      1  0.5130460000000  0.4724610000000  0.5130820000000 1.0
C      1  0.4960280000000  0.5831320000000  0.4826770000000 1.0
C      1  0.4921290000000  0.4606600000000  0.4605310000000 1.0
C      1  0.5174330000000  0.4562730000000  0.6040020000000 1.0
C      1  0.4745410000000  0.6081730000000  0.4500880000000 1.0
C      1  0.5430740000000  0.5047800000000  0.4638020000000 1.0
C      1  0.5214010000000  0.6123040000000  0.5582110000000 1.0
C      1  0.4381760000000  0.5228410000000  0.4261390000000 1.0
C      1  0.5443590000000  0.5374460000000  0.5404490000000 1.0
C      1  0.5027410000000  0.5580870000000  0.6153850000000 1.0
C      1  0.5538250000000  0.3970960000000  0.5469870000000 1.0
C      1  0.4647720000000  0.4436900000000  0.3858190000000 1.0
C      1  0.4884060000000  0.4166430000000  0.4445130000000 1.0
C      1  0.5710450000000  0.5582360000000  0.5771330000000 1.0
C      1  0.3869510000000  0.5121740000000  0.4794340000000 1.0
C      1  0.4555940000000  0.6057770000000  0.4978950000000 1.0
C      1  0.4824180000000  0.5923550000000  0.5868620000000 1.0
C      1  0.5571830000000  0.4065140000000  0.4410140000000 1.0
C      1  0.5317720000000  0.5270900000000  0.4224030000000 1.0
C      1  0.4393820000000  0.4739500000000  0.5212310000000 1.0
C      1  0.4356320000000  0.5221980000000  0.4960070000000 1.0
C      1  0.4931750000000  0.3847800000000  0.4780620000000 1.0
C      1  0.4277150000000  0.4884170000000  0.4613290000000 1.0
C      1  0.4702520000000  0.4898520000000  0.3755720000000 1.0
C      1  0.3722160000000  0.4762250000000  0.4253540000000 1.0
C      1  0.5586610000000  0.4823700000000  0.5481400000000 1.0
C      1  0.4581630000000  0.5196820000000  0.4745670000000 1.0
C      1  0.4138160000000  0.4993210000000  0.4871420000000 1.0
C      1  0.4781590000000  0.5667630000000  0.6020730000000 1.0
C      1  0.4585570000000  0.5152530000000  0.3844510000000 1.0
C      1  0.5113030000000  0.4257750000000  0.5220820000000 1.0
C      1  0.5370850000000  0.3871310000000  0.5905220000000 1.0
C      1  0.5470870000000  0.4965740000000  0.3731490000000 1.0
C      1  0.5818760000000  0.5639750000000  0.5498720000000 1.0
C      1  0.5801920000000  0.4201920000000  0.4371260000000 1.0
C      1  0.3914980000000  0.4424210000000  0.4804390000000 1.0
C      1  0.6059520000000  0.5084040000000  0.4742430000000 1.0
C      1  0.6194470000000  0.4491790000000  0.5199890000000 1.0
C      1  0.4506040000000  0.4541400000000  0.5839700000000 1.0
C      1  0.4497010000000  0.4267660000000  0.5950870000000 1.0
C      1  0.3363040000000  0.4779040000000  0.5068020000000 1.0
C      1  0.4655900000000  0.3956950000000  0.4796290000000 1.0
C      1  0.4230020000000  0.3866630000000  0.5035670000000 1.0
C      1  0.5070360000000  0.6065350000000  0.5809580000000 1.0
C      1  0.5176160000000  0.5446140000000  0.4398070000000 1.0
C      1  0.4693370000000  0.4580320000000  0.4778640000000 1.0
C      1  0.4665690000000  0.5623420000000  0.4346150000000 1.0
C      1  0.5082350000000  0.4491010000000  0.4132420000000 1.0
C      1  0.5975180000000  0.4403860000000  0.4413770000000 1.0
C      1  0.3434370000000  0.4906330000000  0.4844180000000 1.0
C      1  0.4303150000000  0.5412150000000  0.5455300000000 1.0
C      1  0.4889800000000  0.5699990000000  0.3582220000000 1.0
C      1  0.5934760000000  0.4015310000000  0.5166710000000 1.0
C      1  0.5890960000000  0.5294820000000  0.3859520000000 1.0
C      1  0.4820640000000  0.5753810000000  0.5449500000000 1.0
C      1  0.5503210000000  0.5252950000000  0.5154290000000 1.0
C      1  0.4864600000000  0.5126250000000  0.4721920000000 1.0
C      1  0.5476540000000  0.6060110000000  0.4784540000000 1.0
C      1  0.4803750000000  0.5061150000000  0.5973190000000 1.0
C      1  0.6157400000000  0.4663890000000  0.5724530000000 1.0
C      1  0.4509660000000  0.3894800000000  0.5033430000000 1.0
C      1  0.4339860000000  0.5002910000000  0.5912640000000 1.0
C      1  0.4369820000000  0.4773080000000  0.5739490000000 1.0
C      1  0.4920310000000  0.4501650000000  0.3894760000000 1.0
C      1  0.4787180000000  0.4555040000000  0.5766330000000 1.0
C      1  0.5465180000000  0.6020100000000  0.5131680000000 1.0
C      1  0.5160890000000  0.5469690000000  0.5737490000000 1.0
C      1  0.4308130000000  0.3927080000000  0.5658730000000 1.0
C      1  0.5129200000000  0.5049840000000  0.4679600000000 1.0
C      1  0.4665930000000  0.5913390000000  0.5628400000000 1.0
C      1  0.4307090000000  0.4771210000000  0.4018520000000 1.0
C      1  0.4899860000000  0.4999460000000  0.5710770000000 1.0
C      1  0.4190070000000  0.4618660000000  0.4232830000000 1.0
C      1  0.5687450000000  0.5121870000000  0.3764050000000 1.0
C      1  0.5292870000000  0.6093320000000  0.4293200000000 1.0
C      1  0.4537590000000  0.6149340000000  0.4687890000000 1.0
C      1  0.4618250000000  0.4163230000000  0.4587540000000 1.0
C      1  0.3844090000000  0.5402220000000  0.4817630000000 1.0
C      1  0.4635320000000  0.5440650000000  0.3912090000000 1.0
C      1  0.5617690000000  0.5145330000000  0.6047910000000 1.0
C      1  0.6085920000000  0.4626220000000  0.4517770000000 1.0
C      1  0.4880610000000  0.5885160000000  0.4040150000000 1.0
C      1  0.5862780000000  0.5684920000000  0.4245950000000 1.0
C      1  0.6179240000000  0.5435090000000  0.5141200000000 1.0
C      1  0.5112230000000  0.6556170000000  0.5063800000000 1.0
C      1  0.4503440000000  0.5472050000000  0.4176230000000 1.0
C      1  0.4977820000000  0.4429170000000  0.4385860000000 1.0
C      1  0.5836080000000  0.5857890000000  0.4449930000000 1.0
C      1  0.5473450000000  0.4103610000000  0.6007570000000 1.0
C      1  0.5028980000000  0.6307380000000  0.5166200000000 1.0
C      1  0.5527370000000  0.4320490000000  0.5828340000000 1.0
C      1  0.4499950000000  0.4677990000000  0.3824980000000 1.0
C      1  0.4972580000000  0.4776390000000  0.3769120000000 1.0
C      1  0.5043130000000  0.3847290000000  0.5546360000000 1.0
C      1  0.4573080000000  0.3902460000000  0.5555660000000 1.0
C      1  0.4716970000000  0.4990490000000  0.5487090000000 1.0
C      1  0.5442680000000  0.4510020000000  0.4790820000000 1.0
C      1  0.3877670000000  0.4410700000000  0.4538100000000 1.0
C      1  0.4902360000000  0.5484820000000  0.4401860000000 1.0
C      1  0.4786100000000  0.4151450000000  0.5941980000000 1.0
C      1  0.4712400000000  0.5899330000000  0.4281310000000 1.0
C      1  0.5390110000000  0.4662960000000  0.5030620000000 1.0
END
