TITL C-612602-9376-1439 0.0122420328279269 125000 -786.73315183598 0 0 129 (C1) n - 1
REM
REM in /home/nfs/bkarasulu/CARBON/AIRSS/Generating-Clusters/TERSOFF/Only-C1/FIRE-HFTN
REM
REM
REM
REM
REM
REM ./C.cell (11c1c37f851c82e70ff6c80c92926a4b)
REM AIRSS Version 0.9.1 bugfix July 2018 build 013d7b7c2542+ Fri, 06 Jul 2018 19:26:36 +0100
REM compiler GCC version 9.2.1 20190827 (Red Hat 9.2.1-1)
REM options -cpp -mtune=generic -march=x86-64 -g -O0 -fpre-include=/usr/include/finclude/math-vector-fortran.h
REM seed 958663177 1691498842 -774730924 250985616 570821594 9260625 1385974421 1673353619 -9662534 1820329913 -660248793 159003369 1075827194 705064978 -1045984954 2115027990 -830289015 154845881 1366899538 1827061636 975843837 1844276215 -1150797587 -293666102 -612635244 952417722 335928408 380494002 -496714109 -475807564 1034049096 710224553 476176046
REM
CELL 1.54180   50.00000   50.00000   50.00000   90.00000   90.00000   90.00000
LATT -1
SFAC C  
C      1  0.4877360000000  0.5354210000000  0.5576480000000 1.0
C      1  0.5077430000000  0.5518510000000  0.4937680000000 1.0
C      1  0.5489410000000  0.5286230000000  0.5946220000000 1.0
C      1  0.5165070000000  0.4397350000000  0.5155350000000 1.0
C      1  0.4496730000000  0.5656800000000  0.5532490000000 1.0
C      1  0.4950310000000  0.5161190000000  0.5379560000000 1.0
C      1  0.4280010000000  0.5234270000000  0.5036650000000 1.0
C      1  0.4731180000000  0.5064970000000  0.4660360000000 1.0
C      1  0.5707230000000  0.4487330000000  0.4795590000000 1.0
C      1  0.5397310000000  0.4463470000000  0.5331720000000 1.0
C      1  0.6079220000000  0.4874950000000  0.5033410000000 1.0
C      1  0.4334620000000  0.4509330000000  0.4873220000000 1.0
C      1  0.5148200000000  0.5290050000000  0.4794290000000 1.0
C      1  0.4124580000000  0.5073990000000  0.5454780000000 1.0
C      1  0.5368070000000  0.5568580000000  0.5362400000000 1.0
C      1  0.4327020000000  0.4575650000000  0.4381340000000 1.0
C      1  0.4967020000000  0.4732400000000  0.4298200000000 1.0
C      1  0.5986920000000  0.5255080000000  0.5348270000000 1.0
C      1  0.5056970000000  0.4250070000000  0.5616880000000 1.0
C      1  0.4333510000000  0.4976850000000  0.5617060000000 1.0
C      1  0.5094050000000  0.5949710000000  0.4440190000000 1.0
C      1  0.5499950000000  0.4421710000000  0.4321730000000 1.0
C      1  0.5370230000000  0.4789840000000  0.6162540000000 1.0
C      1  0.4866780000000  0.4408820000000  0.4686750000000 1.0
C      1  0.5556880000000  0.4724300000000  0.4784170000000 1.0
C      1  0.4909830000000  0.4870140000000  0.6055170000000 1.0
C      1  0.4550590000000  0.5278250000000  0.4647430000000 1.0
C      1  0.5778240000000  0.5165870000000  0.4335420000000 1.0
C      1  0.5871750000000  0.5263940000000  0.5609420000000 1.0
C      1  0.4532460000000  0.4706160000000  0.4922390000000 1.0
C      1  0.4288960000000  0.5201640000000  0.4751710000000 1.0
C      1  0.4956180000000  0.6157370000000  0.4880490000000 1.0
C      1  0.4610050000000  0.5412570000000  0.5661960000000 1.0
C      1  0.4768640000000  0.4648160000000  0.5340850000000 1.0
C      1  0.4714240000000  0.4168550000000  0.4695550000000 1.0
C      1  0.4143960000000  0.4981410000000  0.4623980000000 1.0
C      1  0.6126250000000  0.3603720000000  0.4946390000000 1.0
C      1  0.6007040000000  0.4537400000000  0.4371650000000 1.0
C      1  0.4879150000000  0.4443740000000  0.5758500000000 1.0
C      1  0.5408400000000  0.5995080000000  0.4796020000000 1.0
C      1  0.4097050000000  0.5748840000000  0.5273980000000 1.0
C      1  0.4078680000000  0.5249440000000  0.5236370000000 1.0
C      1  0.4250940000000  0.5644370000000  0.4386580000000 1.0
C      1  0.5641730000000  0.5055340000000  0.5072520000000 1.0
C      1  0.4759200000000  0.6110400000000  0.5105200000000 1.0
C      1  0.5516680000000  0.5230330000000  0.4196400000000 1.0
C      1  0.5474060000000  0.4423630000000  0.5826790000000 1.0
C      1  0.5490020000000  0.4585500000000  0.6038440000000 1.0
C      1  0.4989550000000  0.5062190000000  0.4758630000000 1.0
C      1  0.5238440000000  0.5627380000000  0.5136310000000 1.0
C      1  0.5063440000000  0.5511060000000  0.4150710000000 1.0
C      1  0.4271850000000  0.4452730000000  0.5555010000000 1.0
C      1  0.4411360000000  0.4679740000000  0.5691690000000 1.0
C      1  0.5682430000000  0.4561010000000  0.5292750000000 1.0
C      1  0.4871360000000  0.4424880000000  0.5218680000000 1.0
C      1  0.4616180000000  0.4818730000000  0.4684860000000 1.0
C      1  0.4605960000000  0.4250850000000  0.5176740000000 1.0
C      1  0.5869690000000  0.5059260000000  0.4596980000000 1.0
C      1  0.5201740000000  0.6151960000000  0.5262870000000 1.0
C      1  0.5311980000000  0.5109960000000  0.4371190000000 1.0
C      1  0.4235480000000  0.4450470000000  0.4617550000000 1.0
C      1  0.5349250000000  0.4203620000000  0.4743780000000 1.0
C      1  0.4946310000000  0.5742010000000  0.4289670000000 1.0
C      1  0.4328630000000  0.4349890000000  0.5291030000000 1.0
C      1  0.4374630000000  0.5819290000000  0.5306310000000 1.0
C      1  0.4422250000000  0.5945860000000  0.4776060000000 1.0
C      1  0.5402180000000  0.5585060000000  0.4471670000000 1.0
C      1  0.4652680000000  0.4820910000000  0.5159880000000 1.0
C      1  0.5796870000000  0.3999520000000  0.4841040000000 1.0
C      1  0.4793020000000  0.4563710000000  0.3874070000000 1.0
C      1  0.4707590000000  0.5725400000000  0.4450450000000 1.0
C      1  0.4933770000000  0.6135700000000  0.5336830000000 1.0
C      1  0.5781260000000  0.5299620000000  0.5152940000000 1.0
C      1  0.4647380000000  0.5534300000000  0.5113030000000 1.0
C      1  0.3970840000000  0.5509140000000  0.5268910000000 1.0
C      1  0.4900730000000  0.6098440000000  0.4611380000000 1.0
C      1  0.4723050000000  0.5084430000000  0.5216830000000 1.0
C      1  0.5235630000000  0.6132090000000  0.4975890000000 1.0
C      1  0.6153900000000  0.4675770000000  0.4553030000000 1.0
C      1  0.4405870000000  0.5496460000000  0.4212450000000 1.0
C      1  0.5808500000000  0.4799550000000  0.5165360000000 1.0
C      1  0.5323750000000  0.5324680000000  0.4587860000000 1.0
C      1  0.5338120000000  0.5851770000000  0.4558710000000 1.0
C      1  0.5399950000000  0.5314280000000  0.5480350000000 1.0
C      1  0.5063800000000  0.4588900000000  0.4554440000000 1.0
C      1  0.4155420000000  0.4472580000000  0.5089150000000 1.0
C      1  0.4932860000000  0.4581900000000  0.6001710000000 1.0
C      1  0.5292430000000  0.4386090000000  0.4514570000000 1.0
C      1  0.4992470000000  0.4031640000000  0.5411250000000 1.0
C      1  0.4538140000000  0.5282460000000  0.5147690000000 1.0
C      1  0.5763140000000  0.4465780000000  0.4281300000000 1.0
C      1  0.5314360000000  0.4771050000000  0.4936900000000 1.0
C      1  0.4227480000000  0.5791100000000  0.4620650000000 1.0
C      1  0.4501240000000  0.5973730000000  0.5070450000000 1.0
C      1  0.4771860000000  0.4576930000000  0.4147490000000 1.0
C      1  0.5102040000000  0.4802820000000  0.4764680000000 1.0
C      1  0.5254180000000  0.5249470000000  0.6099230000000 1.0
C      1  0.4428460000000  0.5022720000000  0.4199790000000 1.0
C      1  0.5631250000000  0.4216380000000  0.4797650000000 1.0
C      1  0.4640550000000  0.4972280000000  0.5996830000000 1.0
C      1  0.4980330000000  0.3992080000000  0.5099500000000 1.0
C      1  0.4810410000000  0.5586450000000  0.4897000000000 1.0
C      1  0.5123810000000  0.5459030000000  0.6215440000000 1.0
C      1  0.5872530000000  0.4382940000000  0.5395820000000 1.0
C      1  0.4699890000000  0.4608900000000  0.5605450000000 1.0
C      1  0.5360120000000  0.4967050000000  0.5147040000000 1.0
C      1  0.5189990000000  0.4164210000000  0.4977890000000 1.0
C      1  0.3962570000000  0.4838260000000  0.4803210000000 1.0
C      1  0.5231970000000  0.5112840000000  0.5352880000000 1.0
C      1  0.4270440000000  0.4861670000000  0.4376400000000 1.0
C      1  0.5329440000000  0.4358770000000  0.5596000000000 1.0
C      1  0.4509980000000  0.5159660000000  0.5783150000000 1.0
C      1  0.6181760000000  0.5076670000000  0.5225170000000 1.0
C      1  0.4889590000000  0.5256420000000  0.4161720000000 1.0
C      1  0.4598690000000  0.4174710000000  0.4426590000000 1.0
C      1  0.5163550000000  0.4982070000000  0.6125620000000 1.0
C      1  0.4453540000000  0.4734200000000  0.5991090000000 1.0
C      1  0.4640270000000  0.5981900000000  0.4579240000000 1.0
C      1  0.5052480000000  0.5017580000000  0.4259420000000 1.0
C      1  0.4711180000000  0.4058670000000  0.4971020000000 1.0
C      1  0.5378550000000  0.5504510000000  0.4176970000000 1.0
C      1  0.4581230000000  0.5264920000000  0.4164170000000 1.0
C      1  0.6088250000000  0.4896250000000  0.4723440000000 1.0
C      1  0.4683020000000  0.5525850000000  0.4647450000000 1.0
C      1  0.5657570000000  0.4995820000000  0.4774160000000 1.0
C      1  0.5962230000000  0.3799260000000  0.4893260000000 1.0
C      1  0.4558400000000  0.4432070000000  0.4280880000000 1.0
C      1  0.5595320000000  0.5280210000000  0.5686620000000 1.0
C      1  0.3947370000000  0.4661930000000  0.5017550000000 1.0
END
