TITL C-612604-1799-1219 0.00280467587746457 125000 -224.993958867639 0 0 38 (C1) n - 1
REM
REM in /home/nfs/bkarasulu/CARBON/AIRSS/Generating-Clusters/TERSOFF/Only-C1/FIRE-HFTN
REM
REM
REM
REM
REM
REM ./C.cell (11c1c37f851c82e70ff6c80c92926a4b)
REM AIRSS Version 0.9.1 bugfix July 2018 build 013d7b7c2542+ Fri, 06 Jul 2018 19:26:36 +0100
REM compiler GCC version 9.2.1 20190827 (Red Hat 9.2.1-1)
REM options -cpp -mtune=generic -march=x86-64 -g -O0 -fpre-include=/usr/include/finclude/math-vector-fortran.h
REM seed -150477154 233389862 -1163409785 -468311028 21981723 216911687 -1052392205 -1552085358 -819205155 -208483143 1730864006 -1769917570 1082394018 382588424 646131618 1149238396 1310447709 1606543332 -45743545 1051316257 606304141 1579375051 -684814314 -1312181123 2030763112 659961498 463210890 1370144316 -1415228749 -1520724417 1004068023 373160526 -42756109
REM
CELL 1.54180   50.00000   50.00000   50.00000   90.00000   90.00000   90.00000
LATT -1
SFAC C  
C      1  0.4728080000000  0.5272230000000  0.5255700000000 1.0
C      1  0.3651540000000  0.4797760000000  0.5159560000000 1.0
C      1  0.4959980000000  0.4637560000000  0.5126810000000 1.0
C      1  0.5484930000000  0.4626220000000  0.5176060000000 1.0
C      1  0.5517070000000  0.5461030000000  0.4894780000000 1.0
C      1  0.4254880000000  0.4980560000000  0.4793550000000 1.0
C      1  0.4806260000000  0.4580460000000  0.4899560000000 1.0
C      1  0.5449880000000  0.5222980000000  0.5311730000000 1.0
C      1  0.5894800000000  0.4951050000000  0.4778450000000 1.0
C      1  0.4600270000000  0.4728960000000  0.5439690000000 1.0
C      1  0.5692480000000  0.4812960000000  0.5192170000000 1.0
C      1  0.4506870000000  0.5311490000000  0.5112430000000 1.0
C      1  0.5397180000000  0.5375730000000  0.4430700000000 1.0
C      1  0.5228040000000  0.4564770000000  0.5149210000000 1.0
C      1  0.4454880000000  0.4864280000000  0.4627050000000 1.0
C      1  0.4920800000000  0.5083000000000  0.5332370000000 1.0
C      1  0.4937800000000  0.5260830000000  0.4213940000000 1.0
C      1  0.4106480000000  0.4709540000000  0.5284440000000 1.0
C      1  0.4002530000000  0.4855460000000  0.4829530000000 1.0
C      1  0.5912760000000  0.4798130000000  0.5012660000000 1.0
C      1  0.5566590000000  0.5336400000000  0.4648790000000 1.0
C      1  0.5502810000000  0.5466920000000  0.5174480000000 1.0
C      1  0.6130780000000  0.4643250000000  0.5067410000000 1.0
C      1  0.5833680000000  0.5078300000000  0.5578590000000 1.0
C      1  0.4337990000000  0.4693500000000  0.5413530000000 1.0
C      1  0.3916790000000  0.4785720000000  0.5092730000000 1.0
C      1  0.5998970000000  0.5117490000000  0.5776210000000 1.0
C      1  0.5768360000000  0.5142120000000  0.4643300000000 1.0
C      1  0.4328730000000  0.5204190000000  0.4946070000000 1.0
C      1  0.4616130000000  0.4659780000000  0.4731060000000 1.0
C      1  0.4841230000000  0.4809190000000  0.5321310000000 1.0
C      1  0.5185940000000  0.5156860000000  0.5376900000000 1.0
C      1  0.3844090000000  0.4801130000000  0.4612810000000 1.0
C      1  0.5539390000000  0.5699680000000  0.5313030000000 1.0
C      1  0.4532420000000  0.4991110000000  0.4390110000000 1.0
C      1  0.5661220000000  0.5038990000000  0.5362890000000 1.0
C      1  0.5180150000000  0.5346620000000  0.4280640000000 1.0
C      1  0.4707260000000  0.5133740000000  0.4249720000000 1.0
END
