TITL C-612601-4209-40 0.00276634549604687 125000 -669.900559797037 0 0 109 (C1) n - 1
REM
REM in /home/nfs/bkarasulu/CARBON/AIRSS/Generating-Clusters/TERSOFF/Only-C1/FIRE-HFTN
REM
REM
REM
REM
REM
REM ./C.cell (11c1c37f851c82e70ff6c80c92926a4b)
REM AIRSS Version 0.9.1 bugfix July 2018 build 013d7b7c2542+ Fri, 06 Jul 2018 19:26:36 +0100
REM compiler GCC version 9.2.1 20190827 (Red Hat 9.2.1-1)
REM options -cpp -mtune=generic -march=x86-64 -g -O0 -fpre-include=/usr/include/finclude/math-vector-fortran.h
REM seed -515293093 2117032581 -331845025 -800845585 2113919472 1604612559 630170675 -1671480129 1399968938 1249698494 -229508696 -1177617716 -896587357 1272811478 1675139001 2067670674 -1484505811 1872934294 279466494 -946791693 -612915350 -382653542 47851199 -1813853392 986788747 198033420 149303376 -1496940798 -320946274 -245567268 2058898512 788016133 -1282144963
REM
CELL 1.54180   50.00000   50.00000   50.00000   90.00000   90.00000   90.00000
LATT -1
SFAC C  
C      1  0.4673250000000  0.5079310000000  0.5394740000000 1.0
C      1  0.4970360000000  0.4117650000000  0.4643450000000 1.0
C      1  0.4427550000000  0.5680950000000  0.4915630000000 1.0
C      1  0.5305400000000  0.4551360000000  0.5964670000000 1.0
C      1  0.5725140000000  0.5446470000000  0.5142850000000 1.0
C      1  0.4954570000000  0.4981930000000  0.4486430000000 1.0
C      1  0.5216120000000  0.4381770000000  0.5772380000000 1.0
C      1  0.4712500000000  0.5201530000000  0.5141020000000 1.0
C      1  0.3961470000000  0.5429170000000  0.5320090000000 1.0
C      1  0.5159950000000  0.5448590000000  0.5591920000000 1.0
C      1  0.5061980000000  0.5590920000000  0.4489510000000 1.0
C      1  0.3977680000000  0.4735320000000  0.5263310000000 1.0
C      1  0.4155000000000  0.5543550000000  0.5465230000000 1.0
C      1  0.5399210000000  0.5854220000000  0.5399750000000 1.0
C      1  0.4820620000000  0.5490260000000  0.4603130000000 1.0
C      1  0.5403290000000  0.4996280000000  0.4757060000000 1.0
C      1  0.4067850000000  0.4553620000000  0.4785780000000 1.0
C      1  0.4476390000000  0.5117170000000  0.5585700000000 1.0
C      1  0.4314340000000  0.4890160000000  0.5641920000000 1.0
C      1  0.5451750000000  0.5039340000000  0.5451110000000 1.0
C      1  0.4455370000000  0.4716120000000  0.5824050000000 1.0
C      1  0.4433160000000  0.5261010000000  0.4264230000000 1.0
C      1  0.5139240000000  0.5438870000000  0.4253640000000 1.0
C      1  0.5738990000000  0.4985390000000  0.6122490000000 1.0
C      1  0.5860960000000  0.4868890000000  0.4562840000000 1.0
C      1  0.4635530000000  0.5547600000000  0.5634340000000 1.0
C      1  0.4677650000000  0.5676570000000  0.4762960000000 1.0
C      1  0.4705690000000  0.4240290000000  0.5240640000000 1.0
C      1  0.5111700000000  0.4929980000000  0.5725550000000 1.0
C      1  0.5435920000000  0.5243280000000  0.4590950000000 1.0
C      1  0.4658510000000  0.5145340000000  0.4121530000000 1.0
C      1  0.6188190000000  0.4324460000000  0.4688950000000 1.0
C      1  0.5460000000000  0.5433600000000  0.5242530000000 1.0
C      1  0.4799500000000  0.5201650000000  0.4598070000000 1.0
C      1  0.5532200000000  0.4779410000000  0.4207990000000 1.0
C      1  0.4976590000000  0.4330370000000  0.4823910000000 1.0
C      1  0.4336190000000  0.5182530000000  0.4525860000000 1.0
C      1  0.4913420000000  0.5616240000000  0.5562040000000 1.0
C      1  0.5920030000000  0.5341790000000  0.5319130000000 1.0
C      1  0.6077440000000  0.4320970000000  0.4444280000000 1.0
C      1  0.4487900000000  0.5751200000000  0.5194160000000 1.0
C      1  0.5140970000000  0.5847740000000  0.4919960000000 1.0
C      1  0.3878810000000  0.5322180000000  0.5089820000000 1.0
C      1  0.4948110000000  0.3846840000000  0.3947730000000 1.0
C      1  0.5481750000000  0.4884340000000  0.5213060000000 1.0
C      1  0.3918740000000  0.5241850000000  0.4838310000000 1.0
C      1  0.5152920000000  0.4561120000000  0.4013620000000 1.0
C      1  0.5720050000000  0.5532320000000  0.4875070000000 1.0
C      1  0.5770810000000  0.4716420000000  0.4342040000000 1.0
C      1  0.5255100000000  0.5685680000000  0.4699580000000 1.0
C      1  0.4184500000000  0.5721920000000  0.4799380000000 1.0
C      1  0.6022660000000  0.5329440000000  0.3798820000000 1.0
C      1  0.4563920000000  0.5305590000000  0.5782490000000 1.0
C      1  0.4095110000000  0.4815990000000  0.5487940000000 1.0
C      1  0.4076600000000  0.5198580000000  0.4627140000000 1.0
C      1  0.4379310000000  0.4198990000000  0.4836140000000 1.0
C      1  0.5205750000000  0.5157910000000  0.5579050000000 1.0
C      1  0.4859080000000  0.4719280000000  0.4535470000000 1.0
C      1  0.4549050000000  0.5108090000000  0.4701870000000 1.0
C      1  0.5322160000000  0.4829290000000  0.5908850000000 1.0
C      1  0.5070260000000  0.4308560000000  0.4011650000000 1.0
C      1  0.5224450000000  0.4757930000000  0.4839400000000 1.0
C      1  0.5670260000000  0.5045180000000  0.5639240000000 1.0
C      1  0.6179730000000  0.4483980000000  0.4904980000000 1.0
C      1  0.4536160000000  0.4465430000000  0.5713820000000 1.0
C      1  0.6052400000000  0.4710490000000  0.4974080000000 1.0
C      1  0.4576580000000  0.4881870000000  0.6027310000000 1.0
C      1  0.5197860000000  0.4422840000000  0.5255230000000 1.0
C      1  0.3965180000000  0.4654770000000  0.5009980000000 1.0
C      1  0.4964360000000  0.5309630000000  0.5085390000000 1.0
C      1  0.4997500000000  0.4057730000000  0.4114200000000 1.0
C      1  0.5862490000000  0.4874380000000  0.4847710000000 1.0
C      1  0.5424990000000  0.4222810000000  0.5253580000000 1.0
C      1  0.5082530000000  0.4992450000000  0.4228750000000 1.0
C      1  0.5259130000000  0.4790670000000  0.4136270000000 1.0
C      1  0.4848020000000  0.5864380000000  0.4909000000000 1.0
C      1  0.4940250000000  0.5840840000000  0.5369370000000 1.0
C      1  0.4661410000000  0.4753580000000  0.5095940000000 1.0
C      1  0.5228330000000  0.5342170000000  0.5106730000000 1.0
C      1  0.5910300000000  0.4474680000000  0.4300660000000 1.0
C      1  0.4953650000000  0.5237880000000  0.4124860000000 1.0
C      1  0.4637970000000  0.4662430000000  0.4360300000000 1.0
C      1  0.4735590000000  0.5889210000000  0.5178420000000 1.0
C      1  0.5023090000000  0.4591240000000  0.4721380000000 1.0
C      1  0.5896180000000  0.5183110000000  0.5539180000000 1.0
C      1  0.4428090000000  0.4503010000000  0.4455680000000 1.0
C      1  0.4619590000000  0.5170430000000  0.6030770000000 1.0
C      1  0.4280120000000  0.4407010000000  0.4674640000000 1.0
C      1  0.4623300000000  0.4313830000000  0.5505710000000 1.0
C      1  0.5291700000000  0.4683900000000  0.5118450000000 1.0
C      1  0.5816370000000  0.5331920000000  0.3958160000000 1.0
C      1  0.4621250000000  0.4848980000000  0.4137170000000 1.0
C      1  0.4972140000000  0.4736030000000  0.5555510000000 1.0
C      1  0.4507580000000  0.4143540000000  0.5063820000000 1.0
C      1  0.5110110000000  0.4486560000000  0.5532830000000 1.0
C      1  0.5401470000000  0.5316240000000  0.4308240000000 1.0
C      1  0.5619360000000  0.4962730000000  0.4963430000000 1.0
C      1  0.5189890000000  0.5902570000000  0.5214930000000 1.0
C      1  0.5609650000000  0.5323420000000  0.4123620000000 1.0
C      1  0.5483660000000  0.5506370000000  0.4720430000000 1.0
C      1  0.4421570000000  0.5634270000000  0.5445480000000 1.0
C      1  0.4589380000000  0.5003890000000  0.4957910000000 1.0
C      1  0.4810370000000  0.5431190000000  0.6461340000000 1.0
C      1  0.4976570000000  0.4029840000000  0.4392560000000 1.0
C      1  0.5397300000000  0.5582910000000  0.5480580000000 1.0
C      1  0.4773430000000  0.4809330000000  0.5364130000000 1.0
C      1  0.4956330000000  0.4307760000000  0.5109780000000 1.0
C      1  0.5585640000000  0.4954270000000  0.5898570000000 1.0
C      1  0.4712490000000  0.5303000000000  0.6256650000000 1.0
END
