TITL C-612601-4209-104 0.480051882126148 125000 -427.044596067 0 0 72 (C1) n - 1
REM
REM in /home/nfs/bkarasulu/CARBON/AIRSS/Generating-Clusters/TERSOFF/Only-C1/FIRE-HFTN
REM
REM
REM
REM
REM
REM ./C.cell (11c1c37f851c82e70ff6c80c92926a4b)
REM AIRSS Version 0.9.1 bugfix July 2018 build 013d7b7c2542+ Fri, 06 Jul 2018 19:26:36 +0100
REM compiler GCC version 9.2.1 20190827 (Red Hat 9.2.1-1)
REM options -cpp -mtune=generic -march=x86-64 -g -O0 -fpre-include=/usr/include/finclude/math-vector-fortran.h
REM seed 842568559 -1719157501 -1086397468 1390119439 697746957 1257652984 -536332316 -318849709 -332589104 149999945 2085742991 -1969877691 -1703902769 -1913556750 917957349 2099408647 771946742 1348851022 1583595117 339018044 877639694 -97629604 100042314 -609365355 -1019051187 743561151 -1811144250 -814999318 65310456 -1556882132 844431562 950893904 2046400597
REM
CELL 1.54180   50.00000   50.00000   50.00000   90.00000   90.00000   90.00000
LATT -1
SFAC C  
C      1  0.5701620000000  0.5687930000000  0.4577380000000 1.0
C      1  0.5295290000000  0.4506090000000  0.5449720000000 1.0
C      1  0.5223250000000  0.4733880000000  0.4909860000000 1.0
C      1  0.5605170000000  0.4420890000000  0.4896910000000 1.0
C      1  0.4855320000000  0.5905030000000  0.5211740000000 1.0
C      1  0.4098910000000  0.4991040000000  0.5198640000000 1.0
C      1  0.4368430000000  0.5015800000000  0.5133730000000 1.0
C      1  0.4257190000000  0.3859390000000  0.5041120000000 1.0
C      1  0.3414180000000  0.4316390000000  0.3159620000000 1.0
C      1  0.5783550000000  0.5029550000000  0.5646540000000 1.0
C      1  0.4994920000000  0.4931980000000  0.4960600000000 1.0
C      1  0.5683350000000  0.5179260000000  0.5877280000000 1.0
C      1  0.5631830000000  0.5599580000000  0.5181710000000 1.0
C      1  0.5690500000000  0.5358090000000  0.4989780000000 1.0
C      1  0.4361540000000  0.3933760000000  0.4799670000000 1.0
C      1  0.5513050000000  0.4688160000000  0.4838040000000 1.0
C      1  0.5350630000000  0.6053600000000  0.4651820000000 1.0
C      1  0.5630220000000  0.4774060000000  0.5669840000000 1.0
C      1  0.4344330000000  0.4834520000000  0.4678260000000 1.0
C      1  0.5937280000000  0.4967280000000  0.4915970000000 1.0
C      1  0.4632220000000  0.4287460000000  0.5009020000000 1.0
C      1  0.5144250000000  0.6091290000000  0.4815560000000 1.0
C      1  0.4210720000000  0.4769120000000  0.4459140000000 1.0
C      1  0.5725520000000  0.4862290000000  0.4744910000000 1.0
C      1  0.4851970000000  0.5337840000000  0.5934260000000 1.0
C      1  0.5274650000000  0.5476910000000  0.5758640000000 1.0
C      1  0.4991590000000  0.5182460000000  0.5105030000000 1.0
C      1  0.4514770000000  0.4197420000000  0.5253890000000 1.0
C      1  0.5554880000000  0.5909940000000  0.4558990000000 1.0
C      1  0.5451900000000  0.5170990000000  0.5054170000000 1.0
C      1  0.4542030000000  0.5177670000000  0.5281720000000 1.0
C      1  0.4803030000000  0.5277780000000  0.5295010000000 1.0
C      1  0.4484420000000  0.4873660000000  0.4916020000000 1.0
C      1  0.5779980000000  0.5073050000000  0.5364640000000 1.0
C      1  0.5514680000000  0.4973130000000  0.5259590000000 1.0
C      1  0.5094850000000  0.4485020000000  0.5019570000000 1.0
C      1  0.6072210000000  0.5429560000000  0.5245010000000 1.0
C      1  0.5520860000000  0.5403870000000  0.5833310000000 1.0
C      1  0.4746180000000  0.4775550000000  0.4947540000000 1.0
C      1  0.4564650000000  0.5853790000000  0.5594140000000 1.0
C      1  0.4865000000000  0.5488580000000  0.5477360000000 1.0
C      1  0.5702510000000  0.4948500000000  0.4477970000000 1.0
C      1  0.5221350000000  0.4429450000000  0.5712960000000 1.0
C      1  0.5186900000000  0.5388430000000  0.4486250000000 1.0
C      1  0.3283620000000  0.4241940000000  0.2946600000000 1.0
C      1  0.3845700000000  0.4962100000000  0.5253070000000 1.0
C      1  0.3812350000000  0.4543460000000  0.3809250000000 1.0
C      1  0.5894860000000  0.5640760000000  0.5297440000000 1.0
C      1  0.5159340000000  0.5444920000000  0.4745510000000 1.0
C      1  0.3546920000000  0.4392090000000  0.3376200000000 1.0
C      1  0.4763630000000  0.5750840000000  0.5426630000000 1.0
C      1  0.5496590000000  0.4257950000000  0.5085950000000 1.0
C      1  0.5333810000000  0.5248420000000  0.4312430000000 1.0
C      1  0.5326150000000  0.4531860000000  0.5942930000000 1.0
C      1  0.5743790000000  0.5466040000000  0.4720690000000 1.0
C      1  0.5927400000000  0.5193230000000  0.5122570000000 1.0
C      1  0.4379530000000  0.5940210000000  0.5755930000000 1.0
C      1  0.5589220000000  0.4978820000000  0.6068600000000 1.0
C      1  0.4334910000000  0.3992150000000  0.5267070000000 1.0
C      1  0.5458710000000  0.4742930000000  0.5435810000000 1.0
C      1  0.4811650000000  0.4499060000000  0.4992980000000 1.0
C      1  0.5525280000000  0.4730170000000  0.5938680000000 1.0
C      1  0.4541760000000  0.4138390000000  0.4782190000000 1.0
C      1  0.5542450000000  0.5081250000000  0.4310210000000 1.0
C      1  0.5340270000000  0.5600910000000  0.5182100000000 1.0
C      1  0.4998720000000  0.5435410000000  0.5723760000000 1.0
C      1  0.4077780000000  0.4694790000000  0.4242300000000 1.0
C      1  0.3679640000000  0.4467770000000  0.3592720000000 1.0
C      1  0.5213970000000  0.5365070000000  0.5028070000000 1.0
C      1  0.4973600000000  0.6032490000000  0.5010860000000 1.0
C      1  0.3945060000000  0.4619140000000  0.4025770000000 1.0
C      1  0.5261610000000  0.4357810000000  0.5210760000000 1.0
END
