TITL C-612600-6631-1092 0.000164321980328425 125000 -927.91805913356 0 0 148 (C1) n - 1
REM
REM in /home/nfs/bkarasulu/CARBON/AIRSS/Generating-Clusters/TERSOFF/Only-C1/FIRE-HFTN
REM
REM
REM
REM
REM
REM ./C.cell (11c1c37f851c82e70ff6c80c92926a4b)
REM AIRSS Version 0.9.1 bugfix July 2018 build 013d7b7c2542+ Fri, 06 Jul 2018 19:26:36 +0100
REM compiler GCC version 9.2.1 20190827 (Red Hat 9.2.1-1)
REM options -cpp -mtune=generic -march=x86-64 -g -O0 -fpre-include=/usr/include/finclude/math-vector-fortran.h
REM seed 447119527 -27967846 1577844161 1863582723 -1359912336 -154008935 1968441647 -728802327 -1521753983 -402014173 2000206738 -1366253634 -306808413 2055417090 1708611681 1607447202 1676298393 1267565036 -275723149 -749823089 -868427977 -2036781742 -1496390265 1892314615 958802649 1835703126 -1574251903 -106929213 -164564377 26114694 1046903671 -159374298 914750028
REM
CELL 1.54180   50.00000   50.00000   50.00000   90.00000   90.00000   90.00000
LATT -1
SFAC C  
C      1  0.4036130000000  0.4710900000000  0.4610140000000 1.0
C      1  0.4859340000000  0.5466230000000  0.5726930000000 1.0
C      1  0.5336570000000  0.4939830000000  0.4966260000000 1.0
C      1  0.4512550000000  0.4813250000000  0.4615700000000 1.0
C      1  0.4867140000000  0.4694110000000  0.4183570000000 1.0
C      1  0.5453280000000  0.5513070000000  0.5868160000000 1.0
C      1  0.4324770000000  0.5751270000000  0.4684350000000 1.0
C      1  0.4988610000000  0.4023690000000  0.4875600000000 1.0
C      1  0.4115730000000  0.5138350000000  0.4871560000000 1.0
C      1  0.5986660000000  0.4895790000000  0.4784950000000 1.0
C      1  0.4113770000000  0.5561220000000  0.4656260000000 1.0
C      1  0.5594210000000  0.5477140000000  0.5415650000000 1.0
C      1  0.4992540000000  0.4910030000000  0.4022110000000 1.0
C      1  0.5257970000000  0.5658380000000  0.4582230000000 1.0
C      1  0.5516790000000  0.4153310000000  0.6080560000000 1.0
C      1  0.5873440000000  0.5318600000000  0.4523960000000 1.0
C      1  0.5570510000000  0.4038740000000  0.5824450000000 1.0
C      1  0.4237050000000  0.4353420000000  0.4327570000000 1.0
C      1  0.4061480000000  0.5423400000000  0.4912900000000 1.0
C      1  0.4757190000000  0.6008380000000  0.5357030000000 1.0
C      1  0.4625750000000  0.5173830000000  0.5053600000000 1.0
C      1  0.4804350000000  0.4142710000000  0.5342590000000 1.0
C      1  0.5562190000000  0.5349310000000  0.5666210000000 1.0
C      1  0.4667560000000  0.5496580000000  0.4270670000000 1.0
C      1  0.5008870000000  0.5712610000000  0.5720000000000 1.0
C      1  0.4594870000000  0.6143310000000  0.4643310000000 1.0
C      1  0.4877900000000  0.4699490000000  0.5822280000000 1.0
C      1  0.5596050000000  0.5631190000000  0.4265340000000 1.0
C      1  0.5882390000000  0.4225640000000  0.5465670000000 1.0
C      1  0.5190430000000  0.3674950000000  0.5766450000000 1.0
C      1  0.5211710000000  0.5935120000000  0.4633150000000 1.0
C      1  0.4957210000000  0.3978280000000  0.5165950000000 1.0
C      1  0.5586060000000  0.5093810000000  0.4174560000000 1.0
C      1  0.4051280000000  0.4586050000000  0.4345720000000 1.0
C      1  0.4957720000000  0.4453080000000  0.5692630000000 1.0
C      1  0.5498910000000  0.4595350000000  0.4624650000000 1.0
C      1  0.4696970000000  0.4875390000000  0.5698210000000 1.0
C      1  0.5908010000000  0.5538120000000  0.4710800000000 1.0
C      1  0.5428950000000  0.4404750000000  0.6190460000000 1.0
C      1  0.4480590000000  0.5707500000000  0.4913290000000 1.0
C      1  0.4488710000000  0.5882210000000  0.5390090000000 1.0
C      1  0.5666670000000  0.5873830000000  0.4420340000000 1.0
C      1  0.5492440000000  0.4091030000000  0.4748380000000 1.0
C      1  0.5788310000000  0.5970100000000  0.4892370000000 1.0
C      1  0.5761990000000  0.4929180000000  0.5505400000000 1.0
C      1  0.4762070000000  0.4677950000000  0.4659160000000 1.0
C      1  0.5514370000000  0.5320820000000  0.5188300000000 1.0
C      1  0.5274680000000  0.5838930000000  0.5339140000000 1.0
C      1  0.5737820000000  0.4895370000000  0.4344150000000 1.0
C      1  0.5558300000000  0.5055350000000  0.5102710000000 1.0
C      1  0.4105390000000  0.5516490000000  0.5198690000000 1.0
C      1  0.5250150000000  0.5692570000000  0.5873790000000 1.0
C      1  0.5439300000000  0.6053420000000  0.4492300000000 1.0
C      1  0.5108120000000  0.5182110000000  0.4461760000000 1.0
C      1  0.4237830000000  0.5040990000000  0.5768260000000 1.0
C      1  0.4529320000000  0.4343310000000  0.4288450000000 1.0
C      1  0.4950910000000  0.4724480000000  0.4457990000000 1.0
C      1  0.5387070000000  0.4434440000000  0.5048410000000 1.0
C      1  0.5118690000000  0.3791880000000  0.5312420000000 1.0
C      1  0.5539700000000  0.5063500000000  0.5630900000000 1.0
C      1  0.5711950000000  0.5364380000000  0.4273760000000 1.0
C      1  0.4036930000000  0.4827170000000  0.5399930000000 1.0
C      1  0.4997390000000  0.5966540000000  0.4816780000000 1.0
C      1  0.5307230000000  0.4895910000000  0.4057160000000 1.0
C      1  0.4290500000000  0.4652460000000  0.4712840000000 1.0
C      1  0.5393840000000  0.3847980000000  0.5399580000000 1.0
C      1  0.5768500000000  0.5795620000000  0.5122870000000 1.0
C      1  0.4524500000000  0.5056880000000  0.4438920000000 1.0
C      1  0.5427830000000  0.3827640000000  0.5696900000000 1.0
C      1  0.4825830000000  0.4204390000000  0.4712200000000 1.0
C      1  0.5923560000000  0.4060780000000  0.5008840000000 1.0
C      1  0.5346580000000  0.4822560000000  0.4711700000000 1.0
C      1  0.4757820000000  0.4286050000000  0.5582790000000 1.0
C      1  0.5279790000000  0.4572400000000  0.6014100000000 1.0
C      1  0.4599970000000  0.4579130000000  0.4128950000000 1.0
C      1  0.5973740000000  0.4262080000000  0.5200660000000 1.0
C      1  0.4893350000000  0.5252520000000  0.4647950000000 1.0
C      1  0.4472530000000  0.4586850000000  0.5279230000000 1.0
C      1  0.4296600000000  0.4442140000000  0.4898150000000 1.0
C      1  0.4757700000000  0.5100730000000  0.4005540000000 1.0
C      1  0.5902700000000  0.5549280000000  0.5006850000000 1.0
C      1  0.5062420000000  0.5427550000000  0.3992160000000 1.0
C      1  0.5774800000000  0.4914500000000  0.5220730000000 1.0
C      1  0.4042330000000  0.5317160000000  0.5396620000000 1.0
C      1  0.5393220000000  0.4617400000000  0.4153290000000 1.0
C      1  0.5472060000000  0.4371930000000  0.4789750000000 1.0
C      1  0.5183710000000  0.5364050000000  0.4241870000000 1.0
C      1  0.3998930000000  0.4991840000000  0.4640500000000 1.0
C      1  0.5076450000000  0.4792880000000  0.6016840000000 1.0
C      1  0.5441570000000  0.4407140000000  0.5567570000000 1.0
C      1  0.4872000000000  0.5123150000000  0.4913140000000 1.0
C      1  0.5243670000000  0.3956590000000  0.4763870000000 1.0
C      1  0.4759400000000  0.4455040000000  0.4838300000000 1.0
C      1  0.4085130000000  0.5072050000000  0.5529070000000 1.0
C      1  0.5020470000000  0.4233350000000  0.4256150000000 1.0
C      1  0.4811700000000  0.5048690000000  0.5506170000000 1.0
C      1  0.4788030000000  0.6153500000000  0.4857150000000 1.0
C      1  0.4032780000000  0.5113240000000  0.4378420000000 1.0
C      1  0.4120090000000  0.4814380000000  0.4180630000000 1.0
C      1  0.5739900000000  0.3982510000000  0.4828260000000 1.0
C      1  0.4369410000000  0.5075250000000  0.4990120000000 1.0
C      1  0.4555550000000  0.4459790000000  0.5033110000000 1.0
C      1  0.5184100000000  0.5511250000000  0.3765100000000 1.0
C      1  0.4592960000000  0.5768310000000  0.4299950000000 1.0
C      1  0.4265350000000  0.5740600000000  0.5306390000000 1.0
C      1  0.5597140000000  0.4644990000000  0.4362600000000 1.0
C      1  0.4369340000000  0.4547190000000  0.5794590000000 1.0
C      1  0.5333240000000  0.5462010000000  0.5032100000000 1.0
C      1  0.5348990000000  0.5470750000000  0.4762200000000 1.0
C      1  0.4655950000000  0.5305300000000  0.4498190000000 1.0
C      1  0.4388460000000  0.4785010000000  0.4079930000000 1.0
C      1  0.5048130000000  0.5072310000000  0.6062420000000 1.0
C      1  0.4062180000000  0.5399040000000  0.4414780000000 1.0
C      1  0.4528310000000  0.5016930000000  0.4151770000000 1.0
C      1  0.4952150000000  0.5741290000000  0.4991670000000 1.0
C      1  0.4752980000000  0.5330750000000  0.5494500000000 1.0
C      1  0.5017650000000  0.3648630000000  0.5548570000000 1.0
C      1  0.5227890000000  0.4381170000000  0.4157400000000 1.0
C      1  0.5893120000000  0.5028480000000  0.4554190000000 1.0
C      1  0.4086580000000  0.4438800000000  0.5092620000000 1.0
C      1  0.5570090000000  0.5762720000000  0.5343000000000 1.0
C      1  0.4758120000000  0.6218050000000  0.5142710000000 1.0
C      1  0.5486210000000  0.4477080000000  0.6447240000000 1.0
C      1  0.4703230000000  0.5628940000000  0.5059150000000 1.0
C      1  0.5077860000000  0.4998340000000  0.5079040000000 1.0
C      1  0.4789170000000  0.5382120000000  0.4030320000000 1.0
C      1  0.5055580000000  0.4982070000000  0.5369580000000 1.0
C      1  0.4199190000000  0.5378730000000  0.6185420000000 1.0
C      1  0.6037460000000  0.4522050000000  0.5110860000000 1.0
C      1  0.5284700000000  0.4974520000000  0.5538580000000 1.0
C      1  0.4178070000000  0.4605590000000  0.5309510000000 1.0
C      1  0.4731500000000  0.6481750000000  0.5217800000000 1.0
C      1  0.5397960000000  0.4478660000000  0.5305900000000 1.0
C      1  0.4775830000000  0.4214210000000  0.4416410000000 1.0
C      1  0.5017230000000  0.5896390000000  0.5491440000000 1.0
C      1  0.4670390000000  0.5401700000000  0.5229380000000 1.0
C      1  0.4471190000000  0.5919530000000  0.4506520000000 1.0
C      1  0.4425800000000  0.4826780000000  0.5767460000000 1.0
C      1  0.5160030000000  0.4907920000000  0.4518530000000 1.0
C      1  0.4928570000000  0.5291340000000  0.5951540000000 1.0
C      1  0.4501330000000  0.4325980000000  0.5704200000000 1.0
C      1  0.5837180000000  0.5822240000000  0.4643210000000 1.0
C      1  0.5174340000000  0.5662030000000  0.5134630000000 1.0
C      1  0.5235660000000  0.4444140000000  0.5753040000000 1.0
C      1  0.4207910000000  0.5209930000000  0.5987080000000 1.0
C      1  0.5657970000000  0.4234890000000  0.5633240000000 1.0
C      1  0.5322110000000  0.5588260000000  0.4324130000000 1.0
C      1  0.5953020000000  0.4781650000000  0.5043250000000 1.0
END
