TITL C-612602-9376-875 7.81786628273044e-06 125000 -108.956944165465 0 0 19 (C1) n - 1
REM
REM in /home/nfs/bkarasulu/CARBON/AIRSS/Generating-Clusters/TERSOFF/Only-C1/FIRE-HFTN
REM
REM
REM
REM
REM
REM ./C.cell (11c1c37f851c82e70ff6c80c92926a4b)
REM AIRSS Version 0.9.1 bugfix July 2018 build 013d7b7c2542+ Fri, 06 Jul 2018 19:26:36 +0100
REM compiler GCC version 9.2.1 20190827 (Red Hat 9.2.1-1)
REM options -cpp -mtune=generic -march=x86-64 -g -O0 -fpre-include=/usr/include/finclude/math-vector-fortran.h
REM seed 373974953 -1335986125 1245883961 277242079 -1145033043 209874927 946954792 1223234525 -1979048781 -738632041 -789191728 -282493615 1706778492 1362835391 486808165 -550154523 -2048322439 96891126 -426190250 1167829282 1745043065 989800112 1390784467 -482051415 -30036333 -1168262181 -55094481 535620990 -988146348 1535998441 1140437731 874379826 19647262
REM
CELL 1.54180   50.00000   50.00000   50.00000   90.00000   90.00000   90.00000
LATT -1
SFAC C  
C      1  0.4931760000000  0.4850870000000  0.4803650000000 1.0
C      1  0.5475730000000  0.5208300000000  0.4469910000000 1.0
C      1  0.5187310000000  0.5269890000000  0.5443490000000 1.0
C      1  0.4779750000000  0.4798740000000  0.5032020000000 1.0
C      1  0.5155190000000  0.4893340000000  0.4351110000000 1.0
C      1  0.4944690000000  0.4402590000000  0.5265290000000 1.0
C      1  0.5008800000000  0.4718900000000  0.4204270000000 1.0
C      1  0.5323120000000  0.5319060000000  0.5219470000000 1.0
C      1  0.4974670000000  0.4841420000000  0.5470600000000 1.0
C      1  0.5326110000000  0.5159140000000  0.4711940000000 1.0
C      1  0.5377240000000  0.5055170000000  0.4262220000000 1.0
C      1  0.4410310000000  0.5089230000000  0.5243130000000 1.0
C      1  0.4528910000000  0.4920640000000  0.5071340000000 1.0
C      1  0.5123590000000  0.4959690000000  0.4634930000000 1.0
C      1  0.4902310000000  0.4672040000000  0.5257550000000 1.0
C      1  0.4723620000000  0.5232000000000  0.5594670000000 1.0
C      1  0.4974200000000  0.5115310000000  0.5539070000000 1.0
C      1  0.4488360000000  0.5220480000000  0.5464370000000 1.0
C      1  0.5364350000000  0.5273200000000  0.4960970000000 1.0
END
