TITL C-612604-1799-843 0.115104262106044 125000 -542.391578374432 0 0 90 (C1) n - 1
REM
REM in /home/nfs/bkarasulu/CARBON/AIRSS/Generating-Clusters/TERSOFF/Only-C1/FIRE-HFTN
REM
REM
REM
REM
REM
REM ./C.cell (11c1c37f851c82e70ff6c80c92926a4b)
REM AIRSS Version 0.9.1 bugfix July 2018 build 013d7b7c2542+ Fri, 06 Jul 2018 19:26:36 +0100
REM compiler GCC version 9.2.1 20190827 (Red Hat 9.2.1-1)
REM options -cpp -mtune=generic -march=x86-64 -g -O0 -fpre-include=/usr/include/finclude/math-vector-fortran.h
REM seed 184723760 1928959864 435705037 1588079824 -1284561517 -431916615 -54967252 609175194 1031598517 -834851228 -1420537654 969743535 1928539874 1761768391 1169546955 -786674476 35807592 -518403568 -1957854773 1875648070 -1198562295 -110972887 1133363168 -1151667501 1455245285 514855545 -1635962164 -1909578749 -764596984 1226521220 1850828248 181715398 1201552774
REM
CELL 1.54180   50.00000   50.00000   50.00000   90.00000   90.00000   90.00000
LATT -1
SFAC C  
C      1  0.5450240000000  0.4299790000000  0.4480040000000 1.0
C      1  0.5778080000000  0.5048860000000  0.5372650000000 1.0
C      1  0.5506510000000  0.5754030000000  0.4995850000000 1.0
C      1  0.5411870000000  0.4584300000000  0.4488280000000 1.0
C      1  0.5808050000000  0.4860910000000  0.4648310000000 1.0
C      1  0.5035170000000  0.4649130000000  0.5872380000000 1.0
C      1  0.4985270000000  0.3955950000000  0.4747690000000 1.0
C      1  0.4684060000000  0.5206560000000  0.5837890000000 1.0
C      1  0.5734730000000  0.4814010000000  0.4924960000000 1.0
C      1  0.4202960000000  0.4374080000000  0.5226110000000 1.0
C      1  0.5542690000000  0.5509940000000  0.5491610000000 1.0
C      1  0.4976210000000  0.5934820000000  0.5182370000000 1.0
C      1  0.5692090000000  0.5270850000000  0.4954740000000 1.0
C      1  0.4864690000000  0.5385010000000  0.4784290000000 1.0
C      1  0.5401830000000  0.5120760000000  0.5769550000000 1.0
C      1  0.5646210000000  0.4736830000000  0.4455660000000 1.0
C      1  0.3810930000000  0.4230940000000  0.5567980000000 1.0
C      1  0.5426840000000  0.4177850000000  0.5382660000000 1.0
C      1  0.4866550000000  0.5098870000000  0.4686430000000 1.0
C      1  0.5091300000000  0.5488360000000  0.5312260000000 1.0
C      1  0.5658760000000  0.4223360000000  0.4962350000000 1.0
C      1  0.5648900000000  0.4302240000000  0.5250290000000 1.0
C      1  0.5460700000000  0.5723730000000  0.5282760000000 1.0
C      1  0.4280080000000  0.4646130000000  0.5205650000000 1.0
C      1  0.5074750000000  0.5581320000000  0.4742340000000 1.0
C      1  0.4155950000000  0.4829880000000  0.5021120000000 1.0
C      1  0.5199730000000  0.5277720000000  0.5139680000000 1.0
C      1  0.4169570000000  0.5894260000000  0.4567940000000 1.0
C      1  0.5671780000000  0.4808680000000  0.5498510000000 1.0
C      1  0.4501460000000  0.4038920000000  0.4916980000000 1.0
C      1  0.5092600000000  0.4184160000000  0.4140640000000 1.0
C      1  0.5116560000000  0.4978870000000  0.4621380000000 1.0
C      1  0.5045090000000  0.5048690000000  0.5186340000000 1.0
C      1  0.4334270000000  0.4182000000000  0.5067340000000 1.0
C      1  0.4227300000000  0.5104650000000  0.5062810000000 1.0
C      1  0.4632950000000  0.4903560000000  0.5477730000000 1.0
C      1  0.5760650000000  0.5320120000000  0.5468240000000 1.0
C      1  0.5733280000000  0.4545910000000  0.5386740000000 1.0
C      1  0.4788900000000  0.5420400000000  0.5682030000000 1.0
C      1  0.4187830000000  0.4748980000000  0.4746030000000 1.0
C      1  0.5332000000000  0.4170200000000  0.4260100000000 1.0
C      1  0.5176460000000  0.4213720000000  0.5283190000000 1.0
C      1  0.5060350000000  0.5425220000000  0.5593180000000 1.0
C      1  0.6350060000000  0.5122450000000  0.4228540000000 1.0
C      1  0.3572750000000  0.6081780000000  0.4077290000000 1.0
C      1  0.5948380000000  0.5103550000000  0.4586970000000 1.0
C      1  0.4532750000000  0.4627510000000  0.4400290000000 1.0
C      1  0.5025970000000  0.4757440000000  0.5121210000000 1.0
C      1  0.5498590000000  0.4671970000000  0.4989250000000 1.0
C      1  0.5440620000000  0.4856560000000  0.5667300000000 1.0
C      1  0.5945610000000  0.5592920000000  0.4669310000000 1.0
C      1  0.4721890000000  0.3947880000000  0.4797070000000 1.0
C      1  0.5861300000000  0.5336200000000  0.4732960000000 1.0
C      1  0.3970660000000  0.5956790000000  0.4404410000000 1.0
C      1  0.4254600000000  0.5286370000000  0.5281880000000 1.0
C      1  0.5201190000000  0.4115530000000  0.4822970000000 1.0
C      1  0.4544720000000  0.4726630000000  0.5269960000000 1.0
C      1  0.5140650000000  0.4313650000000  0.5018500000000 1.0
C      1  0.5335300000000  0.5381250000000  0.5672520000000 1.0
C      1  0.3771730000000  0.6019280000000  0.4240870000000 1.0
C      1  0.4568340000000  0.5743370000000  0.4903690000000 1.0
C      1  0.5325210000000  0.5158990000000  0.4680110000000 1.0
C      1  0.6040420000000  0.5824460000000  0.4596340000000 1.0
C      1  0.4851460000000  0.4298070000000  0.4143900000000 1.0
C      1  0.4604740000000  0.5443340000000  0.4965570000000 1.0
C      1  0.5208360000000  0.4690110000000  0.5653310000000 1.0
C      1  0.4751290000000  0.5917730000000  0.5034900000000 1.0
C      1  0.4599110000000  0.5566380000000  0.5518110000000 1.0
C      1  0.5205400000000  0.4605830000000  0.4938250000000 1.0
C      1  0.5168370000000  0.5759430000000  0.5285500000000 1.0
C      1  0.4726650000000  0.4749860000000  0.5036640000000 1.0
C      1  0.4634150000000  0.4937840000000  0.4795380000000 1.0
C      1  0.4367410000000  0.5829430000000  0.4731650000000 1.0
C      1  0.5310700000000  0.5709050000000  0.4803040000000 1.0
C      1  0.5785210000000  0.5037780000000  0.5092530000000 1.0
C      1  0.4643860000000  0.4933610000000  0.5761720000000 1.0
C      1  0.5405950000000  0.5265870000000  0.4931770000000 1.0
C      1  0.5191560000000  0.4699180000000  0.4644320000000 1.0
C      1  0.4663010000000  0.4459030000000  0.4241090000000 1.0
C      1  0.3377040000000  0.6143250000000  0.3916400000000 1.0
C      1  0.5472750000000  0.4169050000000  0.4736950000000 1.0
C      1  0.4782140000000  0.4736390000000  0.5908730000000 1.0
C      1  0.4000420000000  0.4298090000000  0.5402140000000 1.0
C      1  0.4497010000000  0.5450460000000  0.5278290000000 1.0
C      1  0.4818130000000  0.5084950000000  0.5355500000000 1.0
C      1  0.4453050000000  0.5177820000000  0.4890580000000 1.0
C      1  0.5093630000000  0.4644360000000  0.5399210000000 1.0
C      1  0.4509030000000  0.5810990000000  0.5603110000000 1.0
C      1  0.4446290000000  0.4771840000000  0.4622440000000 1.0
C      1  0.6156310000000  0.5111130000000  0.4402440000000 1.0
END
