TITL C-612605-9286-250 103.517710942597 125000 -906.284457835766 0 0 147 (C1) n - 1
REM
REM in /home/nfs/bkarasulu/CARBON/AIRSS/Generating-Clusters/TERSOFF/Only-C1/FIRE-HFTN
REM
REM
REM
REM
REM
REM ./C.cell (11c1c37f851c82e70ff6c80c92926a4b)
REM AIRSS Version 0.9.1 bugfix July 2018 build 013d7b7c2542+ Fri, 06 Jul 2018 19:26:36 +0100
REM compiler GCC version 9.2.1 20190827 (Red Hat 9.2.1-1)
REM options -cpp -mtune=generic -march=x86-64 -g -O0 -fpre-include=/usr/include/finclude/math-vector-fortran.h
REM seed -999816881 -1627915595 1484188121 1852085492 78442190 1881878838 1695321702 -613079878 -118260971 -1628507060 -1869955486 1420439824 -317719181 -984091119 830857511 -1384713257 -2000111583 -209546612 1788846171 -1887907850 -216425014 -1456253580 73620444 1390024441 1882768197 -864101134 1076098754 1206284707 -114013465 14370647 -1587441554 -1886887542 1013255941
REM
CELL 1.54180   50.00000   50.00000   50.00000   90.00000   90.00000   90.00000
LATT -1
SFAC C  
C      1  0.4581220000000  0.4210680000000  0.4800110000000 1.0
C      1  0.5653860000000  0.5149820000000  0.4652290000000 1.0
C      1  0.4493140000000  0.4327510000000  0.4573250000000 1.0
C      1  0.4795860000000  0.3880860000000  0.5463080000000 1.0
C      1  0.6064000000000  0.5045100000000  0.4031800000000 1.0
C      1  0.6095860000000  0.4462860000000  0.4774750000000 1.0
C      1  0.5621330000000  0.5631600000000  0.5237750000000 1.0
C      1  0.5818960000000  0.5192970000000  0.4422720000000 1.0
C      1  0.5777760000000  0.5799460000000  0.5064290000000 1.0
C      1  0.5422690000000  0.4666200000000  0.5264140000000 1.0
C      1  0.5490520000000  0.5380310000000  0.5093790000000 1.0
C      1  0.4251180000000  0.5662050000000  0.4992880000000 1.0
C      1  0.4549060000000  0.5218080000000  0.4267360000000 1.0
C      1  0.5260380000000  0.4191970000000  0.5697830000000 1.0
C      1  0.4349760000000  0.5615190000000  0.4444170000000 1.0
C      1  0.5611440000000  0.5291810000000  0.5591030000000 1.0
C      1  0.4627610000000  0.5715070000000  0.4358040000000 1.0
C      1  0.5184050000000  0.5146210000000  0.5496350000000 1.0
C      1  0.4361310000000  0.5639720000000  0.4736110000000 1.0
C      1  0.5757530000000  0.4279850000000  0.5124670000000 1.0
C      1  0.4963400000000  0.5774410000000  0.5240160000000 1.0
C      1  0.5410400000000  0.5015430000000  0.4625810000000 1.0
C      1  0.5209930000000  0.4801680000000  0.5088050000000 1.0
C      1  0.4650730000000  0.4851840000000  0.3995390000000 1.0
C      1  0.5026880000000  0.4544780000000  0.5062540000000 1.0
C      1  0.5146220000000  0.5574830000000  0.4128170000000 1.0
C      1  0.4858250000000  0.5338910000000  0.6113170000000 1.0
C      1  0.5188310000000  0.6069460000000  0.4758490000000 1.0
C      1  0.4351650000000  0.4059010000000  0.5280560000000 1.0
C      1  0.4342150000000  0.4978110000000  0.4935070000000 1.0
C      1  0.4582470000000  0.5507890000000  0.5314990000000 1.0
C      1  0.5405270000000  0.6121890000000  0.4951400000000 1.0
C      1  0.4755450000000  0.4161820000000  0.5051320000000 1.0
C      1  0.4726280000000  0.4917400000000  0.5245140000000 1.0
C      1  0.5331250000000  0.4812860000000  0.4801860000000 1.0
C      1  0.4190960000000  0.5176120000000  0.5107960000000 1.0
C      1  0.4763560000000  0.4788730000000  0.4698550000000 1.0
C      1  0.4492850000000  0.5049240000000  0.5659810000000 1.0
C      1  0.4794980000000  0.5973500000000  0.5100210000000 1.0
C      1  0.5097480000000  0.5532640000000  0.4607870000000 1.0
C      1  0.5341440000000  0.3851070000000  0.4640020000000 1.0
C      1  0.5733430000000  0.4166530000000  0.4621060000000 1.0
C      1  0.5075390000000  0.3808770000000  0.5440020000000 1.0
C      1  0.4697570000000  0.5686190000000  0.4080140000000 1.0
C      1  0.5428700000000  0.5213650000000  0.5371510000000 1.0
C      1  0.5309200000000  0.3948790000000  0.5540670000000 1.0
C      1  0.4224170000000  0.5441530000000  0.5738080000000 1.0
C      1  0.4860820000000  0.5618970000000  0.6032140000000 1.0
C      1  0.5913550000000  0.4710210000000  0.4339490000000 1.0
C      1  0.5713270000000  0.5272470000000  0.4903960000000 1.0
C      1  0.4812750000000  0.5668420000000  0.4598830000000 1.0
C      1  0.4965900000000  0.4244190000000  0.4177850000000 1.0
C      1  0.5110040000000  0.5211340000000  0.6105400000000 1.0
C      1  0.6087130000000  0.4602270000000  0.4532160000000 1.0
C      1  0.4979020000000  0.5018370000000  0.5115300000000 1.0
C      1  0.4941260000000  0.4588370000000  0.4782920000000 1.0
C      1  0.5330950000000  0.5928460000000  0.4525550000000 1.0
C      1  0.3867780000000  0.4803850000000  0.4245030000000 1.0
C      1  0.4898940000000  0.4467550000000  0.5530140000000 1.0
C      1  0.5692640000000  0.4549550000000  0.4260910000000 1.0
C      1  0.4409560000000  0.4847210000000  0.5853700000000 1.0
C      1  0.4884630000000  0.5467660000000  0.4019120000000 1.0
C      1  0.4162200000000  0.4759050000000  0.5414300000000 1.0
C      1  0.5675640000000  0.4855250000000  0.5865020000000 1.0
C      1  0.4193600000000  0.4701870000000  0.4591650000000 1.0
C      1  0.5520960000000  0.5760480000000  0.5702340000000 1.0
C      1  0.5624180000000  0.4584890000000  0.5870200000000 1.0
C      1  0.4525370000000  0.5966910000000  0.5225810000000 1.0
C      1  0.3931080000000  0.5282600000000  0.4678950000000 1.0
C      1  0.4690660000000  0.5159190000000  0.4021720000000 1.0
C      1  0.4579040000000  0.4724970000000  0.4263370000000 1.0
C      1  0.5947280000000  0.4427140000000  0.5309890000000 1.0
C      1  0.5006950000000  0.5307200000000  0.5078360000000 1.0
C      1  0.5649580000000  0.5980990000000  0.4890670000000 1.0
C      1  0.4576140000000  0.5851460000000  0.5716460000000 1.0
C      1  0.5243880000000  0.5813950000000  0.5710170000000 1.0
C      1  0.5557300000000  0.3899680000000  0.5420530000000 1.0
C      1  0.5361790000000  0.5191930000000  0.6010310000000 1.0
C      1  0.5002550000000  0.4482660000000  0.4015780000000 1.0
C      1  0.4084910000000  0.5178510000000  0.4464290000000 1.0
C      1  0.4231520000000  0.4294940000000  0.5218740000000 1.0
C      1  0.5212720000000  0.5065850000000  0.4426870000000 1.0
C      1  0.4724090000000  0.5012990000000  0.5516410000000 1.0
C      1  0.5605460000000  0.4353430000000  0.4448330000000 1.0
C      1  0.5722320000000  0.4004440000000  0.5237560000000 1.0
C      1  0.4653830000000  0.5251970000000  0.4729410000000 1.0
C      1  0.4986450000000  0.4095430000000  0.4407790000000 1.0
C      1  0.5201050000000  0.4664930000000  0.4118950000000 1.0
C      1  0.4414740000000  0.5466130000000  0.5961390000000 1.0
C      1  0.4280550000000  0.4588800000000  0.5176680000000 1.0
C      1  0.4401110000000  0.4563680000000  0.4440260000000 1.0
C      1  0.5215680000000  0.5417120000000  0.4929210000000 1.0
C      1  0.3947140000000  0.5246970000000  0.4946270000000 1.0
C      1  0.4047850000000  0.4894320000000  0.4431540000000 1.0
C      1  0.4784910000000  0.4036720000000  0.5704640000000 1.0
C      1  0.4246110000000  0.5895320000000  0.5161100000000 1.0
C      1  0.6266080000000  0.4541700000000  0.4985700000000 1.0
C      1  0.6186410000000  0.4534290000000  0.5243930000000 1.0
C      1  0.6008490000000  0.5656840000000  0.4978430000000 1.0
C      1  0.4085350000000  0.5844970000000  0.5401750000000 1.0
C      1  0.4477690000000  0.4976130000000  0.6099590000000 1.0
C      1  0.4969460000000  0.4250840000000  0.5702550000000 1.0
C      1  0.4755840000000  0.5230960000000  0.4466960000000 1.0
C      1  0.5972920000000  0.5390600000000  0.4932870000000 1.0
C      1  0.5064330000000  0.4697230000000  0.5584230000000 1.0
C      1  0.5095750000000  0.3994250000000  0.4659330000000 1.0
C      1  0.4598820000000  0.5849980000000  0.3885040000000 1.0
C      1  0.5932350000000  0.4982970000000  0.4264730000000 1.0
C      1  0.5121130000000  0.5851420000000  0.5459100000000 1.0
C      1  0.4856540000000  0.5501500000000  0.5222800000000 1.0
C      1  0.4801920000000  0.4635110000000  0.3869060000000 1.0
C      1  0.5231280000000  0.5694850000000  0.4387850000000 1.0
C      1  0.5435380000000  0.4432740000000  0.5713800000000 1.0
C      1  0.4564950000000  0.5775030000000  0.5450270000000 1.0
C      1  0.4801210000000  0.4433620000000  0.5229190000000 1.0
C      1  0.5878020000000  0.4281800000000  0.4839510000000 1.0
C      1  0.5081800000000  0.4845990000000  0.4304380000000 1.0
C      1  0.5035080000000  0.5275260000000  0.4470050000000 1.0
C      1  0.4925800000000  0.6081460000000  0.4870750000000 1.0
C      1  0.5603540000000  0.3915840000000  0.4636220000000 1.0
C      1  0.4137360000000  0.5051730000000  0.5375220000000 1.0
C      1  0.5481820000000  0.4408170000000  0.5131080000000 1.0
C      1  0.4261740000000  0.5202320000000  0.5587350000000 1.0
C      1  0.5613200000000  0.5927100000000  0.4606200000000 1.0
C      1  0.4299230000000  0.5338600000000  0.4349780000000 1.0
C      1  0.4598790000000  0.5692230000000  0.5943000000000 1.0
C      1  0.5862990000000  0.5452380000000  0.4342220000000 1.0
C      1  0.4091110000000  0.5663730000000  0.5608970000000 1.0
C      1  0.4347640000000  0.5434930000000  0.5156410000000 1.0
C      1  0.5647860000000  0.5577660000000  0.5528560000000 1.0
C      1  0.4575060000000  0.5247310000000  0.6098890000000 1.0
C      1  0.4814600000000  0.4793450000000  0.4414840000000 1.0
C      1  0.5040320000000  0.4099620000000  0.4926700000000 1.0
C      1  0.4593630000000  0.4656240000000  0.5207040000000 1.0
C      1  0.5224660000000  0.4300830000000  0.5042590000000 1.0
C      1  0.5578020000000  0.5125390000000  0.5832690000000 1.0
C      1  0.5481500000000  0.4638690000000  0.4091340000000 1.0
C      1  0.4219490000000  0.4717060000000  0.4892440000000 1.0
C      1  0.4595430000000  0.4996870000000  0.4817190000000 1.0
C      1  0.5335510000000  0.4634450000000  0.5531920000000 1.0
C      1  0.5200480000000  0.4592860000000  0.4660590000000 1.0
C      1  0.4629750000000  0.5529430000000  0.4778720000000 1.0
C      1  0.4991560000000  0.4968690000000  0.5598410000000 1.0
C      1  0.4625150000000  0.3977700000000  0.5253820000000 1.0
C      1  0.5086190000000  0.5754400000000  0.5935100000000 1.0
C      1  0.5342720000000  0.4403700000000  0.4526060000000 1.0
C      1  0.4231240000000  0.4684040000000  0.5692940000000 1.0
END
