TITL C-612605-9286-1123 -8.74228612003806 125000 -1100.63048204885 0 0 179 (C1) n - 1
REM
REM in /home/nfs/bkarasulu/CARBON/AIRSS/Generating-Clusters/TERSOFF/Only-C1/FIRE-HFTN
REM
REM
REM
REM
REM
REM ./C.cell (11c1c37f851c82e70ff6c80c92926a4b)
REM AIRSS Version 0.9.1 bugfix July 2018 build 013d7b7c2542+ Fri, 06 Jul 2018 19:26:36 +0100
REM compiler GCC version 9.2.1 20190827 (Red Hat 9.2.1-1)
REM options -cpp -mtune=generic -march=x86-64 -g -O0 -fpre-include=/usr/include/finclude/math-vector-fortran.h
REM seed -522409421 1033869593 778885624 1295981407 1249887334 1366455041 1870626827 160364844 1417542241 -1004740181 2113282930 1537830556 -63806852 477983172 -719886170 147958407 2087415558 1210472691 1156318628 2064850775 891237887 1549697472 -118895031 -1446713605 -1040543485 1412082976 -1463037478 739242481 -293318408 -1991803648 -1986726474 -73598415 1323951470
REM
CELL 1.54180   50.00000   50.00000   50.00000   90.00000   90.00000   90.00000
LATT -1
SFAC C  
C      1  0.6171590000000  0.5075060000000  0.4695990000000 1.0
C      1  0.4852550000000  0.5372060000000  0.4282830000000 1.0
C      1  0.4894210000000  0.6124320000000  0.4377170000000 1.0
C      1  0.4489730000000  0.5353970000000  0.6042910000000 1.0
C      1  0.6122460000000  0.4636410000000  0.5436460000000 1.0
C      1  0.6055190000000  0.4405500000000  0.5280950000000 1.0
C      1  0.6040490000000  0.4927020000000  0.4496250000000 1.0
C      1  0.4039420000000  0.5360760000000  0.5678420000000 1.0
C      1  0.4771370000000  0.4788050000000  0.4659020000000 1.0
C      1  0.4871860000000  0.6112840000000  0.6523880000000 1.0
C      1  0.4130700000000  0.5843290000000  0.5622100000000 1.0
C      1  0.5123710000000  0.5630070000000  0.4810160000000 1.0
C      1  0.4362730000000  0.5098100000000  0.5979960000000 1.0
C      1  0.5128610000000  0.5975930000000  0.4429120000000 1.0
C      1  0.5476380000000  0.5167420000000  0.3735590000000 1.0
C      1  0.6111910000000  0.4481720000000  0.4745640000000 1.0
C      1  0.4625290000000  0.4527660000000  0.5203820000000 1.0
C      1  0.5873320000000  0.5581890000000  0.5746220000000 1.0
C      1  0.4473730000000  0.4193400000000  0.5615400000000 1.0
C      1  0.5194420000000  0.5930840000000  0.5713510000000 1.0
C      1  0.5171570000000  0.5076640000000  0.6101710000000 1.0
C      1  0.4300530000000  0.5127370000000  0.5377400000000 1.0
C      1  0.4004550000000  0.4680930000000  0.4839230000000 1.0
C      1  0.5371010000000  0.5167320000000  0.3497260000000 1.0
C      1  0.5496100000000  0.5120220000000  0.5484460000000 1.0
C      1  0.4183550000000  0.4655510000000  0.5548710000000 1.0
C      1  0.5505650000000  0.4381270000000  0.4189220000000 1.0
C      1  0.5236590000000  0.4038800000000  0.5674730000000 1.0
C      1  0.5161910000000  0.5135860000000  0.5843620000000 1.0
C      1  0.4572340000000  0.5492520000000  0.3893480000000 1.0
C      1  0.4297220000000  0.4413990000000  0.5643840000000 1.0
C      1  0.5350400000000  0.4798920000000  0.4378540000000 1.0
C      1  0.4695030000000  0.5717970000000  0.5788060000000 1.0
C      1  0.5480210000000  0.6201910000000  0.5095940000000 1.0
C      1  0.4114980000000  0.4774530000000  0.4589030000000 1.0
C      1  0.5808330000000  0.4963970000000  0.4980960000000 1.0
C      1  0.5070290000000  0.4800420000000  0.5251780000000 1.0
C      1  0.5516710000000  0.5522960000000  0.5213640000000 1.0
C      1  0.5625490000000  0.5962070000000  0.4429350000000 1.0
C      1  0.5618970000000  0.5545960000000  0.4942960000000 1.0
C      1  0.4613720000000  0.4773850000000  0.5360040000000 1.0
C      1  0.4637060000000  0.5024920000000  0.4057700000000 1.0
C      1  0.5186640000000  0.6541270000000  0.5274790000000 1.0
C      1  0.5650840000000  0.5347840000000  0.5401610000000 1.0
C      1  0.4932040000000  0.4142070000000  0.5092280000000 1.0
C      1  0.5059700000000  0.5714330000000  0.5081550000000 1.0
C      1  0.4978740000000  0.5193750000000  0.4729780000000 1.0
C      1  0.5227840000000  0.3982270000000  0.4366150000000 1.0
C      1  0.4615090000000  0.5156640000000  0.6461550000000 1.0
C      1  0.5116850000000  0.4911660000000  0.4255100000000 1.0
C      1  0.5561130000000  0.5164610000000  0.3999970000000 1.0
C      1  0.4268060000000  0.5652840000000  0.4499190000000 1.0
C      1  0.4777700000000  0.5216260000000  0.4506920000000 1.0
C      1  0.3766400000000  0.5303500000000  0.5204910000000 1.0
C      1  0.4659620000000  0.5586750000000  0.3653940000000 1.0
C      1  0.5312400000000  0.4426440000000  0.5440450000000 1.0
C      1  0.5659960000000  0.5312870000000  0.4444820000000 1.0
C      1  0.4178340000000  0.5591920000000  0.4766960000000 1.0
C      1  0.6066850000000  0.5152580000000  0.5558280000000 1.0
C      1  0.4342840000000  0.4348860000000  0.4499430000000 1.0
C      1  0.3913750000000  0.4653960000000  0.5466320000000 1.0
C      1  0.5580660000000  0.4542530000000  0.5028890000000 1.0
C      1  0.4327050000000  0.4983170000000  0.4648250000000 1.0
C      1  0.5335650000000  0.5601470000000  0.4208750000000 1.0
C      1  0.4837490000000  0.4943820000000  0.5331780000000 1.0
C      1  0.5384000000000  0.5888000000000  0.4299840000000 1.0
C      1  0.4470190000000  0.4223500000000  0.4263580000000 1.0
C      1  0.4364360000000  0.4862810000000  0.5460710000000 1.0
C      1  0.4985450000000  0.4382820000000  0.6119810000000 1.0
C      1  0.4679300000000  0.5492420000000  0.4871300000000 1.0
C      1  0.6073470000000  0.5409700000000  0.5008840000000 1.0
C      1  0.4678060000000  0.5639820000000  0.6402620000000 1.0
C      1  0.5038750000000  0.3606160000000  0.4790300000000 1.0
C      1  0.5625010000000  0.6135860000000  0.4882590000000 1.0
C      1  0.4240350000000  0.4724100000000  0.5005390000000 1.0
C      1  0.4701760000000  0.4049110000000  0.4279890000000 1.0
C      1  0.5597570000000  0.4869140000000  0.5407770000000 1.0
C      1  0.5580290000000  0.4982320000000  0.4806570000000 1.0
C      1  0.6564060000000  0.5908500000000  0.5173200000000 1.0
C      1  0.5327150000000  0.3937050000000  0.4985110000000 1.0
C      1  0.5497330000000  0.4135470000000  0.4365400000000 1.0
C      1  0.4864750000000  0.4378890000000  0.5225020000000 1.0
C      1  0.4829280000000  0.5283640000000  0.4977650000000 1.0
C      1  0.4597040000000  0.5392350000000  0.6305670000000 1.0
C      1  0.5226770000000  0.5566420000000  0.5265870000000 1.0
C      1  0.4281620000000  0.5236620000000  0.5114450000000 1.0
C      1  0.6132600000000  0.4893450000000  0.5518880000000 1.0
C      1  0.6047360000000  0.4027630000000  0.5583040000000 1.0
C      1  0.4278830000000  0.5527280000000  0.5034890000000 1.0
C      1  0.5087350000000  0.5349950000000  0.5398490000000 1.0
C      1  0.4333470000000  0.5574310000000  0.4017590000000 1.0
C      1  0.4150550000000  0.5202260000000  0.4269360000000 1.0
C      1  0.5825060000000  0.5063410000000  0.4366120000000 1.0
C      1  0.5022390000000  0.4421290000000  0.4208150000000 1.0
C      1  0.3750500000000  0.4625580000000  0.5254840000000 1.0
C      1  0.4590650000000  0.3752250000000  0.4722980000000 1.0
C      1  0.4632640000000  0.6055130000000  0.4404230000000 1.0
C      1  0.5707580000000  0.4763220000000  0.5168870000000 1.0
C      1  0.3857210000000  0.5340480000000  0.5457980000000 1.0
C      1  0.4515240000000  0.4407180000000  0.4723100000000 1.0
C      1  0.5226690000000  0.6120600000000  0.5508280000000 1.0
C      1  0.4562430000000  0.4908550000000  0.6366770000000 1.0
C      1  0.4872790000000  0.5217740000000  0.5255040000000 1.0
C      1  0.4441280000000  0.4517260000000  0.4987300000000 1.0
C      1  0.4934220000000  0.3914590000000  0.4402630000000 1.0
C      1  0.4186950000000  0.4578730000000  0.4404600000000 1.0
C      1  0.5132020000000  0.3726120000000  0.5028540000000 1.0
C      1  0.5464280000000  0.4776740000000  0.4638420000000 1.0
C      1  0.5358730000000  0.5097990000000  0.4943840000000 1.0
C      1  0.5677890000000  0.5737730000000  0.5844520000000 1.0
C      1  0.5299220000000  0.6285860000000  0.5293500000000 1.0
C      1  0.5754130000000  0.5985900000000  0.4681220000000 1.0
C      1  0.3746560000000  0.5258830000000  0.4938010000000 1.0
C      1  0.4774420000000  0.4405980000000  0.5945010000000 1.0
C      1  0.6118960000000  0.4409090000000  0.5003970000000 1.0
C      1  0.5534700000000  0.5425700000000  0.4686620000000 1.0
C      1  0.4938190000000  0.5829030000000  0.5774440000000 1.0
C      1  0.5914800000000  0.4178960000000  0.5394980000000 1.0
C      1  0.5552970000000  0.4682340000000  0.4196600000000 1.0
C      1  0.4237460000000  0.5479250000000  0.4266340000000 1.0
C      1  0.4065100000000  0.6072390000000  0.5516670000000 1.0
C      1  0.4349810000000  0.4956080000000  0.4124220000000 1.0
C      1  0.5420460000000  0.4172590000000  0.5497490000000 1.0
C      1  0.4419010000000  0.4424000000000  0.4044940000000 1.0
C      1  0.3773940000000  0.4625640000000  0.4985760000000 1.0
C      1  0.4279280000000  0.4667100000000  0.4145760000000 1.0
C      1  0.4369890000000  0.3890390000000  0.5178510000000 1.0
C      1  0.5428830000000  0.4534630000000  0.4783570000000 1.0
C      1  0.5156630000000  0.4163120000000  0.4908970000000 1.0
C      1  0.4781250000000  0.5801460000000  0.5160400000000 1.0
C      1  0.4762850000000  0.4513480000000  0.4625830000000 1.0
C      1  0.4873630000000  0.3824510000000  0.5463400000000 1.0
C      1  0.5080210000000  0.6778380000000  0.5255470000000 1.0
C      1  0.5251280000000  0.4349470000000  0.4058580000000 1.0
C      1  0.3919330000000  0.5168220000000  0.4437660000000 1.0
C      1  0.4116520000000  0.5137290000000  0.5842010000000 1.0
C      1  0.4947650000000  0.4010280000000  0.5666500000000 1.0
C      1  0.5085880000000  0.4532600000000  0.5323320000000 1.0
C      1  0.4990530000000  0.4900060000000  0.4789210000000 1.0
C      1  0.5167670000000  0.4896240000000  0.5011510000000 1.0
C      1  0.4467590000000  0.5561210000000  0.5846430000000 1.0
C      1  0.5522070000000  0.5384500000000  0.4190260000000 1.0
C      1  0.4872490000000  0.4857440000000  0.4107930000000 1.0
C      1  0.4733900000000  0.4196870000000  0.5749430000000 1.0
C      1  0.5209180000000  0.4361900000000  0.4716680000000 1.0
C      1  0.6066640000000  0.4647800000000  0.4538150000000 1.0
C      1  0.5645910000000  0.4097700000000  0.5322920000000 1.0
C      1  0.5239900000000  0.5192670000000  0.5583380000000 1.0
C      1  0.4489870000000  0.4862870000000  0.6094430000000 1.0
C      1  0.4428810000000  0.5887780000000  0.4460540000000 1.0
C      1  0.5593920000000  0.3993800000000  0.5054290000000 1.0
C      1  0.5693770000000  0.4068560000000  0.4560050000000 1.0
C      1  0.4399910000000  0.4002480000000  0.5419830000000 1.0
C      1  0.4594230000000  0.4993270000000  0.4556660000000 1.0
C      1  0.4854800000000  0.4584750000000  0.4047490000000 1.0
C      1  0.3792830000000  0.5212000000000  0.4674730000000 1.0
C      1  0.4930710000000  0.3865470000000  0.5192960000000 1.0
C      1  0.5697940000000  0.4932410000000  0.4128980000000 1.0
C      1  0.4302900000000  0.5011220000000  0.4936320000000 1.0
C      1  0.5977480000000  0.5830400000000  0.4759600000000 1.0
C      1  0.6134840000000  0.5677930000000  0.4939730000000 1.0
C      1  0.5004260000000  0.4410240000000  0.4508600000000 1.0
C      1  0.5890250000000  0.5375990000000  0.5554930000000 1.0
C      1  0.4545410000000  0.5657950000000  0.5057690000000 1.0
C      1  0.4431490000000  0.3807210000000  0.4931550000000 1.0
C      1  0.4853680000000  0.3732980000000  0.4616090000000 1.0
C      1  0.4211940000000  0.5592290000000  0.5713460000000 1.0
C      1  0.6358800000000  0.5797950000000  0.5056740000000 1.0
C      1  0.5228200000000  0.5016670000000  0.6349030000000 1.0
C      1  0.6030520000000  0.5141990000000  0.4931870000000 1.0
C      1  0.4711400000000  0.5302210000000  0.4048110000000 1.0
C      1  0.5428900000000  0.5834750000000  0.5836950000000 1.0
C      1  0.4648700000000  0.4478540000000  0.3894060000000 1.0
C      1  0.5054620000000  0.5726010000000  0.4556570000000 1.0
C      1  0.4604830000000  0.4634500000000  0.5972040000000 1.0
C      1  0.5248380000000  0.5330150000000  0.4777050000000 1.0
C      1  0.5069380000000  0.5542270000000  0.4324060000000 1.0
C      1  0.5753070000000  0.4018980000000  0.4819760000000 1.0
C      1  0.4772560000000  0.5877590000000  0.6471380000000 1.0
END
