TITL C-612602-9376-1104 21.8321378548395 125000 -1204.8250301761 0 0 200 (C1) n - 1
REM
REM in /home/nfs/bkarasulu/CARBON/AIRSS/Generating-Clusters/TERSOFF/Only-C1/FIRE-HFTN
REM
REM
REM
REM
REM
REM ./C.cell (11c1c37f851c82e70ff6c80c92926a4b)
REM AIRSS Version 0.9.1 bugfix July 2018 build 013d7b7c2542+ Fri, 06 Jul 2018 19:26:36 +0100
REM compiler GCC version 9.2.1 20190827 (Red Hat 9.2.1-1)
REM options -cpp -mtune=generic -march=x86-64 -g -O0 -fpre-include=/usr/include/finclude/math-vector-fortran.h
REM seed -2106528843 -1363551136 -597016640 1662617636 1774402723 112997189 -1434023115 1086247311 -2138740758 -17042415 -295669027 -1458397953 -1709294516 1021208935 -999760127 -2038576791 -715232912 317775195 -552823927 -439128276 1485256174 1967971405 -1735583372 -432462726 -348759889 349250734 951455110 2121412162 -551614216 1471405248 1655895735 1561664025 -2097339636
REM
CELL 1.54180   50.00000   50.00000   50.00000   90.00000   90.00000   90.00000
LATT -1
SFAC C  
C      1  0.5681850000000  0.5051450000000  0.4918150000000 1.0
C      1  0.3962150000000  0.4370240000000  0.5591420000000 1.0
C      1  0.3981940000000  0.5376010000000  0.5741640000000 1.0
C      1  0.6151690000000  0.5060760000000  0.4475180000000 1.0
C      1  0.4749860000000  0.5809760000000  0.5043890000000 1.0
C      1  0.5888220000000  0.4592210000000  0.4605600000000 1.0
C      1  0.5525730000000  0.5236210000000  0.4215730000000 1.0
C      1  0.6600270000000  0.4769760000000  0.4421310000000 1.0
C      1  0.3900190000000  0.4335850000000  0.4312200000000 1.0
C      1  0.4531590000000  0.5231310000000  0.4869680000000 1.0
C      1  0.3909950000000  0.5468690000000  0.5491980000000 1.0
C      1  0.4882770000000  0.4785440000000  0.5831330000000 1.0
C      1  0.5668010000000  0.3878100000000  0.5158740000000 1.0
C      1  0.4411000000000  0.4221790000000  0.5596050000000 1.0
C      1  0.4317610000000  0.5409670000000  0.4131570000000 1.0
C      1  0.5376420000000  0.4830360000000  0.3702190000000 1.0
C      1  0.4942990000000  0.5088220000000  0.4240230000000 1.0
C      1  0.4935940000000  0.5747090000000  0.4866940000000 1.0
C      1  0.4621460000000  0.4089510000000  0.4303550000000 1.0
C      1  0.5457970000000  0.5093900000000  0.3739030000000 1.0
C      1  0.6019850000000  0.5202220000000  0.5710720000000 1.0
C      1  0.4937550000000  0.5693470000000  0.3815820000000 1.0
C      1  0.3967700000000  0.5119970000000  0.4398100000000 1.0
C      1  0.5058210000000  0.3883060000000  0.4829350000000 1.0
C      1  0.5096410000000  0.4603250000000  0.5759920000000 1.0
C      1  0.5125800000000  0.5010540000000  0.4042570000000 1.0
C      1  0.5002570000000  0.5050020000000  0.5888030000000 1.0
C      1  0.4424350000000  0.4536850000000  0.4908590000000 1.0
C      1  0.4147320000000  0.4198790000000  0.5477230000000 1.0
C      1  0.5288680000000  0.4593110000000  0.4369400000000 1.0
C      1  0.4213780000000  0.4562840000000  0.5080340000000 1.0
C      1  0.5869490000000  0.5638740000000  0.4251340000000 1.0
C      1  0.5520570000000  0.5164860000000  0.5941390000000 1.0
C      1  0.5167700000000  0.5895310000000  0.4885550000000 1.0
C      1  0.4447870000000  0.4536210000000  0.6201830000000 1.0
C      1  0.5328970000000  0.4247070000000  0.4055480000000 1.0
C      1  0.3789720000000  0.4989950000000  0.5530470000000 1.0
C      1  0.5397520000000  0.3818810000000  0.5245410000000 1.0
C      1  0.4020600000000  0.4619450000000  0.5667730000000 1.0
C      1  0.5445400000000  0.5914180000000  0.4312690000000 1.0
C      1  0.4444020000000  0.5933710000000  0.4717850000000 1.0
C      1  0.3805110000000  0.4753320000000  0.4898160000000 1.0
C      1  0.5213940000000  0.3750810000000  0.5033210000000 1.0
C      1  0.6182190000000  0.4143770000000  0.4482140000000 1.0
C      1  0.4688460000000  0.5606880000000  0.3871260000000 1.0
C      1  0.6068660000000  0.5464860000000  0.5805460000000 1.0
C      1  0.6073340000000  0.5199330000000  0.4712430000000 1.0
C      1  0.4180450000000  0.6053820000000  0.5266970000000 1.0
C      1  0.4403730000000  0.5659390000000  0.4724050000000 1.0
C      1  0.4041000000000  0.4879430000000  0.5571580000000 1.0
C      1  0.3828680000000  0.5149590000000  0.4646550000000 1.0
C      1  0.3850310000000  0.3859880000000  0.4457410000000 1.0
C      1  0.4577160000000  0.4060520000000  0.5433830000000 1.0
C      1  0.4504210000000  0.4431030000000  0.3911070000000 1.0
C      1  0.5261750000000  0.4518880000000  0.4092520000000 1.0
C      1  0.3973230000000  0.4848750000000  0.4318560000000 1.0
C      1  0.4582040000000  0.4332250000000  0.6039690000000 1.0
C      1  0.4988010000000  0.5402820000000  0.5380420000000 1.0
C      1  0.4681350000000  0.5815870000000  0.4289840000000 1.0
C      1  0.6198170000000  0.5260560000000  0.4960400000000 1.0
C      1  0.5569300000000  0.5358850000000  0.4470910000000 1.0
C      1  0.6219950000000  0.4881740000000  0.5397550000000 1.0
C      1  0.5761650000000  0.4089210000000  0.4229950000000 1.0
C      1  0.5421500000000  0.4691310000000  0.4869910000000 1.0
C      1  0.3981220000000  0.4126930000000  0.5001300000000 1.0
C      1  0.4118870000000  0.5608900000000  0.4754860000000 1.0
C      1  0.4168760000000  0.4084740000000  0.5207740000000 1.0
C      1  0.6140790000000  0.5147190000000  0.5451300000000 1.0
C      1  0.4763100000000  0.5273500000000  0.5514570000000 1.0
C      1  0.5902770000000  0.4327960000000  0.5696590000000 1.0
C      1  0.5634560000000  0.5542380000000  0.5609340000000 1.0
C      1  0.5003280000000  0.4708290000000  0.5292880000000 1.0
C      1  0.5360610000000  0.4924240000000  0.5549080000000 1.0
C      1  0.5359750000000  0.5617840000000  0.5619460000000 1.0
C      1  0.4371550000000  0.4943760000000  0.3852570000000 1.0
C      1  0.4607280000000  0.5448630000000  0.4705550000000 1.0
C      1  0.5024970000000  0.3727600000000  0.6135100000000 1.0
C      1  0.5750170000000  0.4360630000000  0.5110170000000 1.0
C      1  0.5354590000000  0.5199330000000  0.3990900000000 1.0
C      1  0.4523450000000  0.4416550000000  0.5767160000000 1.0
C      1  0.4991170000000  0.4162000000000  0.5230630000000 1.0
C      1  0.4836270000000  0.5265890000000  0.5980900000000 1.0
C      1  0.4077280000000  0.5209960000000  0.5940110000000 1.0
C      1  0.5083220000000  0.3888680000000  0.4537550000000 1.0
C      1  0.4813150000000  0.4751510000000  0.5112610000000 1.0
C      1  0.4690090000000  0.6314060000000  0.4687570000000 1.0
C      1  0.5291950000000  0.5067060000000  0.5795750000000 1.0
C      1  0.4828810000000  0.4502450000000  0.4447380000000 1.0
C      1  0.5088060000000  0.4475750000000  0.4550040000000 1.0
C      1  0.5408600000000  0.5495530000000  0.4887620000000 1.0
C      1  0.5466320000000  0.4359900000000  0.5202670000000 1.0
C      1  0.4666250000000  0.5059270000000  0.4265720000000 1.0
C      1  0.3846160000000  0.5032420000000  0.4901770000000 1.0
C      1  0.4458190000000  0.4022370000000  0.5172310000000 1.0
C      1  0.5912900000000  0.4095680000000  0.4478230000000 1.0
C      1  0.5049220000000  0.5181270000000  0.4490700000000 1.0
C      1  0.5790310000000  0.5217640000000  0.4719170000000 1.0
C      1  0.5169230000000  0.6211710000000  0.5713140000000 1.0
C      1  0.5444270000000  0.4233920000000  0.5463530000000 1.0
C      1  0.5660800000000  0.6058540000000  0.5632890000000 1.0
C      1  0.4359930000000  0.6209160000000  0.5098140000000 1.0
C      1  0.5129230000000  0.5818880000000  0.3955910000000 1.0
C      1  0.6126610000000  0.5623160000000  0.5277530000000 1.0
C      1  0.4442410000000  0.5624690000000  0.5892530000000 1.0
C      1  0.5548930000000  0.3855400000000  0.4641420000000 1.0
C      1  0.4633860000000  0.5448610000000  0.5975860000000 1.0
C      1  0.4431360000000  0.4681990000000  0.3849480000000 1.0
C      1  0.4485090000000  0.6184490000000  0.4838780000000 1.0
C      1  0.4228240000000  0.5128550000000  0.5213530000000 1.0
C      1  0.5285910000000  0.5254950000000  0.4991760000000 1.0
C      1  0.4492180000000  0.5545020000000  0.5284230000000 1.0
C      1  0.5883970000000  0.4619920000000  0.5168800000000 1.0
C      1  0.5699230000000  0.5812940000000  0.4411130000000 1.0
C      1  0.6105110000000  0.4439370000000  0.5560870000000 1.0
C      1  0.5857560000000  0.5925570000000  0.5798750000000 1.0
C      1  0.4381720000000  0.5868020000000  0.5753740000000 1.0
C      1  0.5954140000000  0.5098930000000  0.4267090000000 1.0
C      1  0.4634320000000  0.4678790000000  0.5738630000000 1.0
C      1  0.3883330000000  0.4254310000000  0.4769590000000 1.0
C      1  0.5001260000000  0.6160790000000  0.5489870000000 1.0
C      1  0.5158710000000  0.3930640000000  0.5722810000000 1.0
C      1  0.5652820000000  0.4608620000000  0.4716620000000 1.0
C      1  0.5297260000000  0.4473130000000  0.4995710000000 1.0
C      1  0.5236650000000  0.4466620000000  0.5955610000000 1.0
C      1  0.5734220000000  0.5810060000000  0.4699310000000 1.0
C      1  0.4615570000000  0.6025100000000  0.5731940000000 1.0
C      1  0.4599390000000  0.4635130000000  0.4423610000000 1.0
C      1  0.5895890000000  0.4098540000000  0.3990040000000 1.0
C      1  0.5435560000000  0.4838130000000  0.4407800000000 1.0
C      1  0.4924930000000  0.6183780000000  0.4580100000000 1.0
C      1  0.3859090000000  0.4543420000000  0.4719390000000 1.0
C      1  0.4928040000000  0.4132380000000  0.4940530000000 1.0
C      1  0.4576850000000  0.4214390000000  0.4052900000000 1.0
C      1  0.4767520000000  0.5990790000000  0.5497610000000 1.0
C      1  0.4854240000000  0.3939510000000  0.4374910000000 1.0
C      1  0.5143430000000  0.6328180000000  0.5016100000000 1.0
C      1  0.5771220000000  0.4018160000000  0.4713070000000 1.0
C      1  0.5183250000000  0.4706240000000  0.5507240000000 1.0
C      1  0.5785400000000  0.5093500000000  0.5842450000000 1.0
C      1  0.5353670000000  0.3917860000000  0.4444450000000 1.0
C      1  0.5585620000000  0.4947990000000  0.5382730000000 1.0
C      1  0.4191720000000  0.5002410000000  0.6079450000000 1.0
C      1  0.5205000000000  0.4743090000000  0.3921840000000 1.0
C      1  0.4538660000000  0.5115260000000  0.5558100000000 1.0
C      1  0.4990430000000  0.3939720000000  0.5960510000000 1.0
C      1  0.5744290000000  0.4883560000000  0.5152180000000 1.0
C      1  0.5471250000000  0.5385370000000  0.6114790000000 1.0
C      1  0.5733970000000  0.5972010000000  0.5354070000000 1.0
C      1  0.5641520000000  0.4290670000000  0.5656520000000 1.0
C      1  0.4094300000000  0.5369210000000  0.4316140000000 1.0
C      1  0.6164190000000  0.5343960000000  0.5234030000000 1.0
C      1  0.4553340000000  0.4973610000000  0.4753930000000 1.0
C      1  0.4207050000000  0.5961420000000  0.5541400000000 1.0
C      1  0.4431100000000  0.5305390000000  0.5124220000000 1.0
C      1  0.4921450000000  0.5981470000000  0.4363490000000 1.0
C      1  0.5133840000000  0.6165130000000  0.4776690000000 1.0
C      1  0.4608230000000  0.4752330000000  0.4923710000000 1.0
C      1  0.4848940000000  0.4092130000000  0.5442700000000 1.0
C      1  0.3969080000000  0.5179340000000  0.5108390000000 1.0
C      1  0.4337770000000  0.5196840000000  0.3937020000000 1.0
C      1  0.5276490000000  0.5022450000000  0.4583530000000 1.0
C      1  0.3978080000000  0.5651870000000  0.5008810000000 1.0
C      1  0.5068740000000  0.5253820000000  0.5157980000000 1.0
C      1  0.3908520000000  0.4598520000000  0.4430950000000 1.0
C      1  0.3986280000000  0.5912020000000  0.5116980000000 1.0
C      1  0.4011700000000  0.5575070000000  0.4495020000000 1.0
C      1  0.4659190000000  0.5786120000000  0.5307050000000 1.0
C      1  0.5363650000000  0.4401770000000  0.6174070000000 1.0
C      1  0.4459140000000  0.4185430000000  0.4517390000000 1.0
C      1  0.5256930000000  0.5897840000000  0.5184710000000 1.0
C      1  0.4537640000000  0.5616870000000  0.4117660000000 1.0
C      1  0.4554080000000  0.4906740000000  0.4473730000000 1.0
C      1  0.5173010000000  0.5918040000000  0.4218830000000 1.0
C      1  0.5397580000000  0.6054270000000  0.5766740000000 1.0
C      1  0.5321720000000  0.3971290000000  0.5486690000000 1.0
C      1  0.5146990000000  0.6167920000000  0.5252820000000 1.0
C      1  0.5168310000000  0.5630310000000  0.5415670000000 1.0
C      1  0.5379310000000  0.5503360000000  0.4604810000000 1.0
C      1  0.5956680000000  0.5386670000000  0.4182090000000 1.0
C      1  0.5098430000000  0.4361160000000  0.4818880000000 1.0
C      1  0.5470160000000  0.4067840000000  0.4226280000000 1.0
C      1  0.5373210000000  0.5638150000000  0.6092280000000 1.0
C      1  0.5388280000000  0.4997410000000  0.4865970000000 1.0
C      1  0.4484900000000  0.4289100000000  0.4777480000000 1.0
C      1  0.4620990000000  0.4110980000000  0.4950820000000 1.0
C      1  0.4791980000000  0.4135640000000  0.6044320000000 1.0
C      1  0.4278100000000  0.5014060000000  0.5468760000000 1.0
C      1  0.5862580000000  0.5646480000000  0.5759590000000 1.0
C      1  0.6385540000000  0.4915650000000  0.4444030000000 1.0
C      1  0.5669850000000  0.4982190000000  0.4269110000000 1.0
C      1  0.5608050000000  0.5708380000000  0.4938900000000 1.0
C      1  0.5784110000000  0.4088210000000  0.4992970000000 1.0
C      1  0.3903980000000  0.5444860000000  0.5199350000000 1.0
C      1  0.4312270000000  0.4775290000000  0.6175320000000 1.0
C      1  0.5995970000000  0.5856920000000  0.5313720000000 1.0
C      1  0.4872070000000  0.5388100000000  0.4597280000000 1.0
C      1  0.3876260000000  0.4125190000000  0.4507540000000 1.0
C      1  0.5330700000000  0.5785320000000  0.5854950000000 1.0
C      1  0.5549650000000  0.5875360000000  0.5162360000000 1.0
C      1  0.6105170000000  0.4629060000000  0.5353780000000 1.0
END
