TITL C-612600-6631-856 -0.00117961289357516 125000 -239.997503109901 0 0 41 (C1) n - 1
REM
REM in /home/nfs/bkarasulu/CARBON/AIRSS/Generating-Clusters/TERSOFF/Only-C1/FIRE-HFTN
REM
REM
REM
REM
REM
REM ./C.cell (11c1c37f851c82e70ff6c80c92926a4b)
REM AIRSS Version 0.9.1 bugfix July 2018 build 013d7b7c2542+ Fri, 06 Jul 2018 19:26:36 +0100
REM compiler GCC version 9.2.1 20190827 (Red Hat 9.2.1-1)
REM options -cpp -mtune=generic -march=x86-64 -g -O0 -fpre-include=/usr/include/finclude/math-vector-fortran.h
REM seed -527611306 -427790288 322953592 -1024198134 -187360370 -701059317 720923862 1137812874 -1063508470 56734325 790998489 750077557 -40549762 -362727497 1449263404 1439728914 1652991749 -2064443475 -1167136245 -671712813 1892477626 1629445238 -1714953205 -664168807 209477776 2049635410 -805420527 1759904680 694207581 -1926509815 -909793287 2098440617 548858818
REM
CELL 1.54180   50.00000   50.00000   50.00000   90.00000   90.00000   90.00000
LATT -1
SFAC C  
C      1  0.5335810000000  0.5070360000000  0.4711140000000 1.0
C      1  0.5422340000000  0.4558970000000  0.4663960000000 1.0
C      1  0.4868560000000  0.4805770000000  0.5618340000000 1.0
C      1  0.5135260000000  0.5273260000000  0.4616460000000 1.0
C      1  0.4925710000000  0.4746860000000  0.5012210000000 1.0
C      1  0.4271930000000  0.5292340000000  0.4821210000000 1.0
C      1  0.5225610000000  0.4143880000000  0.4893460000000 1.0
C      1  0.5257690000000  0.3679170000000  0.5136900000000 1.0
C      1  0.5300000000000  0.5034700000000  0.5591200000000 1.0
C      1  0.5489270000000  0.5173280000000  0.5456810000000 1.0
C      1  0.5241430000000  0.3908770000000  0.5014510000000 1.0
C      1  0.5335410000000  0.5617970000000  0.4894960000000 1.0
C      1  0.5314790000000  0.4813840000000  0.4574570000000 1.0
C      1  0.5129640000000  0.4765260000000  0.5204390000000 1.0
C      1  0.4863170000000  0.5439440000000  0.5161260000000 1.0
C      1  0.5352210000000  0.5509090000000  0.5156320000000 1.0
C      1  0.4660460000000  0.5361250000000  0.4443640000000 1.0
C      1  0.5485830000000  0.5260800000000  0.5185790000000 1.0
C      1  0.5412590000000  0.4792720000000  0.5116430000000 1.0
C      1  0.4480780000000  0.4962350000000  0.5858390000000 1.0
C      1  0.4438000000000  0.5320430000000  0.4613370000000 1.0
C      1  0.4978710000000  0.4583460000000  0.4781990000000 1.0
C      1  0.5100690000000  0.5518470000000  0.5300300000000 1.0
C      1  0.4894520000000  0.5198910000000  0.4467550000000 1.0
C      1  0.4865710000000  0.5552300000000  0.4897710000000 1.0
C      1  0.5451530000000  0.5049950000000  0.4986040000000 1.0
C      1  0.4763160000000  0.4975030000000  0.5014840000000 1.0
C      1  0.4871380000000  0.4925900000000  0.4404480000000 1.0
C      1  0.4199290000000  0.5246940000000  0.5075430000000 1.0
C      1  0.5212760000000  0.4399170000000  0.4790020000000 1.0
C      1  0.4649910000000  0.5750530000000  0.4069750000000 1.0
C      1  0.5110920000000  0.5524980000000  0.4748640000000 1.0
C      1  0.4631800000000  0.4964600000000  0.5629520000000 1.0
C      1  0.5545290000000  0.4619730000000  0.5311860000000 1.0
C      1  0.5027020000000  0.4740070000000  0.4538290000000 1.0
C      1  0.5381310000000  0.4579120000000  0.5541660000000 1.0
C      1  0.4736660000000  0.5187790000000  0.5200940000000 1.0
C      1  0.4550300000000  0.5128220000000  0.5408320000000 1.0
C      1  0.4651050000000  0.5560670000000  0.4248260000000 1.0
C      1  0.4285540000000  0.5182660000000  0.5323370000000 1.0
C      1  0.5145930000000  0.4780970000000  0.5515700000000 1.0
END
