TITL C-612601-4209-633 0.949830709937147 125000 -393.933321971659 0 0 66 (C1) n - 1
REM
REM in /home/nfs/bkarasulu/CARBON/AIRSS/Generating-Clusters/TERSOFF/Only-C1/FIRE-HFTN
REM
REM
REM
REM
REM
REM ./C.cell (11c1c37f851c82e70ff6c80c92926a4b)
REM AIRSS Version 0.9.1 bugfix July 2018 build 013d7b7c2542+ Fri, 06 Jul 2018 19:26:36 +0100
REM compiler GCC version 9.2.1 20190827 (Red Hat 9.2.1-1)
REM options -cpp -mtune=generic -march=x86-64 -g -O0 -fpre-include=/usr/include/finclude/math-vector-fortran.h
REM seed -157307043 1813759597 304992876 1073608384 -982327364 1982891774 1959599406 -1731051775 -1634944712 684848786 -6879273 1220124529 -1587332273 347741189 -219159452 -1327544068 -965461638 -19200396 -1088556094 2077223078 -1595605256 -1404686715 -1069239082 -1926931931 1169735539 -435019348 -1657348654 -597227879 -1973604923 -340193367 -1453039276 -703953089 1725347009
REM
CELL 1.54180   50.00000   50.00000   50.00000   90.00000   90.00000   90.00000
LATT -1
SFAC C  
C      1  0.4429930000000  0.4830370000000  0.4534130000000 1.0
C      1  0.5396650000000  0.5309750000000  0.4935040000000 1.0
C      1  0.5602920000000  0.4951760000000  0.5462340000000 1.0
C      1  0.5324350000000  0.5734180000000  0.4979030000000 1.0
C      1  0.4482650000000  0.5250380000000  0.5498190000000 1.0
C      1  0.4805130000000  0.4212360000000  0.4621310000000 1.0
C      1  0.5079480000000  0.4286020000000  0.5346460000000 1.0
C      1  0.3981810000000  0.4722690000000  0.5675610000000 1.0
C      1  0.4771000000000  0.4266290000000  0.4898720000000 1.0
C      1  0.4738420000000  0.4582980000000  0.4259770000000 1.0
C      1  0.4982280000000  0.4983140000000  0.4650910000000 1.0
C      1  0.4260430000000  0.5057350000000  0.4531410000000 1.0
C      1  0.5296560000000  0.5524520000000  0.4452850000000 1.0
C      1  0.5037730000000  0.5116540000000  0.4403240000000 1.0
C      1  0.4628210000000  0.4515400000000  0.4944360000000 1.0
C      1  0.5047000000000  0.5646280000000  0.5397600000000 1.0
C      1  0.5257350000000  0.4503180000000  0.5435880000000 1.0
C      1  0.5357730000000  0.4978600000000  0.5603660000000 1.0
C      1  0.5568690000000  0.5323210000000  0.4730930000000 1.0
C      1  0.5874340000000  0.4395560000000  0.4199790000000 1.0
C      1  0.5172700000000  0.4738010000000  0.5586090000000 1.0
C      1  0.5217400000000  0.5213330000000  0.5097650000000 1.0
C      1  0.4772470000000  0.4663210000000  0.5138450000000 1.0
C      1  0.5600750000000  0.4619000000000  0.4605790000000 1.0
C      1  0.5530920000000  0.5115570000000  0.4539050000000 1.0
C      1  0.5793110000000  0.5473000000000  0.5077490000000 1.0
C      1  0.3883300000000  0.4971840000000  0.5674850000000 1.0
C      1  0.5734570000000  0.4942770000000  0.4979540000000 1.0
C      1  0.4463800000000  0.4647470000000  0.4751670000000 1.0
C      1  0.4344610000000  0.5297440000000  0.4435560000000 1.0
C      1  0.5297710000000  0.5234610000000  0.4394150000000 1.0
C      1  0.5032490000000  0.4716940000000  0.4634770000000 1.0
C      1  0.5632080000000  0.4800060000000  0.5220060000000 1.0
C      1  0.4557900000000  0.5065750000000  0.5292160000000 1.0
C      1  0.5742540000000  0.4502010000000  0.4397810000000 1.0
C      1  0.5064390000000  0.5758520000000  0.5137010000000 1.0
C      1  0.4216810000000  0.5319400000000  0.5546040000000 1.0
C      1  0.4635230000000  0.4842550000000  0.4322830000000 1.0
C      1  0.4626790000000  0.5142400000000  0.5029720000000 1.0
C      1  0.5111610000000  0.4980730000000  0.5146660000000 1.0
C      1  0.5400850000000  0.4484430000000  0.4751340000000 1.0
C      1  0.4670270000000  0.4793370000000  0.5392960000000 1.0
C      1  0.5853030000000  0.5205980000000  0.5039110000000 1.0
C      1  0.5201240000000  0.5229330000000  0.5638080000000 1.0
C      1  0.5644580000000  0.4886910000000  0.4691140000000 1.0
C      1  0.4769400000000  0.5114720000000  0.4287810000000 1.0
C      1  0.5499310000000  0.5593190000000  0.5433560000000 1.0
C      1  0.5044370000000  0.4721730000000  0.5071410000000 1.0
C      1  0.4211710000000  0.4599570000000  0.5617280000000 1.0
C      1  0.5250470000000  0.5491900000000  0.5530270000000 1.0
C      1  0.4615310000000  0.5353910000000  0.4367500000000 1.0
C      1  0.5450460000000  0.4574920000000  0.5220110000000 1.0
C      1  0.4796960000000  0.5108010000000  0.4825560000000 1.0
C      1  0.4786410000000  0.4346680000000  0.4385690000000 1.0
C      1  0.5276390000000  0.4563870000000  0.4988610000000 1.0
C      1  0.5209910000000  0.5678120000000  0.4681970000000 1.0
C      1  0.4926780000000  0.5137450000000  0.5677770000000 1.0
C      1  0.4844270000000  0.5776450000000  0.4953900000000 1.0
C      1  0.4692380000000  0.5292040000000  0.5682710000000 1.0
C      1  0.5567330000000  0.5642870000000  0.5154240000000 1.0
C      1  0.4911130000000  0.5700180000000  0.4686060000000 1.0
C      1  0.3981700000000  0.5214660000000  0.5618620000000 1.0
C      1  0.4903030000000  0.4856120000000  0.5590490000000 1.0
C      1  0.4458970000000  0.4630950000000  0.5523330000000 1.0
C      1  0.4933340000000  0.4191370000000  0.5130540000000 1.0
C      1  0.4746590000000  0.5576120000000  0.4491360000000 1.0
END
