TITL C-612601-4209-1252 0.00373646587794418 125000 -340.81890301829 0 0 57 (C1) n - 1
REM
REM in /home/nfs/bkarasulu/CARBON/AIRSS/Generating-Clusters/TERSOFF/Only-C1/FIRE-HFTN
REM
REM
REM
REM
REM
REM ./C.cell (11c1c37f851c82e70ff6c80c92926a4b)
REM AIRSS Version 0.9.1 bugfix July 2018 build 013d7b7c2542+ Fri, 06 Jul 2018 19:26:36 +0100
REM compiler GCC version 9.2.1 20190827 (Red Hat 9.2.1-1)
REM options -cpp -mtune=generic -march=x86-64 -g -O0 -fpre-include=/usr/include/finclude/math-vector-fortran.h
REM seed -1096967087 62086193 -1140586576 -844013870 1927393381 -1962612720 1420733106 1721542437 -1146423874 1674361304 -2013106693 1537051470 539749974 -186461750 1320549904 706498365 -330599387 -2007762907 1307718673 1310800820 1494499441 -203419736 -1541987991 -705584990 1969083484 -2134658273 -325191886 -1779654632 552433814 1730121437 -791729956 1768482470 -1339491145
REM
CELL 1.54180   50.00000   50.00000   50.00000   90.00000   90.00000   90.00000
LATT -1
SFAC C  
C      1  0.5667290000000  0.4764990000000  0.5075930000000 1.0
C      1  0.4689760000000  0.4657610000000  0.4523710000000 1.0
C      1  0.4695060000000  0.5146870000000  0.4633200000000 1.0
C      1  0.4419800000000  0.4562850000000  0.5153800000000 1.0
C      1  0.5317840000000  0.5965110000000  0.5180310000000 1.0
C      1  0.5028710000000  0.5051100000000  0.4115700000000 1.0
C      1  0.4944830000000  0.4795710000000  0.4128120000000 1.0
C      1  0.5205550000000  0.4618290000000  0.4923220000000 1.0
C      1  0.4889260000000  0.5558940000000  0.4841300000000 1.0
C      1  0.4692070000000  0.5685150000000  0.5267380000000 1.0
C      1  0.5701730000000  0.5023050000000  0.5207480000000 1.0
C      1  0.5118850000000  0.5443760000000  0.4418010000000 1.0
C      1  0.5813230000000  0.5117840000000  0.4408070000000 1.0
C      1  0.4789710000000  0.4820450000000  0.5278190000000 1.0
C      1  0.5069640000000  0.4817030000000  0.4767720000000 1.0
C      1  0.5929040000000  0.4692070000000  0.4633500000000 1.0
C      1  0.4518560000000  0.4745450000000  0.5348750000000 1.0
C      1  0.5562450000000  0.5300160000000  0.4819400000000 1.0
C      1  0.5175500000000  0.5735240000000  0.5224860000000 1.0
C      1  0.5733590000000  0.5242960000000  0.5036100000000 1.0
C      1  0.4346860000000  0.5394350000000  0.5473540000000 1.0
C      1  0.4504050000000  0.4770340000000  0.5633770000000 1.0
C      1  0.4870220000000  0.5068710000000  0.5175650000000 1.0
C      1  0.4690890000000  0.5341430000000  0.4844170000000 1.0
C      1  0.4920570000000  0.5699680000000  0.5096660000000 1.0
C      1  0.4779970000000  0.4604300000000  0.4255850000000 1.0
C      1  0.4575670000000  0.4427400000000  0.4949370000000 1.0
C      1  0.4980890000000  0.4804640000000  0.5798980000000 1.0
C      1  0.4602130000000  0.4887360000000  0.6099620000000 1.0
C      1  0.5126140000000  0.5154210000000  0.5063120000000 1.0
C      1  0.4553360000000  0.5439020000000  0.5294710000000 1.0
C      1  0.5504800000000  0.5051040000000  0.5422790000000 1.0
C      1  0.5073960000000  0.4364630000000  0.4898420000000 1.0
C      1  0.5124160000000  0.5477420000000  0.4699680000000 1.0
C      1  0.4880020000000  0.4347280000000  0.5315800000000 1.0
C      1  0.4714300000000  0.4372280000000  0.4126630000000 1.0
C      1  0.5132670000000  0.4717300000000  0.5573620000000 1.0
C      1  0.4521530000000  0.4479840000000  0.4673260000000 1.0
C      1  0.4829300000000  0.4314250000000  0.5037030000000 1.0
C      1  0.5281900000000  0.5302680000000  0.4864670000000 1.0
C      1  0.4947020000000  0.4608820000000  0.5392140000000 1.0
C      1  0.5670710000000  0.5285500000000  0.4560580000000 1.0
C      1  0.4685570000000  0.5255710000000  0.4369390000000 1.0
C      1  0.5394750000000  0.4678480000000  0.5138290000000 1.0
C      1  0.4511540000000  0.4954860000000  0.6334480000000 1.0
C      1  0.4813310000000  0.4880930000000  0.4656390000000 1.0
C      1  0.5351600000000  0.4802860000000  0.5414180000000 1.0
C      1  0.5832860000000  0.4657610000000  0.4880380000000 1.0
C      1  0.4457700000000  0.5326870000000  0.4239250000000 1.0
C      1  0.4155420000000  0.5356610000000  0.5646300000000 1.0
C      1  0.5921810000000  0.4874490000000  0.4437450000000 1.0
C      1  0.4301250000000  0.4366330000000  0.4556070000000 1.0
C      1  0.4949820000000  0.5279660000000  0.4260200000000 1.0
C      1  0.5398320000000  0.5306410000000  0.5479900000000 1.0
C      1  0.4695400000000  0.4820220000000  0.5845000000000 1.0
C      1  0.4655320000000  0.5247210000000  0.5111030000000 1.0
C      1  0.5281710000000  0.5534600000000  0.5396920000000 1.0
END
