TITL C-612604-1799-193 2.51562911505791 125000 -504.151533826397 0 0 84 (C1) n - 1
REM
REM in /home/nfs/bkarasulu/CARBON/AIRSS/Generating-Clusters/TERSOFF/Only-C1/FIRE-HFTN
REM
REM
REM
REM
REM
REM ./C.cell (11c1c37f851c82e70ff6c80c92926a4b)
REM AIRSS Version 0.9.1 bugfix July 2018 build 013d7b7c2542+ Fri, 06 Jul 2018 19:26:36 +0100
REM compiler GCC version 9.2.1 20190827 (Red Hat 9.2.1-1)
REM options -cpp -mtune=generic -march=x86-64 -g -O0 -fpre-include=/usr/include/finclude/math-vector-fortran.h
REM seed -2054357078 -61792752 -1197633754 -266520053 2110083854 -1604565932 1157559128 1268131895 831576029 1056180087 505877312 1646653844 -1548285865 -1742971626 -1497717362 -274422310 -1253350260 -1011445118 211154272 2007405832 -1161459143 -766228431 -8377636 754912177 1400056560 -1105589119 -1913101601 33463244 -2061755736 1409384938 -1776724273 -1797107500 1074424774
REM
CELL 1.54180   50.00000   50.00000   50.00000   90.00000   90.00000   90.00000
LATT -1
SFAC C  
C      1  0.3976240000000  0.5385840000000  0.5425610000000 1.0
C      1  0.5919250000000  0.5307640000000  0.3872050000000 1.0
C      1  0.4431110000000  0.5125680000000  0.5364020000000 1.0
C      1  0.5570920000000  0.5437340000000  0.4249550000000 1.0
C      1  0.4698990000000  0.5252290000000  0.4945780000000 1.0
C      1  0.5858230000000  0.4846690000000  0.4680150000000 1.0
C      1  0.5095050000000  0.5580680000000  0.4300990000000 1.0
C      1  0.5913250000000  0.5317270000000  0.5152330000000 1.0
C      1  0.5357300000000  0.5509360000000  0.4410040000000 1.0
C      1  0.4895700000000  0.4737330000000  0.5678030000000 1.0
C      1  0.5163370000000  0.4683840000000  0.5759260000000 1.0
C      1  0.5346020000000  0.5539630000000  0.4701750000000 1.0
C      1  0.4707400000000  0.3641190000000  0.5059350000000 1.0
C      1  0.3923020000000  0.5052030000000  0.4564890000000 1.0
C      1  0.4854270000000  0.5159410000000  0.4300690000000 1.0
C      1  0.5171660000000  0.4720330000000  0.4298680000000 1.0
C      1  0.5617760000000  0.4888970000000  0.5721700000000 1.0
C      1  0.5324120000000  0.5008070000000  0.5090530000000 1.0
C      1  0.5532310000000  0.5494870000000  0.4911140000000 1.0
C      1  0.5028410000000  0.4941160000000  0.4268530000000 1.0
C      1  0.4203680000000  0.4435870000000  0.5347020000000 1.0
C      1  0.4971510000000  0.5750690000000  0.4501890000000 1.0
C      1  0.5285960000000  0.4498270000000  0.4387350000000 1.0
C      1  0.4843800000000  0.5350880000000  0.5385340000000 1.0
C      1  0.5702230000000  0.4772750000000  0.4883060000000 1.0
C      1  0.4027340000000  0.4938620000000  0.5236030000000 1.0
C      1  0.5798890000000  0.5012710000000  0.5567400000000 1.0
C      1  0.5368360000000  0.5258040000000  0.6165170000000 1.0
C      1  0.5357780000000  0.4881360000000  0.5836250000000 1.0
C      1  0.4683410000000  0.4680020000000  0.5500080000000 1.0
C      1  0.5539870000000  0.5813760000000  0.5585140000000 1.0
C      1  0.4680020000000  0.3906620000000  0.5134730000000 1.0
C      1  0.5378380000000  0.4289180000000  0.4521420000000 1.0
C      1  0.5460220000000  0.4097270000000  0.4684900000000 1.0
C      1  0.3713040000000  0.5380100000000  0.5355910000000 1.0
C      1  0.4234560000000  0.4712460000000  0.5236640000000 1.0
C      1  0.4153170000000  0.5179400000000  0.5353060000000 1.0
C      1  0.5934520000000  0.5324390000000  0.4670100000000 1.0
C      1  0.5270940000000  0.4438470000000  0.5669990000000 1.0
C      1  0.4604910000000  0.4739570000000  0.4800100000000 1.0
C      1  0.5102250000000  0.5285890000000  0.5462970000000 1.0
C      1  0.5805790000000  0.5409720000000  0.4904390000000 1.0
C      1  0.4622740000000  0.5118830000000  0.4464920000000 1.0
C      1  0.4681890000000  0.4427080000000  0.5367880000000 1.0
C      1  0.4353270000000  0.4703860000000  0.4960670000000 1.0
C      1  0.4924040000000  0.5400820000000  0.4164870000000 1.0
C      1  0.5511540000000  0.4789130000000  0.5089630000000 1.0
C      1  0.4636850000000  0.5254340000000  0.5225250000000 1.0
C      1  0.5960360000000  0.5072720000000  0.4578470000000 1.0
C      1  0.5580620000000  0.5825880000000  0.5847950000000 1.0
C      1  0.4423810000000  0.4718910000000  0.4323830000000 1.0
C      1  0.4862590000000  0.4111450000000  0.5058450000000 1.0
C      1  0.4545300000000  0.4598280000000  0.4534710000000 1.0
C      1  0.4466650000000  0.4003440000000  0.5296700000000 1.0
C      1  0.4827370000000  0.4594380000000  0.4938290000000 1.0
C      1  0.5566730000000  0.5711820000000  0.6088650000000 1.0
C      1  0.5474220000000  0.5695150000000  0.5356430000000 1.0
C      1  0.5163150000000  0.5008320000000  0.4866280000000 1.0
C      1  0.4128640000000  0.5090830000000  0.4398610000000 1.0
C      1  0.5403120000000  0.4397520000000  0.5440440000000 1.0
C      1  0.3811950000000  0.4978830000000  0.4796120000000 1.0
C      1  0.4657950000000  0.6180200000000  0.4435310000000 1.0
C      1  0.5901080000000  0.5169700000000  0.5375910000000 1.0
C      1  0.5063770000000  0.5623800000000  0.4746840000000 1.0
C      1  0.5477480000000  0.4556080000000  0.5240090000000 1.0
C      1  0.6095660000000  0.5237330000000  0.3693450000000 1.0
C      1  0.5533330000000  0.3916830000000  0.4858270000000 1.0
C      1  0.5299080000000  0.5242900000000  0.5260270000000 1.0
C      1  0.5487050000000  0.5492170000000  0.6218480000000 1.0
C      1  0.4812500000000  0.5973100000000  0.4468990000000 1.0
C      1  0.3795450000000  0.4992680000000  0.5075640000000 1.0
C      1  0.4435270000000  0.4272470000000  0.5376980000000 1.0
C      1  0.5427130000000  0.5485930000000  0.5176570000000 1.0
C      1  0.3617540000000  0.5182020000000  0.5194690000000 1.0
C      1  0.4870920000000  0.5466510000000  0.4874130000000 1.0
C      1  0.4735900000000  0.3392260000000  0.4987620000000 1.0
C      1  0.4388250000000  0.5000780000000  0.4344210000000 1.0
C      1  0.4835280000000  0.4384970000000  0.5127870000000 1.0
C      1  0.4470550000000  0.4844560000000  0.5410710000000 1.0
C      1  0.5270640000000  0.5131790000000  0.5935620000000 1.0
C      1  0.5741870000000  0.5377200000000  0.4056280000000 1.0
C      1  0.4829450000000  0.5455210000000  0.3914480000000 1.0
C      1  0.5153840000000  0.5288480000000  0.5736220000000 1.0
C      1  0.4650140000000  0.5045780000000  0.4749220000000 1.0
END
