TITL C-612603-7354-593 0.000142344152422801 125000 -765.357967348196 0 0 125 (C1) n - 1
REM
REM in /home/nfs/bkarasulu/CARBON/AIRSS/Generating-Clusters/TERSOFF/Only-C1/FIRE-HFTN
REM
REM
REM
REM
REM
REM ./C.cell (11c1c37f851c82e70ff6c80c92926a4b)
REM AIRSS Version 0.9.1 bugfix July 2018 build 013d7b7c2542+ Fri, 06 Jul 2018 19:26:36 +0100
REM compiler GCC version 9.2.1 20190827 (Red Hat 9.2.1-1)
REM options -cpp -mtune=generic -march=x86-64 -g -O0 -fpre-include=/usr/include/finclude/math-vector-fortran.h
REM seed 968151149 1459684029 -1772007463 -1665225967 2013365020 2030526142 1294424756 -1546805840 -1812750601 -1487041007 1429339905 -2023559911 2133185158 2076836638 -544915346 -890916122 859493467 -2018071742 -758305573 -1284772176 837819916 1148411515 -1431613961 -1149859692 381582886 339055736 243730174 1484742650 -14341242 -1573619657 -22369961 1595005154 -8655750
REM
CELL 1.54180   50.00000   50.00000   50.00000   90.00000   90.00000   90.00000
LATT -1
SFAC C  
C      1  0.5568330000000  0.4734950000000  0.5125250000000 1.0
C      1  0.5429150000000  0.5169580000000  0.4500660000000 1.0
C      1  0.4343890000000  0.5152990000000  0.4800390000000 1.0
C      1  0.5076490000000  0.4121120000000  0.5190700000000 1.0
C      1  0.6309630000000  0.5154100000000  0.4671260000000 1.0
C      1  0.5311900000000  0.4166590000000  0.5011810000000 1.0
C      1  0.4774770000000  0.5017490000000  0.4071940000000 1.0
C      1  0.5111790000000  0.4749190000000  0.5562630000000 1.0
C      1  0.4953720000000  0.4906840000000  0.4556150000000 1.0
C      1  0.5259940000000  0.5254460000000  0.5078900000000 1.0
C      1  0.4904820000000  0.4752860000000  0.4090480000000 1.0
C      1  0.5964100000000  0.5503320000000  0.4667990000000 1.0
C      1  0.4787900000000  0.4514080000000  0.5134940000000 1.0
C      1  0.4187730000000  0.5706730000000  0.4806720000000 1.0
C      1  0.4836880000000  0.5738590000000  0.5348940000000 1.0
C      1  0.5215610000000  0.4856420000000  0.6038570000000 1.0
C      1  0.4317920000000  0.5422360000000  0.5497730000000 1.0
C      1  0.4808050000000  0.4059590000000  0.5028940000000 1.0
C      1  0.5298560000000  0.4395490000000  0.6165200000000 1.0
C      1  0.4745400000000  0.4949570000000  0.4993490000000 1.0
C      1  0.5298980000000  0.5932670000000  0.4733550000000 1.0
C      1  0.5586370000000  0.4222420000000  0.5082870000000 1.0
C      1  0.4468070000000  0.4509530000000  0.4571310000000 1.0
C      1  0.5612470000000  0.4455480000000  0.5243490000000 1.0
C      1  0.5136620000000  0.4570980000000  0.6031270000000 1.0
C      1  0.5030730000000  0.5786320000000  0.5130130000000 1.0
C      1  0.4933350000000  0.4062590000000  0.4494810000000 1.0
C      1  0.5747490000000  0.5510740000000  0.5493900000000 1.0
C      1  0.6050550000000  0.5231820000000  0.4704730000000 1.0
C      1  0.5476380000000  0.4968990000000  0.5981350000000 1.0
C      1  0.4390040000000  0.4325630000000  0.5289380000000 1.0
C      1  0.5831170000000  0.4643370000000  0.4358800000000 1.0
C      1  0.5273160000000  0.4960360000000  0.5455270000000 1.0
C      1  0.5071030000000  0.5255350000000  0.4874240000000 1.0
C      1  0.4736100000000  0.4335440000000  0.4919520000000 1.0
C      1  0.5539670000000  0.4906980000000  0.5376160000000 1.0
C      1  0.4921460000000  0.5264810000000  0.4103920000000 1.0
C      1  0.4043760000000  0.5057470000000  0.5180600000000 1.0
C      1  0.4638640000000  0.4472870000000  0.5401020000000 1.0
C      1  0.5534860000000  0.5233060000000  0.5871480000000 1.0
C      1  0.4906840000000  0.5276420000000  0.5373100000000 1.0
C      1  0.4480800000000  0.4911570000000  0.4854690000000 1.0
C      1  0.4550030000000  0.4282280000000  0.4707480000000 1.0
C      1  0.5797320000000  0.4164720000000  0.4906280000000 1.0
C      1  0.5190700000000  0.4760470000000  0.4531420000000 1.0
C      1  0.5219970000000  0.5981560000000  0.5028880000000 1.0
C      1  0.4542890000000  0.4540230000000  0.4304640000000 1.0
C      1  0.4935700000000  0.5676120000000  0.4874300000000 1.0
C      1  0.4381770000000  0.4914480000000  0.5508090000000 1.0
C      1  0.4950780000000  0.4737430000000  0.5081490000000 1.0
C      1  0.4859470000000  0.4401400000000  0.5883910000000 1.0
C      1  0.5167200000000  0.5187860000000  0.5332340000000 1.0
C      1  0.4285710000000  0.5831210000000  0.4583620000000 1.0
C      1  0.5592850000000  0.5183150000000  0.4735860000000 1.0
C      1  0.4410370000000  0.4049470000000  0.4667860000000 1.0
C      1  0.4409540000000  0.5184620000000  0.5624300000000 1.0
C      1  0.4891540000000  0.3937730000000  0.4744460000000 1.0
C      1  0.4130660000000  0.4587320000000  0.4908130000000 1.0
C      1  0.5802760000000  0.5827220000000  0.4351780000000 1.0
C      1  0.5455190000000  0.6033160000000  0.5184730000000 1.0
C      1  0.4187390000000  0.4836580000000  0.5311810000000 1.0
C      1  0.5951400000000  0.4460200000000  0.4512890000000 1.0
C      1  0.5232090000000  0.4710780000000  0.4997740000000 1.0
C      1  0.4666820000000  0.4339040000000  0.6066660000000 1.0
C      1  0.6017900000000  0.4946750000000  0.5407810000000 1.0
C      1  0.3884870000000  0.4643990000000  0.4781550000000 1.0
C      1  0.5080660000000  0.5484380000000  0.4714570000000 1.0
C      1  0.4201390000000  0.5536320000000  0.5040260000000 1.0
C      1  0.5436450000000  0.4487660000000  0.4142110000000 1.0
C      1  0.4024950000000  0.5130660000000  0.4224140000000 1.0
C      1  0.4603460000000  0.4735880000000  0.5531110000000 1.0
C      1  0.4716740000000  0.5144770000000  0.5215280000000 1.0
C      1  0.4264080000000  0.5163170000000  0.4101870000000 1.0
C      1  0.5221060000000  0.5380820000000  0.4473640000000 1.0
C      1  0.4900840000000  0.5065420000000  0.4776430000000 1.0
C      1  0.4827430000000  0.5441390000000  0.5797540000000 1.0
C      1  0.5327990000000  0.5420440000000  0.5931070000000 1.0
C      1  0.4769580000000  0.5958600000000  0.4542190000000 1.0
C      1  0.4786010000000  0.4990520000000  0.5878780000000 1.0
C      1  0.5246500000000  0.4584710000000  0.4743960000000 1.0
C      1  0.5091440000000  0.5751560000000  0.4242840000000 1.0
C      1  0.5491820000000  0.6217100000000  0.5379740000000 1.0
C      1  0.5014490000000  0.5061250000000  0.6031150000000 1.0
C      1  0.4354200000000  0.4683720000000  0.4756260000000 1.0
C      1  0.5755920000000  0.5664510000000  0.5271630000000 1.0
C      1  0.5231690000000  0.4480230000000  0.5533280000000 1.0
C      1  0.5838070000000  0.5050060000000  0.4772310000000 1.0
C      1  0.4562950000000  0.5794700000000  0.5259690000000 1.0
C      1  0.4841190000000  0.4816950000000  0.5661890000000 1.0
C      1  0.5245740000000  0.4302560000000  0.4185840000000 1.0
C      1  0.4736820000000  0.5865300000000  0.4806850000000 1.0
C      1  0.3811350000000  0.4809700000000  0.4581660000000 1.0
C      1  0.5764910000000  0.5031920000000  0.5499320000000 1.0
C      1  0.5705540000000  0.5270740000000  0.5642290000000 1.0
C      1  0.4343980000000  0.5607520000000  0.5283470000000 1.0
C      1  0.5826590000000  0.4843080000000  0.4976140000000 1.0
C      1  0.5510070000000  0.5300110000000  0.4977020000000 1.0
C      1  0.4569090000000  0.5947830000000  0.5018510000000 1.0
C      1  0.4498740000000  0.5935810000000  0.4441940000000 1.0
C      1  0.4483480000000  0.4987830000000  0.4079090000000 1.0
C      1  0.5573840000000  0.4706580000000  0.4263820000000 1.0
C      1  0.6049790000000  0.4844020000000  0.5158030000000 1.0
C      1  0.5507750000000  0.4436940000000  0.5505970000000 1.0
C      1  0.5087960000000  0.5462070000000  0.4232480000000 1.0
C      1  0.4531250000000  0.4043920000000  0.5207560000000 1.0
C      1  0.4819750000000  0.4321370000000  0.5603370000000 1.0
C      1  0.4197520000000  0.4556510000000  0.5191520000000 1.0
C      1  0.5404570000000  0.4896010000000  0.4399100000000 1.0
C      1  0.5056680000000  0.5924930000000  0.4471610000000 1.0
C      1  0.4411230000000  0.5297380000000  0.4579420000000 1.0
C      1  0.5587870000000  0.5820450000000  0.4782890000000 1.0
C      1  0.5259820000000  0.4305430000000  0.4765260000000 1.0
C      1  0.4984180000000  0.4276960000000  0.4296750000000 1.0
C      1  0.5056280000000  0.5347670000000  0.5962230000000 1.0
C      1  0.4623030000000  0.5221190000000  0.5813010000000 1.0
C      1  0.3774730000000  0.5086070000000  0.5231880000000 1.0
C      1  0.5932280000000  0.4271750000000  0.4701380000000 1.0
C      1  0.5061640000000  0.4258940000000  0.5453340000000 1.0
C      1  0.5784930000000  0.5716330000000  0.4602510000000 1.0
C      1  0.4815700000000  0.4505210000000  0.4225140000000 1.0
C      1  0.5647490000000  0.5841340000000  0.5078030000000 1.0
C      1  0.4405140000000  0.4717700000000  0.4136040000000 1.0
C      1  0.4869420000000  0.5515090000000  0.5522920000000 1.0
C      1  0.3868790000000  0.4989740000000  0.4391110000000 1.0
C      1  0.4173100000000  0.5250240000000  0.5004400000000 1.0
END
