TITL C-612604-1799-743 -205.748621446707 125000 -1039.58437457895 0 0 171 (C1) n - 1
REM
REM in /home/nfs/bkarasulu/CARBON/AIRSS/Generating-Clusters/TERSOFF/Only-C1/FIRE-HFTN
REM
REM
REM
REM
REM
REM ./C.cell (11c1c37f851c82e70ff6c80c92926a4b)
REM AIRSS Version 0.9.1 bugfix July 2018 build 013d7b7c2542+ Fri, 06 Jul 2018 19:26:36 +0100
REM compiler GCC version 9.2.1 20190827 (Red Hat 9.2.1-1)
REM options -cpp -mtune=generic -march=x86-64 -g -O0 -fpre-include=/usr/include/finclude/math-vector-fortran.h
REM seed -1907884024 -1936111736 -1531018214 1197590312 -1707630446 1393757486 182040179 17631986 -4390320 310638378 -1391387433 -1757080652 727088437 146359022 -918787758 1267164403 -1966147441 748997725 232744630 1944512509 1753219407 -1519772030 1850079754 182103270 374021240 -1979725176 -1887863882 -185026672 -2091944671 -1583185837 646565878 1066922755 -1964516099
REM
CELL 1.54180   50.00000   50.00000   50.00000   90.00000   90.00000   90.00000
LATT -1
SFAC C  
C      1  0.5218290000000  0.5460340000000  0.5544250000000 1.0
C      1  0.5190720000000  0.4152520000000  0.5080290000000 1.0
C      1  0.4969700000000  0.4769370000000  0.4891630000000 1.0
C      1  0.4590790000000  0.5434390000000  0.3810250000000 1.0
C      1  0.5028150000000  0.4991100000000  0.4117740000000 1.0
C      1  0.4976860000000  0.5301560000000  0.5998270000000 1.0
C      1  0.5542510000000  0.5730430000000  0.5227940000000 1.0
C      1  0.5566990000000  0.5214590000000  0.4202920000000 1.0
C      1  0.4370820000000  0.5282580000000  0.5344440000000 1.0
C      1  0.5833140000000  0.5292240000000  0.4258850000000 1.0
C      1  0.4848050000000  0.3951550000000  0.4171840000000 1.0
C      1  0.4241300000000  0.4762010000000  0.4852970000000 1.0
C      1  0.3941450000000  0.5023390000000  0.5314330000000 1.0
C      1  0.5456180000000  0.5522040000000  0.5947040000000 1.0
C      1  0.5714740000000  0.5168380000000  0.5395500000000 1.0
C      1  0.4851370000000  0.5568070000000  0.6026860000000 1.0
C      1  0.4875500000000  0.4582090000000  0.4698150000000 1.0
C      1  0.5942060000000  0.3632660000000  0.4300370000000 1.0
C      1  0.5116720000000  0.5509250000000  0.5062280000000 1.0
C      1  0.4756190000000  0.5101530000000  0.5471110000000 1.0
C      1  0.6015850000000  0.5507200000000  0.5248430000000 1.0
C      1  0.5587400000000  0.4575570000000  0.5042420000000 1.0
C      1  0.5123130000000  0.4281900000000  0.4372710000000 1.0
C      1  0.3878090000000  0.4922280000000  0.5052240000000 1.0
C      1  0.5380130000000  0.3718080000000  0.4959340000000 1.0
C      1  0.4969230000000  0.6352850000000  0.5412510000000 1.0
C      1  0.4539400000000  0.5048130000000  0.5300150000000 1.0
C      1  0.5193570000000  0.4652110000000  0.6243200000000 1.0
C      1  0.5287530000000  0.5591090000000  0.5290470000000 1.0
C      1  0.5214330000000  0.5555890000000  0.4368980000000 1.0
C      1  0.5518900000000  0.4426450000000  0.5678240000000 1.0
C      1  0.4656710000000  0.4569600000000  0.5357840000000 1.0
C      1  0.4720360000000  0.5658790000000  0.5389320000000 1.0
C      1  0.4972140000000  0.4075020000000  0.5788160000000 1.0
C      1  0.4172310000000  0.4759010000000  0.5741300000000 1.0
C      1  0.4319510000000  0.5600500000000  0.4248640000000 1.0
C      1  0.5406710000000  0.5059520000000  0.5839820000000 1.0
C      1  0.5118100000000  0.3853360000000  0.4578400000000 1.0
C      1  0.5198120000000  0.5139700000000  0.3931510000000 1.0
C      1  0.6163950000000  0.4846060000000  0.4809280000000 1.0
C      1  0.5689670000000  0.4638500000000  0.5770770000000 1.0
C      1  0.4486740000000  0.4681480000000  0.4939710000000 1.0
C      1  0.6142720000000  0.5283250000000  0.5149160000000 1.0
C      1  0.5832160000000  0.4448850000000  0.5105880000000 1.0
C      1  0.4336690000000  0.4921060000000  0.5917010000000 1.0
C      1  0.4339280000000  0.5899040000000  0.4931480000000 1.0
C      1  0.4543640000000  0.5574390000000  0.4054850000000 1.0
C      1  0.4960560000000  0.6202130000000  0.4814180000000 1.0
C      1  0.4075390000000  0.4371080000000  0.5047090000000 1.0
C      1  0.4587810000000  0.5628030000000  0.5931200000000 1.0
C      1  0.5320120000000  0.5731760000000  0.6084590000000 1.0
C      1  0.4008880000000  0.4658380000000  0.4981070000000 1.0
C      1  0.4923770000000  0.4709960000000  0.5722360000000 1.0
C      1  0.4577150000000  0.5442360000000  0.4930900000000 1.0
C      1  0.4520110000000  0.4083440000000  0.4505870000000 1.0
C      1  0.5814860000000  0.5810130000000  0.4325370000000 1.0
C      1  0.4769970000000  0.4542830000000  0.5891400000000 1.0
C      1  0.5181700000000  0.4260000000000  0.4843030000000 1.0
C      1  0.5574290000000  0.4727600000000  0.4799270000000 1.0
C      1  0.6189520000000  0.4554420000000  0.4833030000000 1.0
C      1  0.5156240000000  0.3669730000000  0.5111510000000 1.0
C      1  0.4530610000000  0.5693120000000  0.4941000000000 1.0
C      1  0.5018560000000  0.5532330000000  0.4589100000000 1.0
C      1  0.5637090000000  0.4550390000000  0.4172210000000 1.0
C      1  0.4772460000000  0.5933040000000  0.5405210000000 1.0
C      1  0.5157750000000  0.4700710000000  0.5570440000000 1.0
C      1  0.4896500000000  0.5276120000000  0.4523360000000 1.0
C      1  0.5165020000000  0.4370030000000  0.6181300000000 1.0
C      1  0.5799490000000  0.3802510000000  0.4445270000000 1.0
C      1  0.4479900000000  0.4958530000000  0.3702850000000 1.0
C      1  0.4646920000000  0.4793860000000  0.3833740000000 1.0
C      1  0.5916380000000  0.4642680000000  0.5597210000000 1.0
C      1  0.4403330000000  0.5646590000000  0.5711270000000 1.0
C      1  0.5092670000000  0.4173970000000  0.6009090000000 1.0
C      1  0.4720190000000  0.5135710000000  0.4690570000000 1.0
C      1  0.5072180000000  0.4004920000000  0.4335750000000 1.0
C      1  0.5735980000000  0.4475150000000  0.4431180000000 1.0
C      1  0.5383460000000  0.4917350000000  0.4732600000000 1.0
C      1  0.6194590000000  0.5055790000000  0.5004990000000 1.0
C      1  0.4598550000000  0.4030510000000  0.4243150000000 1.0
C      1  0.3987430000000  0.4872120000000  0.5552340000000 1.0
C      1  0.5282090000000  0.5095910000000  0.5208830000000 1.0
C      1  0.5769010000000  0.4710510000000  0.4594610000000 1.0
C      1  0.4206480000000  0.5854010000000  0.4677050000000 1.0
C      1  0.4351480000000  0.4021070000000  0.5544600000000 1.0
C      1  0.5469690000000  0.5042040000000  0.3996670000000 1.0
C      1  0.4102030000000  0.4713570000000  0.4095900000000 1.0
C      1  0.4832470000000  0.6419080000000  0.4939920000000 1.0
C      1  0.4607350000000  0.4517460000000  0.4742260000000 1.0
C      1  0.5053220000000  0.5667270000000  0.4833440000000 1.0
C      1  0.4242550000000  0.5013730000000  0.4748430000000 1.0
C      1  0.4863580000000  0.5437150000000  0.3721740000000 1.0
C      1  0.5800390000000  0.5717850000000  0.5638540000000 1.0
C      1  0.5391770000000  0.3855690000000  0.4704680000000 1.0
C      1  0.4338430000000  0.6043920000000  0.5180070000000 1.0
C      1  0.5615540000000  0.5995690000000  0.4766550000000 1.0
C      1  0.4598700000000  0.6127770000000  0.5261200000000 1.0
C      1  0.6036720000000  0.5580530000000  0.4748780000000 1.0
C      1  0.5707660000000  0.5961760000000  0.4517960000000 1.0
C      1  0.4841130000000  0.4811890000000  0.4017250000000 1.0
C      1  0.4784120000000  0.5717320000000  0.4167200000000 1.0
C      1  0.4150080000000  0.6002140000000  0.5396060000000 1.0
C      1  0.5967650000000  0.4358140000000  0.4862250000000 1.0
C      1  0.4496560000000  0.5505220000000  0.5475910000000 1.0
C      1  0.5127100000000  0.4652000000000  0.5087200000000 1.0
C      1  0.4898370000000  0.5043000000000  0.4902780000000 1.0
C      1  0.5647650000000  0.3983260000000  0.4605390000000 1.0
C      1  0.5984290000000  0.4896750000000  0.4589400000000 1.0
C      1  0.4329590000000  0.5131180000000  0.4335160000000 1.0
C      1  0.5951260000000  0.4523990000000  0.5353960000000 1.0
C      1  0.4817230000000  0.4106170000000  0.5553320000000 1.0
C      1  0.4601890000000  0.3892480000000  0.4706990000000 1.0
C      1  0.5087370000000  0.5412420000000  0.3897070000000 1.0
C      1  0.4815810000000  0.4964440000000  0.5687250000000 1.0
C      1  0.4230760000000  0.5859770000000  0.5632820000000 1.0
C      1  0.4747790000000  0.4607300000000  0.6155310000000 1.0
C      1  0.4836580000000  0.5068660000000  0.6121860000000 1.0
C      1  0.5360520000000  0.4545150000000  0.5203040000000 1.0
C      1  0.5059690000000  0.5601700000000  0.4124890000000 1.0
C      1  0.5354310000000  0.5279460000000  0.4403040000000 1.0
C      1  0.4203320000000  0.4475200000000  0.5719190000000 1.0
C      1  0.5813110000000  0.5463000000000  0.4816920000000 1.0
C      1  0.3988650000000  0.5664690000000  0.4691130000000 1.0
C      1  0.5070650000000  0.4395090000000  0.4623060000000 1.0
C      1  0.5550540000000  0.4764740000000  0.4023510000000 1.0
C      1  0.5551700000000  0.5914910000000  0.5013160000000 1.0
C      1  0.4003220000000  0.5153200000000  0.4788630000000 1.0
C      1  0.4780330000000  0.6655030000000  0.4814790000000 1.0
C      1  0.4608460000000  0.3940940000000  0.5446730000000 1.0
C      1  0.5800990000000  0.5675670000000  0.5355110000000 1.0
C      1  0.4545560000000  0.5041210000000  0.6049440000000 1.0
C      1  0.4982810000000  0.6096190000000  0.5515830000000 1.0
C      1  0.5450930000000  0.4754130000000  0.6190680000000 1.0
C      1  0.4376200000000  0.5825910000000  0.4437600000000 1.0
C      1  0.6083520000000  0.3464740000000  0.4159820000000 1.0
C      1  0.5249470000000  0.5320590000000  0.5831370000000 1.0
C      1  0.4284100000000  0.4202660000000  0.4907340000000 1.0
C      1  0.3894390000000  0.6098230000000  0.5374660000000 1.0
C      1  0.5048680000000  0.5760700000000  0.6103620000000 1.0
C      1  0.4024900000000  0.4287840000000  0.5313840000000 1.0
C      1  0.5703340000000  0.5502250000000  0.5796080000000 1.0
C      1  0.4434930000000  0.5223790000000  0.3709360000000 1.0
C      1  0.4891590000000  0.3747660000000  0.5040360000000 1.0
C      1  0.4005940000000  0.5391290000000  0.4606590000000 1.0
C      1  0.5784810000000  0.4251380000000  0.4630400000000 1.0
C      1  0.4179410000000  0.5374110000000  0.4358720000000 1.0
C      1  0.5079240000000  0.5109260000000  0.4368840000000 1.0
C      1  0.4550900000000  0.4774200000000  0.5198470000000 1.0
C      1  0.5760610000000  0.5258990000000  0.5648140000000 1.0
C      1  0.5074130000000  0.5221270000000  0.5055050000000 1.0
C      1  0.4180650000000  0.4249250000000  0.5547080000000 1.0
C      1  0.4644540000000  0.3852770000000  0.5174490000000 1.0
C      1  0.4433010000000  0.4305210000000  0.4667470000000 1.0
C      1  0.4093950000000  0.5261880000000  0.5311930000000 1.0
C      1  0.4761650000000  0.6367180000000  0.5208700000000 1.0
C      1  0.5553920000000  0.5179900000000  0.5160320000000 1.0
C      1  0.4462060000000  0.5078970000000  0.4584250000000 1.0
C      1  0.4801000000000  0.4358860000000  0.5430620000000 1.0
C      1  0.4656050000000  0.5890990000000  0.4369390000000 1.0
C      1  0.5604460000000  0.5294350000000  0.4893050000000 1.0
C      1  0.5219330000000  0.4942300000000  0.5432100000000 1.0
C      1  0.5551470000000  0.4834290000000  0.5937840000000 1.0
C      1  0.5331140000000  0.4494390000000  0.5484250000000 1.0
C      1  0.4943030000000  0.4810370000000  0.6233120000000 1.0
C      1  0.4457100000000  0.3954510000000  0.4968320000000 1.0
C      1  0.5886970000000  0.5567590000000  0.4237170000000 1.0
C      1  0.4874530000000  0.3800760000000  0.4747590000000 1.0
C      1  0.5034470000000  0.5946660000000  0.4829790000000 1.0
C      1  0.4237590000000  0.4920980000000  0.4177680000000 1.0
C      1  0.5440520000000  0.5189390000000  0.4682190000000 1.0
C      1  0.5989940000000  0.5106060000000  0.4402480000000 1.0
END
