TITL C-612603-7354-365 9.92482422569426e-05 125000 -716.942241250116 0 0 117 (C1) n - 1
REM
REM in /home/nfs/bkarasulu/CARBON/AIRSS/Generating-Clusters/TERSOFF/Only-C1/FIRE-HFTN
REM
REM
REM
REM
REM
REM ./C.cell (11c1c37f851c82e70ff6c80c92926a4b)
REM AIRSS Version 0.9.1 bugfix July 2018 build 013d7b7c2542+ Fri, 06 Jul 2018 19:26:36 +0100
REM compiler GCC version 9.2.1 20190827 (Red Hat 9.2.1-1)
REM options -cpp -mtune=generic -march=x86-64 -g -O0 -fpre-include=/usr/include/finclude/math-vector-fortran.h
REM seed 1346034893 1217883013 1174790614 -596489287 -560007392 1295830784 -527681224 1620567210 -1816647311 2065601593 -108472527 -388491153 -107041299 -231000592 -379770731 -2032516817 -1180434783 2102522091 618915941 -96866386 1642737589 1654392863 590000518 1080397626 -2088845629 -336996464 -758091737 -1203791596 -1466159134 -405128707 1781410755 -258180443 -1860727614
REM
CELL 1.54180   50.00000   50.00000   50.00000   90.00000   90.00000   90.00000
LATT -1
SFAC C  
C      1  0.5330880000000  0.5132050000000  0.5097060000000 1.0
C      1  0.4961530000000  0.5483910000000  0.6279570000000 1.0
C      1  0.4627500000000  0.4684020000000  0.5098240000000 1.0
C      1  0.4696420000000  0.4497580000000  0.5323310000000 1.0
C      1  0.5867470000000  0.5039940000000  0.4617220000000 1.0
C      1  0.5302290000000  0.5605270000000  0.5743160000000 1.0
C      1  0.4691290000000  0.4012540000000  0.5243760000000 1.0
C      1  0.6013370000000  0.4737350000000  0.5127860000000 1.0
C      1  0.5034570000000  0.3665450000000  0.4690410000000 1.0
C      1  0.5481270000000  0.4554570000000  0.5898460000000 1.0
C      1  0.5277380000000  0.4108140000000  0.4742820000000 1.0
C      1  0.4666120000000  0.4896950000000  0.3765580000000 1.0
C      1  0.5161210000000  0.4957850000000  0.4587140000000 1.0
C      1  0.4360960000000  0.5545470000000  0.4961930000000 1.0
C      1  0.4415760000000  0.5368890000000  0.5583390000000 1.0
C      1  0.5634560000000  0.5000460000000  0.4433360000000 1.0
C      1  0.4487330000000  0.4721830000000  0.4185090000000 1.0
C      1  0.4317480000000  0.5459960000000  0.4354600000000 1.0
C      1  0.5095040000000  0.4508770000000  0.4267780000000 1.0
C      1  0.4061820000000  0.4823540000000  0.4524390000000 1.0
C      1  0.4549010000000  0.4247820000000  0.5315960000000 1.0
C      1  0.5355930000000  0.4333200000000  0.5754700000000 1.0
C      1  0.5957200000000  0.5114780000000  0.5631490000000 1.0
C      1  0.4526590000000  0.4713370000000  0.3906760000000 1.0
C      1  0.5551050000000  0.4167550000000  0.5621570000000 1.0
C      1  0.5697350000000  0.4722150000000  0.5805840000000 1.0
C      1  0.4942140000000  0.3912400000000  0.5327940000000 1.0
C      1  0.5146830000000  0.3860780000000  0.4841880000000 1.0
C      1  0.5203230000000  0.5385830000000  0.6170870000000 1.0
C      1  0.5371700000000  0.6035350000000  0.5109750000000 1.0
C      1  0.5274790000000  0.5362780000000  0.5898710000000 1.0
C      1  0.4945670000000  0.4976750000000  0.4413300000000 1.0
C      1  0.5861700000000  0.4507790000000  0.5041560000000 1.0
C      1  0.5315180000000  0.4671670000000  0.4183340000000 1.0
C      1  0.4856880000000  0.5103910000000  0.5173720000000 1.0
C      1  0.5633520000000  0.4552750000000  0.4859570000000 1.0
C      1  0.5094490000000  0.4984440000000  0.5055000000000 1.0
C      1  0.5390040000000  0.5117980000000  0.4571360000000 1.0
C      1  0.4143010000000  0.5342960000000  0.4562090000000 1.0
C      1  0.4909370000000  0.5450450000000  0.4471110000000 1.0
C      1  0.5252600000000  0.4851240000000  0.3969960000000 1.0
C      1  0.5124620000000  0.4701180000000  0.5436310000000 1.0
C      1  0.4642890000000  0.4975940000000  0.5030580000000 1.0
C      1  0.3521480000000  0.5686450000000  0.5121330000000 1.0
C      1  0.4574880000000  0.5472640000000  0.5379740000000 1.0
C      1  0.5039200000000  0.5697140000000  0.5605790000000 1.0
C      1  0.5821650000000  0.4271780000000  0.5211050000000 1.0
C      1  0.4878890000000  0.6027110000000  0.5216630000000 1.0
C      1  0.4385900000000  0.5741400000000  0.4372550000000 1.0
C      1  0.5436890000000  0.4238650000000  0.4543660000000 1.0
C      1  0.5050580000000  0.5528030000000  0.5347240000000 1.0
C      1  0.5735950000000  0.4673890000000  0.5528170000000 1.0
C      1  0.4029830000000  0.5089210000000  0.4502030000000 1.0
C      1  0.4468280000000  0.5262790000000  0.4191380000000 1.0
C      1  0.4257870000000  0.5251580000000  0.5754330000000 1.0
C      1  0.4583710000000  0.5580640000000  0.4787730000000 1.0
C      1  0.4581510000000  0.4527560000000  0.4379520000000 1.0
C      1  0.5570060000000  0.4792620000000  0.5342570000000 1.0
C      1  0.4828280000000  0.5353140000000  0.5308120000000 1.0
C      1  0.4898280000000  0.5470810000000  0.6543660000000 1.0
C      1  0.6007980000000  0.5027560000000  0.5122810000000 1.0
C      1  0.4832010000000  0.5649250000000  0.5823030000000 1.0
C      1  0.4135330000000  0.5423100000000  0.4843890000000 1.0
C      1  0.4746010000000  0.5380670000000  0.4696680000000 1.0
C      1  0.4940410000000  0.5960020000000  0.5488550000000 1.0
C      1  0.3711850000000  0.5516250000000  0.5069320000000 1.0
C      1  0.4648390000000  0.4549040000000  0.4846970000000 1.0
C      1  0.5079280000000  0.4287320000000  0.5650620000000 1.0
C      1  0.5844380000000  0.4969170000000  0.5837000000000 1.0
C      1  0.4180680000000  0.4627680000000  0.4691310000000 1.0
C      1  0.4069340000000  0.4624000000000  0.4951010000000 1.0
C      1  0.4651150000000  0.5108960000000  0.4759360000000 1.0
C      1  0.5577230000000  0.4496390000000  0.4577180000000 1.0
C      1  0.3920490000000  0.5340060000000  0.5012350000000 1.0
C      1  0.4504700000000  0.5933970000000  0.4533110000000 1.0
C      1  0.5382340000000  0.4051000000000  0.5193450000000 1.0
C      1  0.5106060000000  0.5087180000000  0.3910560000000 1.0
C      1  0.5396810000000  0.5367520000000  0.4704150000000 1.0
C      1  0.5610060000000  0.4124620000000  0.5348250000000 1.0
C      1  0.5652430000000  0.5180490000000  0.4192400000000 1.0
C      1  0.4821380000000  0.5112270000000  0.3858340000000 1.0
C      1  0.4944730000000  0.5427290000000  0.4189420000000 1.0
C      1  0.4285450000000  0.4237510000000  0.5387870000000 1.0
C      1  0.5855030000000  0.5479370000000  0.5321800000000 1.0
C      1  0.5540180000000  0.5053670000000  0.5258940000000 1.0
C      1  0.5159530000000  0.3863290000000  0.5146110000000 1.0
C      1  0.5971640000000  0.5117030000000  0.4853780000000 1.0
C      1  0.4942560000000  0.4492720000000  0.5487410000000 1.0
C      1  0.3971500000000  0.4818480000000  0.5107940000000 1.0
C      1  0.5459080000000  0.5780300000000  0.5196600000000 1.0
C      1  0.4793630000000  0.5596680000000  0.6083030000000 1.0
C      1  0.5555340000000  0.5687300000000  0.5647680000000 1.0
C      1  0.5464520000000  0.5351280000000  0.4096940000000 1.0
C      1  0.4487210000000  0.4990870000000  0.4296970000000 1.0
C      1  0.5187560000000  0.5327710000000  0.4059410000000 1.0
C      1  0.4678320000000  0.4986530000000  0.4505540000000 1.0
C      1  0.4646170000000  0.5911970000000  0.5086760000000 1.0
C      1  0.5963860000000  0.5211060000000  0.5356800000000 1.0
C      1  0.5345920000000  0.4643140000000  0.5263800000000 1.0
C      1  0.4476180000000  0.5674870000000  0.5201620000000 1.0
C      1  0.5134670000000  0.4921060000000  0.5614020000000 1.0
C      1  0.5332810000000  0.5382820000000  0.4974690000000 1.0
C      1  0.4874320000000  0.4503590000000  0.4443290000000 1.0
C      1  0.5228600000000  0.5119140000000  0.5765840000000 1.0
C      1  0.5658200000000  0.5681600000000  0.5382080000000 1.0
C      1  0.4443200000000  0.4527320000000  0.4642380000000 1.0
C      1  0.5257940000000  0.5582000000000  0.5152910000000 1.0
C      1  0.5318630000000  0.4244280000000  0.4993390000000 1.0
C      1  0.5080600000000  0.4809940000000  0.4818040000000 1.0
C      1  0.5112950000000  0.6118300000000  0.5079850000000 1.0
C      1  0.3921970000000  0.5080440000000  0.5119780000000 1.0
C      1  0.5540560000000  0.4706160000000  0.4374510000000 1.0
C      1  0.5014010000000  0.4016820000000  0.5585070000000 1.0
C      1  0.4708920000000  0.5320230000000  0.4040070000000 1.0
C      1  0.4913350000000  0.4579340000000  0.4730770000000 1.0
C      1  0.5395630000000  0.4506360000000  0.5022740000000 1.0
C      1  0.4623620000000  0.5869870000000  0.4787860000000 1.0
END
