TITL C-612606-7351-918 -17036.831575812 125000 -719.966770028611 0 0 119 (C1) n - 1
REM
REM in /home/nfs/bkarasulu/CARBON/AIRSS/Generating-Clusters/TERSOFF/Only-C1/FIRE-HFTN
REM
REM
REM
REM
REM
REM ./C.cell (11c1c37f851c82e70ff6c80c92926a4b)
REM AIRSS Version 0.9.1 bugfix July 2018 build 013d7b7c2542+ Fri, 06 Jul 2018 19:26:36 +0100
REM compiler GCC version 9.2.1 20190827 (Red Hat 9.2.1-1)
REM options -cpp -mtune=generic -march=x86-64 -g -O0 -fpre-include=/usr/include/finclude/math-vector-fortran.h
REM seed -109706685 -1392674012 -1462899592 568140696 552695488 107302038 -1956583950 487853356 -811186867 -1040593868 1257490345 1467529670 2045278858 1478690887 -310213849 321571691 -215419275 390437807 107539610 -1347877104 637244195 -1027023686 -141155343 -1017554573 1320362295 -569213867 -466977036 -169252419 1192767510 1936181028 -793267250 407770186 989596632
REM
CELL 1.54180   50.00000   50.00000   50.00000   90.00000   90.00000   90.00000
LATT -1
SFAC C  
C      1  0.5310610000000  0.5713420000000  0.5763800000000 1.0
C      1  0.3496920000000  0.5456770000000  0.5248460000000 1.0
C      1  0.4907330000000  0.5613390000000  0.5183910000000 1.0
C      1  0.5632550000000  0.5384680000000  0.5145040000000 1.0
C      1  0.5378740000000  0.5028800000000  0.4722720000000 1.0
C      1  0.4598050000000  0.4771140000000  0.6243460000000 1.0
C      1  0.5013220000000  0.4521120000000  0.4074710000000 1.0
C      1  0.4904580000000  0.5560980000000  0.4492730000000 1.0
C      1  0.4894310000000  0.5199650000000  0.4774030000000 1.0
C      1  0.5318530000000  0.4908010000000  0.4474900000000 1.0
C      1  0.4819720000000  0.4035840000000  0.4797390000000 1.0
C      1  0.5722410000000  0.4284210000000  0.4970610000000 1.0
C      1  0.4368840000000  0.5396490000000  0.4794220000000 1.0
C      1  0.5278510000000  0.5068790000000  0.5671650000000 1.0
C      1  0.5387240000000  0.6099130000000  0.5192820000000 1.0
C      1  0.4342340000000  0.5112330000000  0.4743770000000 1.0
C      1  0.4669950000000  0.4642580000000  0.4370180000000 1.0
C      1  0.4267320000000  0.4963790000000  0.5955490000000 1.0
C      1  0.5111420000000  0.5555360000000  0.4982590000000 1.0
C      1  0.5255730000000  0.4809490000000  0.5226200000000 1.0
C      1  0.5533720000000  0.4755820000000  0.4363120000000 1.0
C      1  0.4421120000000  0.4355330000000  0.4682980000000 1.0
C      1  0.4501690000000  0.5003360000000  0.6116440000000 1.0
C      1  0.4271710000000  0.4933210000000  0.5671060000000 1.0
C      1  0.5576960000000  0.5729480000000  0.5740520000000 1.0
C      1  0.5994060000000  0.5282400000000  0.6353430000000 1.0
C      1  0.5788140000000  0.4884720000000  0.4425650000000 1.0
C      1  0.5794250000000  0.4953170000000  0.5665130000000 1.0
C      1  0.4932480000000  0.4558250000000  0.4537720000000 1.0
C      1  0.4210340000000  0.5593110000000  0.5214650000000 1.0
C      1  0.4695460000000  0.5178930000000  0.5995440000000 1.0
C      1  0.3696460000000  0.5633670000000  0.5254900000000 1.0
C      1  0.4460850000000  0.4849870000000  0.4769410000000 1.0
C      1  0.5126550000000  0.4711910000000  0.3901300000000 1.0
C      1  0.4902240000000  0.4652900000000  0.4808390000000 1.0
C      1  0.5855770000000  0.5580290000000  0.5129230000000 1.0
C      1  0.5399290000000  0.5619300000000  0.4248100000000 1.0
C      1  0.5427190000000  0.4488800000000  0.4360350000000 1.0
C      1  0.3805970000000  0.4984920000000  0.5524660000000 1.0
C      1  0.4996040000000  0.5808080000000  0.5372200000000 1.0
C      1  0.4686090000000  0.4468470000000  0.5858250000000 1.0
C      1  0.5545240000000  0.4389270000000  0.5396930000000 1.0
C      1  0.5806220000000  0.4560590000000  0.5037520000000 1.0
C      1  0.5137290000000  0.6031310000000  0.5265070000000 1.0
C      1  0.4138330000000  0.4238060000000  0.3626570000000 1.0
C      1  0.5215500000000  0.4962370000000  0.3868440000000 1.0
C      1  0.3615480000000  0.4728240000000  0.5174950000000 1.0
C      1  0.5663460000000  0.4178290000000  0.5235030000000 1.0
C      1  0.5550310000000  0.4193050000000  0.4762820000000 1.0
C      1  0.5074840000000  0.3635220000000  0.4855940000000 1.0
C      1  0.4498340000000  0.5877320000000  0.4710110000000 1.0
C      1  0.3450800000000  0.5194380000000  0.5269920000000 1.0
C      1  0.4537510000000  0.4391250000000  0.3939040000000 1.0
C      1  0.5805080000000  0.5811210000000  0.5288430000000 1.0
C      1  0.5054180000000  0.5192650000000  0.5259520000000 1.0
C      1  0.5399470000000  0.5503580000000  0.4993730000000 1.0
C      1  0.5737320000000  0.5106890000000  0.5198630000000 1.0
C      1  0.5289920000000  0.5211570000000  0.3930240000000 1.0
C      1  0.6060860000000  0.5542710000000  0.4666620000000 1.0
C      1  0.5393580000000  0.5704310000000  0.4518640000000 1.0
C      1  0.5938590000000  0.4767600000000  0.4894820000000 1.0
C      1  0.5877250000000  0.5044240000000  0.5899630000000 1.0
C      1  0.4968770000000  0.5181180000000  0.6058980000000 1.0
C      1  0.4683120000000  0.4905850000000  0.5370540000000 1.0
C      1  0.5069640000000  0.3907870000000  0.4825720000000 1.0
C      1  0.5978050000000  0.5371880000000  0.4470710000000 1.0
C      1  0.5695050000000  0.4629050000000  0.5307070000000 1.0
C      1  0.4672730000000  0.4191820000000  0.5469470000000 1.0
C      1  0.4886110000000  0.4030750000000  0.5432090000000 1.0
C      1  0.5232490000000  0.5928770000000  0.4591440000000 1.0
C      1  0.3959980000000  0.5671110000000  0.5257940000000 1.0
C      1  0.4047810000000  0.4618420000000  0.5348610000000 1.0
C      1  0.5479180000000  0.5509040000000  0.4711320000000 1.0
C      1  0.5102970000000  0.4595920000000  0.5336530000000 1.0
C      1  0.5236530000000  0.5037940000000  0.5398730000000 1.0
C      1  0.5778650000000  0.5770910000000  0.5568100000000 1.0
C      1  0.3928760000000  0.4184590000000  0.3473210000000 1.0
C      1  0.5335050000000  0.4878210000000  0.4959760000000 1.0
C      1  0.3719650000000  0.4138900000000  0.3324260000000 1.0
C      1  0.4728200000000  0.6023580000000  0.4709600000000 1.0
C      1  0.4449990000000  0.4620170000000  0.4583290000000 1.0
C      1  0.4725260000000  0.4504870000000  0.4106720000000 1.0
C      1  0.4515910000000  0.5030020000000  0.5556870000000 1.0
C      1  0.5939390000000  0.5160500000000  0.6129570000000 1.0
C      1  0.5354670000000  0.5438080000000  0.4056380000000 1.0
C      1  0.5960910000000  0.5023280000000  0.5025460000000 1.0
C      1  0.4993250000000  0.6036700000000  0.4657130000000 1.0
C      1  0.4829280000000  0.5081770000000  0.4532400000000 1.0
C      1  0.4991890000000  0.5456340000000  0.4742170000000 1.0
C      1  0.4643750000000  0.5553660000000  0.4413890000000 1.0
C      1  0.5565050000000  0.4290750000000  0.4500760000000 1.0
C      1  0.5077480000000  0.5734180000000  0.5632140000000 1.0
C      1  0.5719340000000  0.4899040000000  0.5401900000000 1.0
C      1  0.5956330000000  0.4753400000000  0.4612860000000 1.0
C      1  0.5189110000000  0.5124730000000  0.5916890000000 1.0
C      1  0.4716080000000  0.4937380000000  0.4339350000000 1.0
C      1  0.4796790000000  0.5132980000000  0.5121130000000 1.0
C      1  0.4696350000000  0.4451850000000  0.5578600000000 1.0
C      1  0.4051910000000  0.4841550000000  0.5525640000000 1.0
C      1  0.4672720000000  0.4548830000000  0.6112030000000 1.0
C      1  0.4823580000000  0.4655400000000  0.5417470000000 1.0
C      1  0.4676040000000  0.5420730000000  0.5163440000000 1.0
C      1  0.4342260000000  0.4305220000000  0.3782030000000 1.0
C      1  0.5775320000000  0.5173830000000  0.4474820000000 1.0
C      1  0.5140730000000  0.4117140000000  0.5440240000000 1.0
C      1  0.3596100000000  0.4964700000000  0.5331900000000 1.0
C      1  0.4582700000000  0.4153140000000  0.4756450000000 1.0
C      1  0.4448240000000  0.5610130000000  0.4613190000000 1.0
C      1  0.4413050000000  0.5467560000000  0.5070870000000 1.0
C      1  0.6064460000000  0.5493830000000  0.4947150000000 1.0
C      1  0.5261700000000  0.4370600000000  0.5418120000000 1.0
C      1  0.5314380000000  0.4048030000000  0.4824610000000 1.0
C      1  0.5139570000000  0.4481650000000  0.4335450000000 1.0
C      1  0.6154610000000  0.5226870000000  0.5001420000000 1.0
C      1  0.3836090000000  0.4567890000000  0.5184130000000 1.0
C      1  0.4707240000000  0.4833830000000  0.4918210000000 1.0
C      1  0.4634960000000  0.5230950000000  0.5721720000000 1.0
C      1  0.5552310000000  0.5246110000000  0.4640360000000 1.0
C      1  0.5644230000000  0.6020460000000  0.5184960000000 1.0
END
