TITL C-612607-4507-778 73583.4899821102 125000 -1079.40993409291 0 0 176 (C1) n - 1
REM
REM in /home/nfs/bkarasulu/CARBON/AIRSS/Generating-Clusters/TERSOFF/Only-C1/FIRE-HFTN
REM
REM
REM
REM
REM
REM ./C.cell (11c1c37f851c82e70ff6c80c92926a4b)
REM AIRSS Version 0.9.1 bugfix July 2018 build 013d7b7c2542+ Fri, 06 Jul 2018 19:26:36 +0100
REM compiler GCC version 9.2.1 20190827 (Red Hat 9.2.1-1)
REM options -cpp -mtune=generic -march=x86-64 -g -O0 -fpre-include=/usr/include/finclude/math-vector-fortran.h
REM seed -1064120856 -832354451 -1984444497 844790145 660769562 -1118524235 -1383428541 -1826104042 -67363897 751995268 -1157547219 -2004348299 1015049157 -1201912562 1212735913 -7490716 276668285 -428909698 1747203411 -1315619021 1635623072 944296516 -1261406298 1446223415 594832471 -1530843840 553669263 921522926 949637669 1015047070 -3441146 1317938942 261478284
REM
CELL 1.54180   50.00000   50.00000   50.00000   90.00000   90.00000   90.00000
LATT -1
SFAC C  
C      1  0.6573940000000  0.5226550000000  0.4913320000000 1.0
C      1  0.5511460000000  0.5294610000000  0.5082790000000 1.0
C      1  0.5547670000000  0.5043610000000  0.5227540000000 1.0
C      1  0.5420110000000  0.4793300000000  0.4671790000000 1.0
C      1  0.6046070000000  0.5763420000000  0.5640200000000 1.0
C      1  0.5600960000000  0.4477220000000  0.4066080000000 1.0
C      1  0.4058940000000  0.4807800000000  0.3997230000000 1.0
C      1  0.5621480000000  0.5218000000000  0.4599580000000 1.0
C      1  0.4904170000000  0.4749950000000  0.5598090000000 1.0
C      1  0.4449230000000  0.4810220000000  0.4504900000000 1.0
C      1  0.4819740000000  0.3852170000000  0.4289080000000 1.0
C      1  0.4228360000000  0.5162270000000  0.4772110000000 1.0
C      1  0.5651940000000  0.4351720000000  0.6019200000000 1.0
C      1  0.4787810000000  0.6380720000000  0.4744120000000 1.0
C      1  0.4846100000000  0.5372140000000  0.5567320000000 1.0
C      1  0.4396480000000  0.4092510000000  0.4354270000000 1.0
C      1  0.5494180000000  0.5367330000000  0.4399800000000 1.0
C      1  0.4737100000000  0.5674970000000  0.5042840000000 1.0
C      1  0.6155830000000  0.4841890000000  0.4075400000000 1.0
C      1  0.4070540000000  0.5039820000000  0.5483440000000 1.0
C      1  0.4066650000000  0.4649820000000  0.4227760000000 1.0
C      1  0.3690870000000  0.5107300000000  0.4724500000000 1.0
C      1  0.4393010000000  0.5508840000000  0.4214680000000 1.0
C      1  0.4322430000000  0.3403210000000  0.4563230000000 1.0
C      1  0.5096080000000  0.4950460000000  0.5197000000000 1.0
C      1  0.4964060000000  0.4449810000000  0.4321110000000 1.0
C      1  0.3400740000000  0.4692120000000  0.4590890000000 1.0
C      1  0.4179410000000  0.4805840000000  0.5648790000000 1.0
C      1  0.5808360000000  0.4560710000000  0.5210430000000 1.0
C      1  0.4795350000000  0.4497440000000  0.5584700000000 1.0
C      1  0.4719530000000  0.4389610000000  0.4198280000000 1.0
C      1  0.4248740000000  0.5236820000000  0.5861450000000 1.0
C      1  0.5520760000000  0.4716600000000  0.3924710000000 1.0
C      1  0.5018280000000  0.5598810000000  0.5560490000000 1.0
C      1  0.3591140000000  0.4547650000000  0.4444300000000 1.0
C      1  0.5127320000000  0.5617850000000  0.5295880000000 1.0
C      1  0.4951060000000  0.5810900000000  0.4469260000000 1.0
C      1  0.4372910000000  0.5087170000000  0.4528730000000 1.0
C      1  0.5166830000000  0.4183470000000  0.6071870000000 1.0
C      1  0.5827580000000  0.5613200000000  0.5712440000000 1.0
C      1  0.5333600000000  0.4411500000000  0.5341630000000 1.0
C      1  0.6163740000000  0.5600940000000  0.4375640000000 1.0
C      1  0.5300350000000  0.4058620000000  0.4210180000000 1.0
C      1  0.5215100000000  0.5390860000000  0.4436380000000 1.0
C      1  0.4501310000000  0.4202590000000  0.5188180000000 1.0
C      1  0.5157120000000  0.4920230000000  0.4138890000000 1.0
C      1  0.4597880000000  0.5611660000000  0.6011700000000 1.0
C      1  0.4218950000000  0.4575900000000  0.5459150000000 1.0
C      1  0.3830630000000  0.4540820000000  0.4329700000000 1.0
C      1  0.4098120000000  0.5307170000000  0.5602360000000 1.0
C      1  0.5306140000000  0.5690890000000  0.4852320000000 1.0
C      1  0.4741870000000  0.5405330000000  0.4660880000000 1.0
C      1  0.5848130000000  0.4498960000000  0.4222250000000 1.0
C      1  0.6497490000000  0.5411720000000  0.4737320000000 1.0
C      1  0.5063440000000  0.5060460000000  0.4944420000000 1.0
C      1  0.4645830000000  0.6143100000000  0.4790160000000 1.0
C      1  0.4475780000000  0.5674300000000  0.5568360000000 1.0
C      1  0.4931060000000  0.5256910000000  0.6132240000000 1.0
C      1  0.4574350000000  0.5411800000000  0.5496280000000 1.0
C      1  0.5857840000000  0.5084980000000  0.5872000000000 1.0
C      1  0.4132560000000  0.5136280000000  0.3594010000000 1.0
C      1  0.4456540000000  0.4359940000000  0.4291880000000 1.0
C      1  0.6397470000000  0.4767090000000  0.5038120000000 1.0
C      1  0.3148450000000  0.4598480000000  0.4634090000000 1.0
C      1  0.5089410000000  0.4007720000000  0.5618460000000 1.0
C      1  0.4316070000000  0.4602710000000  0.4354180000000 1.0
C      1  0.5119380000000  0.4787260000000  0.5420170000000 1.0
C      1  0.4386490000000  0.5420370000000  0.6030340000000 1.0
C      1  0.5155700000000  0.5635050000000  0.4593160000000 1.0
C      1  0.4569540000000  0.4406400000000  0.4971420000000 1.0
C      1  0.5960640000000  0.4519970000000  0.4953810000000 1.0
C      1  0.5590410000000  0.3873010000000  0.5086550000000 1.0
C      1  0.4480740000000  0.5256180000000  0.4315320000000 1.0
C      1  0.5499840000000  0.5908830000000  0.5463000000000 1.0
C      1  0.4896850000000  0.4958360000000  0.5772960000000 1.0
C      1  0.5011120000000  0.5111470000000  0.4319620000000 1.0
C      1  0.6355640000000  0.5534030000000  0.4547880000000 1.0
C      1  0.5307210000000  0.5202300000000  0.5673460000000 1.0
C      1  0.4733890000000  0.5910150000000  0.4639640000000 1.0
C      1  0.5219720000000  0.4327950000000  0.4740690000000 1.0
C      1  0.5475600000000  0.4555960000000  0.4830490000000 1.0
C      1  0.4662550000000  0.4849130000000  0.5106760000000 1.0
C      1  0.4672400000000  0.3985950000000  0.5277450000000 1.0
C      1  0.4787720000000  0.6233310000000  0.5648930000000 1.0
C      1  0.4087970000000  0.4970190000000  0.3789920000000 1.0
C      1  0.4942380000000  0.4914020000000  0.4546020000000 1.0
C      1  0.4063790000000  0.5549810000000  0.5412230000000 1.0
C      1  0.5740290000000  0.4281650000000  0.5297530000000 1.0
C      1  0.4986650000000  0.4402200000000  0.4605120000000 1.0
C      1  0.4130210000000  0.5570480000000  0.4177070000000 1.0
C      1  0.5021620000000  0.5172830000000  0.5651110000000 1.0
C      1  0.5924110000000  0.5605570000000  0.4258610000000 1.0
C      1  0.4228030000000  0.4710610000000  0.5195920000000 1.0
C      1  0.5036670000000  0.6462160000000  0.4688910000000 1.0
C      1  0.5742020000000  0.4292470000000  0.4493130000000 1.0
C      1  0.5072890000000  0.3918410000000  0.4231740000000 1.0
C      1  0.5439780000000  0.6169490000000  0.4767230000000 1.0
C      1  0.5609650000000  0.4755880000000  0.5129250000000 1.0
C      1  0.4706130000000  0.4753500000000  0.4612620000000 1.0
C      1  0.3487670000000  0.4939650000000  0.4689820000000 1.0
C      1  0.5360880000000  0.6014830000000  0.5228050000000 1.0
C      1  0.5097000000000  0.3849220000000  0.4912170000000 1.0
C      1  0.5103530000000  0.4331860000000  0.5230260000000 1.0
C      1  0.4326190000000  0.5978250000000  0.5218870000000 1.0
C      1  0.5631450000000  0.4150000000000  0.5539470000000 1.0
C      1  0.4867370000000  0.4369900000000  0.5348810000000 1.0
C      1  0.4750670000000  0.4488790000000  0.4745830000000 1.0
C      1  0.4428990000000  0.3618470000000  0.4462080000000 1.0
C      1  0.4862680000000  0.5254070000000  0.4881200000000 1.0
C      1  0.4738790000000  0.5388290000000  0.5094610000000 1.0
C      1  0.5221980000000  0.5235020000000  0.6145910000000 1.0
C      1  0.5108740000000  0.4648420000000  0.4194050000000 1.0
C      1  0.5374410000000  0.5335350000000  0.5922150000000 1.0
C      1  0.4302330000000  0.5169120000000  0.5063500000000 1.0
C      1  0.4947980000000  0.6237730000000  0.5434770000000 1.0
C      1  0.5978430000000  0.4738240000000  0.4253900000000 1.0
C      1  0.4307840000000  0.5666280000000  0.4777540000000 1.0
C      1  0.4874080000000  0.5534330000000  0.6035300000000 1.0
C      1  0.5356060000000  0.5222930000000  0.3841610000000 1.0
C      1  0.5076570000000  0.5663830000000  0.5840270000000 1.0
C      1  0.5071100000000  0.6063610000000  0.5255360000000 1.0
C      1  0.4775900000000  0.4367890000000  0.5836830000000 1.0
C      1  0.6105810000000  0.4874570000000  0.4684860000000 1.0
C      1  0.5698270000000  0.4130380000000  0.5036470000000 1.0
C      1  0.5387940000000  0.3981820000000  0.5524690000000 1.0
C      1  0.5411850000000  0.4268180000000  0.6139730000000 1.0
C      1  0.4545970000000  0.4833820000000  0.6025040000000 1.0
C      1  0.4926430000000  0.3897070000000  0.5382370000000 1.0
C      1  0.5070670000000  0.5641990000000  0.4003120000000 1.0
C      1  0.5483310000000  0.4263270000000  0.4221280000000 1.0
C      1  0.5740250000000  0.4348330000000  0.4798700000000 1.0
C      1  0.4603730000000  0.5689050000000  0.4148710000000 1.0
C      1  0.5223130000000  0.4053240000000  0.4789490000000 1.0
C      1  0.4145080000000  0.4981850000000  0.5214330000000 1.0
C      1  0.4509500000000  0.5302220000000  0.5231750000000 1.0
C      1  0.5563200000000  0.5732110000000  0.5688920000000 1.0
C      1  0.4639840000000  0.6068760000000  0.5799410000000 1.0
C      1  0.5871180000000  0.5347770000000  0.5809740000000 1.0
C      1  0.5116460000000  0.3788610000000  0.5186220000000 1.0
C      1  0.4553170000000  0.5803420000000  0.5807140000000 1.0
C      1  0.4742790000000  0.5189050000000  0.4222500000000 1.0
C      1  0.4547480000000  0.3852640000000  0.4367400000000 1.0
C      1  0.5309550000000  0.5507040000000  0.5095260000000 1.0
C      1  0.4460940000000  0.6105130000000  0.5014820000000 1.0
C      1  0.4312380000000  0.4939380000000  0.5876560000000 1.0
C      1  0.4469620000000  0.4662490000000  0.5062880000000 1.0
C      1  0.5906840000000  0.4866390000000  0.4492010000000 1.0
C      1  0.5643110000000  0.4940870000000  0.4564740000000 1.0
C      1  0.5675460000000  0.5317500000000  0.4854110000000 1.0
C      1  0.5356860000000  0.4640010000000  0.5500920000000 1.0
C      1  0.5492800000000  0.5060850000000  0.5512260000000 1.0
C      1  0.5164770000000  0.4911940000000  0.4725790000000 1.0
C      1  0.5226370000000  0.5459420000000  0.3877190000000 1.0
C      1  0.5548810000000  0.4803910000000  0.5634090000000 1.0
C      1  0.4623040000000  0.4544190000000  0.6017750000000 1.0
C      1  0.4606790000000  0.5668930000000  0.4761300000000 1.0
C      1  0.3955700000000  0.5553130000000  0.5145400000000 1.0
C      1  0.3946930000000  0.5176450000000  0.4729640000000 1.0
C      1  0.5364500000000  0.5624290000000  0.5872390000000 1.0
C      1  0.4319920000000  0.4311090000000  0.5399110000000 1.0
C      1  0.6167830000000  0.4698200000000  0.4892550000000 1.0
C      1  0.5289470000000  0.6374770000000  0.4683550000000 1.0
C      1  0.4076580000000  0.5632670000000  0.4914050000000 1.0
C      1  0.5744710000000  0.4616920000000  0.6031510000000 1.0
C      1  0.5731200000000  0.4829960000000  0.5850280000000 1.0
C      1  0.4986710000000  0.4160310000000  0.5854130000000 1.0
C      1  0.4942310000000  0.5817730000000  0.5173530000000 1.0
C      1  0.6548920000000  0.4989070000000  0.5033560000000 1.0
C      1  0.4263730000000  0.5769300000000  0.5411190000000 1.0
C      1  0.4880780000000  0.5741970000000  0.4192770000000 1.0
C      1  0.5735010000000  0.4203160000000  0.5794720000000 1.0
C      1  0.5363750000000  0.4960220000000  0.3949750000000 1.0
C      1  0.5412320000000  0.5951620000000  0.4942670000000 1.0
C      1  0.5387020000000  0.3817350000000  0.5280200000000 1.0
C      1  0.5668050000000  0.5528050000000  0.4248990000000 1.0
C      1  0.4780360000000  0.5017680000000  0.6027670000000 1.0
END
