TITL C-612607-4507-269 270222.567436647 125000 -985.012066570654 0 0 163 (C1) n - 1
REM
REM in /home/nfs/bkarasulu/CARBON/AIRSS/Generating-Clusters/TERSOFF/Only-C1/FIRE-HFTN
REM
REM
REM
REM
REM
REM ./C.cell (11c1c37f851c82e70ff6c80c92926a4b)
REM AIRSS Version 0.9.1 bugfix July 2018 build 013d7b7c2542+ Fri, 06 Jul 2018 19:26:36 +0100
REM compiler GCC version 9.2.1 20190827 (Red Hat 9.2.1-1)
REM options -cpp -mtune=generic -march=x86-64 -g -O0 -fpre-include=/usr/include/finclude/math-vector-fortran.h
REM seed 1075758719 567225203 890868227 1834221879 1143820166 -2019029245 -1011299397 1793402469 -1500325505 -1266643106 -1151290980 -1447482103 -1769510796 -1483214376 -1850843217 -1227111536 1694090278 -1123520727 -1404502325 -1835764134 1391072576 2097715428 -208313084 1870246253 -593136128 -375971304 641591132 1381265178 -1314505836 -1227176678 2110411024 -742657235 286293921
REM
CELL 1.54180   50.00000   50.00000   50.00000   90.00000   90.00000   90.00000
LATT -1
SFAC C  
C      1  0.5005550000000  0.5574180000000  0.5421930000000 1.0
C      1  0.4748020000000  0.4990050000000  0.4782270000000 1.0
C      1  0.5218300000000  0.4985880000000  0.6148500000000 1.0
C      1  0.5590830000000  0.4904940000000  0.5117850000000 1.0
C      1  0.5174300000000  0.4335770000000  0.6006810000000 1.0
C      1  0.4562000000000  0.5890780000000  0.5156250000000 1.0
C      1  0.5302540000000  0.4756380000000  0.4638950000000 1.0
C      1  0.5097720000000  0.4210520000000  0.4218450000000 1.0
C      1  0.4670400000000  0.5860440000000  0.5912760000000 1.0
C      1  0.4815610000000  0.5153980000000  0.5629650000000 1.0
C      1  0.4455630000000  0.4437410000000  0.5704280000000 1.0
C      1  0.4686540000000  0.5283050000000  0.5213590000000 1.0
C      1  0.4799440000000  0.5451560000000  0.4098240000000 1.0
C      1  0.4659570000000  0.6349170000000  0.4110140000000 1.0
C      1  0.4304700000000  0.5060100000000  0.4656130000000 1.0
C      1  0.4859500000000  0.4654430000000  0.5643410000000 1.0
C      1  0.4951730000000  0.5091140000000  0.6147860000000 1.0
C      1  0.4315630000000  0.5473530000000  0.4229800000000 1.0
C      1  0.4543190000000  0.5580150000000  0.4103190000000 1.0
C      1  0.4389910000000  0.4777130000000  0.5103270000000 1.0
C      1  0.5638150000000  0.4975000000000  0.4173490000000 1.0
C      1  0.4103010000000  0.5689150000000  0.5163410000000 1.0
C      1  0.5542440000000  0.4509350000000  0.5684570000000 1.0
C      1  0.4686450000000  0.6130050000000  0.5298950000000 1.0
C      1  0.4937090000000  0.5795060000000  0.5835720000000 1.0
C      1  0.5715770000000  0.4899390000000  0.5366800000000 1.0
C      1  0.4251000000000  0.5315060000000  0.5598180000000 1.0
C      1  0.5336440000000  0.5322840000000  0.5050040000000 1.0
C      1  0.5299250000000  0.4203540000000  0.4429940000000 1.0
C      1  0.5181670000000  0.4737390000000  0.4384960000000 1.0
C      1  0.5580540000000  0.4302080000000  0.5495990000000 1.0
C      1  0.6157170000000  0.5151620000000  0.4381560000000 1.0
C      1  0.5799470000000  0.5169620000000  0.5804830000000 1.0
C      1  0.4492150000000  0.5634180000000  0.5910210000000 1.0
C      1  0.4464360000000  0.4965090000000  0.4399890000000 1.0
C      1  0.6124870000000  0.4803690000000  0.5019220000000 1.0
C      1  0.4632210000000  0.4652770000000  0.4734630000000 1.0
C      1  0.4912980000000  0.6082530000000  0.5441990000000 1.0
C      1  0.6016460000000  0.5343660000000  0.4539210000000 1.0
C      1  0.4826750000000  0.4096940000000  0.5592170000000 1.0
C      1  0.5785540000000  0.5859780000000  0.4732210000000 1.0
C      1  0.4676370000000  0.4410160000000  0.5251600000000 1.0
C      1  0.5067050000000  0.5354180000000  0.4962550000000 1.0
C      1  0.5822530000000  0.4784360000000  0.4329990000000 1.0
C      1  0.5400760000000  0.5817080000000  0.4444250000000 1.0
C      1  0.4611280000000  0.5059980000000  0.5821710000000 1.0
C      1  0.4951820000000  0.5443080000000  0.4338710000000 1.0
C      1  0.4395540000000  0.5559730000000  0.5642970000000 1.0
C      1  0.3987250000000  0.4637910000000  0.4380260000000 1.0
C      1  0.4217610000000  0.4879370000000  0.4892890000000 1.0
C      1  0.6036170000000  0.4548810000000  0.4915250000000 1.0
C      1  0.5140910000000  0.4870690000000  0.5060120000000 1.0
C      1  0.4281970000000  0.5871760000000  0.5030290000000 1.0
C      1  0.4503820000000  0.5702850000000  0.5414630000000 1.0
C      1  0.5753810000000  0.4088650000000  0.5533570000000 1.0
C      1  0.4886700000000  0.4390850000000  0.5992290000000 1.0
C      1  0.5162000000000  0.5813420000000  0.4603420000000 1.0
C      1  0.5011120000000  0.5522480000000  0.5912770000000 1.0
C      1  0.5581500000000  0.4374010000000  0.5001720000000 1.0
C      1  0.5804770000000  0.5876840000000  0.5004470000000 1.0
C      1  0.4098930000000  0.5282290000000  0.4636970000000 1.0
C      1  0.5963250000000  0.5449960000000  0.5035040000000 1.0
C      1  0.4911650000000  0.5389310000000  0.3850600000000 1.0
C      1  0.5346070000000  0.4595280000000  0.4171390000000 1.0
C      1  0.4127270000000  0.5765250000000  0.4560180000000 1.0
C      1  0.6025270000000  0.5281530000000  0.4820570000000 1.0
C      1  0.5094180000000  0.5880350000000  0.4886170000000 1.0
C      1  0.5869850000000  0.5129220000000  0.5363780000000 1.0
C      1  0.4997090000000  0.4305120000000  0.3565170000000 1.0
C      1  0.4686950000000  0.4252530000000  0.5805910000000 1.0
C      1  0.4411340000000  0.4535280000000  0.4537080000000 1.0
C      1  0.5249560000000  0.4063980000000  0.6011780000000 1.0
C      1  0.4336040000000  0.5069440000000  0.5737570000000 1.0
C      1  0.4022680000000  0.5415840000000  0.5152800000000 1.0
C      1  0.5370730000000  0.4537770000000  0.5927520000000 1.0
C      1  0.5354700000000  0.5046130000000  0.5104980000000 1.0
C      1  0.4538230000000  0.5184400000000  0.4788290000000 1.0
C      1  0.5037430000000  0.4462470000000  0.3783520000000 1.0
C      1  0.4905450000000  0.5453260000000  0.5176230000000 1.0
C      1  0.4719870000000  0.5678770000000  0.4706340000000 1.0
C      1  0.4993450000000  0.5837300000000  0.5555140000000 1.0
C      1  0.3997620000000  0.4947130000000  0.5405540000000 1.0
C      1  0.4492320000000  0.3853170000000  0.4390840000000 1.0
C      1  0.5175420000000  0.4901400000000  0.3856440000000 1.0
C      1  0.4151050000000  0.5501720000000  0.4457310000000 1.0
C      1  0.4841290000000  0.4666870000000  0.5927860000000 1.0
C      1  0.5197290000000  0.4193170000000  0.4693100000000 1.0
C      1  0.4870960000000  0.5370040000000  0.6114470000000 1.0
C      1  0.5077830000000  0.5201720000000  0.4463860000000 1.0
C      1  0.5629610000000  0.4939060000000  0.5848470000000 1.0
C      1  0.4979200000000  0.5168730000000  0.4755120000000 1.0
C      1  0.4004640000000  0.4446870000000  0.5895970000000 1.0
C      1  0.5412900000000  0.4825630000000  0.6014500000000 1.0
C      1  0.5648040000000  0.4766670000000  0.5609740000000 1.0
C      1  0.5465440000000  0.5569640000000  0.5099900000000 1.0
C      1  0.4261270000000  0.4087770000000  0.5085280000000 1.0
C      1  0.5657560000000  0.5709120000000  0.4525000000000 1.0
C      1  0.5509850000000  0.4404130000000  0.4362610000000 1.0
C      1  0.5781680000000  0.4467310000000  0.4795180000000 1.0
C      1  0.5486600000000  0.4971030000000  0.4665100000000 1.0
C      1  0.4930600000000  0.5666550000000  0.4511710000000 1.0
C      1  0.4824450000000  0.4262070000000  0.4281550000000 1.0
C      1  0.4983920000000  0.4860460000000  0.5279360000000 1.0
C      1  0.4645380000000  0.4055940000000  0.4332780000000 1.0
C      1  0.5934360000000  0.3902590000000  0.5559770000000 1.0
C      1  0.6234320000000  0.4855910000000  0.5284810000000 1.0
C      1  0.5362050000000  0.5330040000000  0.5651710000000 1.0
C      1  0.6087610000000  0.4892140000000  0.4339800000000 1.0
C      1  0.4202880000000  0.4397520000000  0.4702040000000 1.0
C      1  0.4065230000000  0.5241790000000  0.5380010000000 1.0
C      1  0.5334660000000  0.3600820000000  0.5871630000000 1.0
C      1  0.5596000000000  0.5245900000000  0.4307740000000 1.0
C      1  0.5300000000000  0.5804140000000  0.5065970000000 1.0
C      1  0.5492480000000  0.3393970000000  0.5856340000000 1.0
C      1  0.5730080000000  0.4541370000000  0.4497060000000 1.0
C      1  0.4579320000000  0.6108810000000  0.4032020000000 1.0
C      1  0.5067620000000  0.4652700000000  0.5454530000000 1.0
C      1  0.5386180000000  0.5188050000000  0.4496350000000 1.0
C      1  0.4977300000000  0.3873090000000  0.5673180000000 1.0
C      1  0.5425700000000  0.4845150000000  0.4011300000000 1.0
C      1  0.5189510000000  0.4388850000000  0.4009670000000 1.0
C      1  0.4160530000000  0.4841840000000  0.5646880000000 1.0
C      1  0.5755560000000  0.5573670000000  0.5476520000000 1.0
C      1  0.5102800000000  0.4391530000000  0.4850610000000 1.0
C      1  0.4893640000000  0.4241010000000  0.5344950000000 1.0
C      1  0.4202720000000  0.4570970000000  0.5752910000000 1.0
C      1  0.5164320000000  0.4666530000000  0.4864430000000 1.0
C      1  0.3873670000000  0.4806280000000  0.5179990000000 1.0
C      1  0.4793920000000  0.5844890000000  0.4933390000000 1.0
C      1  0.4983080000000  0.4939910000000  0.4343000000000 1.0
C      1  0.3963630000000  0.4570000000000  0.4672440000000 1.0
C      1  0.5770750000000  0.5453740000000  0.4424310000000 1.0
C      1  0.6223150000000  0.4958330000000  0.5542460000000 1.0
C      1  0.4929490000000  0.4731650000000  0.3809980000000 1.0
C      1  0.4532270000000  0.4519970000000  0.5009020000000 1.0
C      1  0.3952340000000  0.4756820000000  0.4900830000000 1.0
C      1  0.5387130000000  0.5936130000000  0.4196200000000 1.0
C      1  0.5698980000000  0.4944560000000  0.4857260000000 1.0
C      1  0.4321900000000  0.4309450000000  0.4942270000000 1.0
C      1  0.4588690000000  0.5447150000000  0.6112050000000 1.0
C      1  0.4747870000000  0.5036330000000  0.5356490000000 1.0
C      1  0.4562730000000  0.5458520000000  0.4761260000000 1.0
C      1  0.3964930000000  0.5326900000000  0.4887480000000 1.0
C      1  0.5976450000000  0.5008050000000  0.4875370000000 1.0
C      1  0.4720630000000  0.4830130000000  0.4320630000000 1.0
C      1  0.5188510000000  0.3836540000000  0.5856570000000 1.0
C      1  0.4265370000000  0.4603130000000  0.4272350000000 1.0
C      1  0.4213630000000  0.5921710000000  0.4761430000000 1.0
C      1  0.4604180000000  0.4591670000000  0.5492930000000 1.0
C      1  0.4993140000000  0.5395030000000  0.3602950000000 1.0
C      1  0.5759310000000  0.5623390000000  0.5172180000000 1.0
C      1  0.6078550000000  0.5093660000000  0.5738760000000 1.0
C      1  0.5646260000000  0.5384890000000  0.5668190000000 1.0
C      1  0.4522010000000  0.4840670000000  0.5346980000000 1.0
C      1  0.5147320000000  0.4393580000000  0.5334850000000 1.0
C      1  0.4408500000000  0.4664700000000  0.4018350000000 1.0
C      1  0.4753340000000  0.4538620000000  0.4276460000000 1.0
C      1  0.4637590000000  0.4736600000000  0.3869820000000 1.0
C      1  0.4534260000000  0.5847810000000  0.4019100000000 1.0
C      1  0.5425690000000  0.4339180000000  0.5255460000000 1.0
C      1  0.4758460000000  0.4916360000000  0.6023500000000 1.0
C      1  0.4755670000000  0.6564630000000  0.4221160000000 1.0
C      1  0.5059030000000  0.5363390000000  0.5650800000000 1.0
END
