TITL C-612603-7354-988 -0.000485467382625327 125000 -336.154201072726 0 0 56 (C1) n - 1
REM
REM in /home/nfs/bkarasulu/CARBON/AIRSS/Generating-Clusters/TERSOFF/Only-C1/FIRE-HFTN
REM
REM
REM
REM
REM
REM ./C.cell (11c1c37f851c82e70ff6c80c92926a4b)
REM AIRSS Version 0.9.1 bugfix July 2018 build 013d7b7c2542+ Fri, 06 Jul 2018 19:26:36 +0100
REM compiler GCC version 9.2.1 20190827 (Red Hat 9.2.1-1)
REM options -cpp -mtune=generic -march=x86-64 -g -O0 -fpre-include=/usr/include/finclude/math-vector-fortran.h
REM seed -1860009703 25349523 619205827 122527292 -1783415284 -1432631732 124397397 -1272457178 -1622988556 466113397 1850498698 1812766362 -240191952 665937317 -1897990834 1174397024 431523110 1219473680 185384964 -2037953449 1870464681 -836250309 -543169889 -728947426 1820094749 -1609526632 322490853 1945573186 -492645091 1992315866 811433448 -1240860156 -1418255776
REM
CELL 1.54180   50.00000   50.00000   50.00000   90.00000   90.00000   90.00000
LATT -1
SFAC C  
C      1  0.5383740000000  0.4704150000000  0.4435450000000 1.0
C      1  0.4939750000000  0.5339660000000  0.3988730000000 1.0
C      1  0.4353800000000  0.4657830000000  0.5562830000000 1.0
C      1  0.5219260000000  0.5529500000000  0.5427780000000 1.0
C      1  0.5064000000000  0.5367500000000  0.5599900000000 1.0
C      1  0.4931680000000  0.4871420000000  0.4124110000000 1.0
C      1  0.5323580000000  0.5012710000000  0.5036110000000 1.0
C      1  0.4531730000000  0.4883350000000  0.5172060000000 1.0
C      1  0.4410190000000  0.5310490000000  0.4733480000000 1.0
C      1  0.4606320000000  0.5393530000000  0.5790510000000 1.0
C      1  0.4857710000000  0.5600900000000  0.4059960000000 1.0
C      1  0.5624170000000  0.4435820000000  0.5210780000000 1.0
C      1  0.5246590000000  0.4444240000000  0.5510090000000 1.0
C      1  0.4431100000000  0.5041830000000  0.4732220000000 1.0
C      1  0.5484480000000  0.4951270000000  0.4345540000000 1.0
C      1  0.5424690000000  0.5027330000000  0.5654220000000 1.0
C      1  0.5252220000000  0.4846170000000  0.5245820000000 1.0
C      1  0.5315330000000  0.5154870000000  0.4237610000000 1.0
C      1  0.4982590000000  0.5582330000000  0.4981270000000 1.0
C      1  0.5337400000000  0.5413590000000  0.4356440000000 1.0
C      1  0.4664920000000  0.5385640000000  0.5308300000000 1.0
C      1  0.4981350000000  0.5189610000000  0.4718470000000 1.0
C      1  0.4245970000000  0.4792410000000  0.5768090000000 1.0
C      1  0.4919280000000  0.4684560000000  0.5759320000000 1.0
C      1  0.5136090000000  0.5567390000000  0.4486370000000 1.0
C      1  0.4692970000000  0.5750610000000  0.3902830000000 1.0
C      1  0.5717420000000  0.5042340000000  0.4478260000000 1.0
C      1  0.4518500000000  0.5150440000000  0.5259350000000 1.0
C      1  0.5115240000000  0.4469100000000  0.5767100000000 1.0
C      1  0.5724680000000  0.5127640000000  0.4733390000000 1.0
C      1  0.4567180000000  0.4699390000000  0.5383820000000 1.0
C      1  0.5210760000000  0.4094750000000  0.4755700000000 1.0
C      1  0.5318840000000  0.4352560000000  0.4775170000000 1.0
C      1  0.4743720000000  0.4666010000000  0.4774690000000 1.0
C      1  0.4415470000000  0.5249360000000  0.5909470000000 1.0
C      1  0.4711860000000  0.5541940000000  0.5071620000000 1.0
C      1  0.4554710000000  0.4840650000000  0.4890900000000 1.0
C      1  0.5539260000000  0.5125270000000  0.4925830000000 1.0
C      1  0.4274790000000  0.5022320000000  0.5901750000000 1.0
C      1  0.5100800000000  0.3858990000000  0.4740270000000 1.0
C      1  0.4829120000000  0.4670740000000  0.5477170000000 1.0
C      1  0.4992910000000  0.4942900000000  0.5849420000000 1.0
C      1  0.4510920000000  0.5519780000000  0.4870990000000 1.0
C      1  0.4931870000000  0.4612990000000  0.4571430000000 1.0
C      1  0.4861520000000  0.4690380000000  0.4308100000000 1.0
C      1  0.5466560000000  0.4833190000000  0.5453060000000 1.0
C      1  0.4780320000000  0.5404980000000  0.5570360000000 1.0
C      1  0.5212440000000  0.4555770000000  0.4605110000000 1.0
C      1  0.5178210000000  0.5625510000000  0.5179360000000 1.0
C      1  0.4959130000000  0.5695660000000  0.4307310000000 1.0
C      1  0.5074400000000  0.4625940000000  0.5327420000000 1.0
C      1  0.5072880000000  0.5111290000000  0.4088720000000 1.0
C      1  0.5042390000000  0.5458530000000  0.4731660000000 1.0
C      1  0.5516600000000  0.4542720000000  0.5450230000000 1.0
C      1  0.5526950000000  0.4395370000000  0.4962330000000 1.0
C      1  0.5169620000000  0.5134740000000  0.5731700000000 1.0
END
