TITL C-612607-4507-1154 -381.810519644177 125000 -1138.87803606005 0 0 183 (C1) n - 1
REM
REM in /home/nfs/bkarasulu/CARBON/AIRSS/Generating-Clusters/TERSOFF/Only-C1/FIRE-HFTN
REM
REM
REM
REM
REM
REM ./C.cell (11c1c37f851c82e70ff6c80c92926a4b)
REM AIRSS Version 0.9.1 bugfix July 2018 build 013d7b7c2542+ Fri, 06 Jul 2018 19:26:36 +0100
REM compiler GCC version 9.2.1 20190827 (Red Hat 9.2.1-1)
REM options -cpp -mtune=generic -march=x86-64 -g -O0 -fpre-include=/usr/include/finclude/math-vector-fortran.h
REM seed 1893092793 -633805362 -8939907 1327792217 -1691286578 159790026 1902930910 -2067670571 980615304 589730810 -1583792974 -1642751874 -504052195 -467537947 -1898182919 -781008679 -1904757346 -1407882425 450652687 1909841672 1992657384 683570388 924426734 -1262535654 -1474156557 2050411236 875253630 -989073339 54524658 1989335474 1609559435 1805819341 -1787878326
REM
CELL 1.54180   50.00000   50.00000   50.00000   90.00000   90.00000   90.00000
LATT -1
SFAC C  
C      1  0.4257830000000  0.4834780000000  0.4245520000000 1.0
C      1  0.3970640000000  0.4133180000000  0.4880280000000 1.0
C      1  0.5335140000000  0.5930170000000  0.4615630000000 1.0
C      1  0.4506720000000  0.5321410000000  0.6112880000000 1.0
C      1  0.3844520000000  0.5465330000000  0.5284630000000 1.0
C      1  0.5159860000000  0.4968930000000  0.4733600000000 1.0
C      1  0.4714740000000  0.5190000000000  0.3992470000000 1.0
C      1  0.5812230000000  0.5832600000000  0.4733220000000 1.0
C      1  0.4557490000000  0.4182540000000  0.5712170000000 1.0
C      1  0.4443910000000  0.5123520000000  0.5921250000000 1.0
C      1  0.5153850000000  0.4866840000000  0.5411330000000 1.0
C      1  0.4857220000000  0.6385050000000  0.5447760000000 1.0
C      1  0.6031200000000  0.5309950000000  0.4616200000000 1.0
C      1  0.5810150000000  0.5675850000000  0.5241060000000 1.0
C      1  0.5696270000000  0.5776900000000  0.4206490000000 1.0
C      1  0.4400080000000  0.4177420000000  0.5471430000000 1.0
C      1  0.4263190000000  0.4414020000000  0.5368110000000 1.0
C      1  0.3738410000000  0.4438500000000  0.5219970000000 1.0
C      1  0.5602260000000  0.4868580000000  0.4009000000000 1.0
C      1  0.5482000000000  0.3877840000000  0.5100290000000 1.0
C      1  0.5120430000000  0.6118370000000  0.4608650000000 1.0
C      1  0.4385090000000  0.4878180000000  0.5028480000000 1.0
C      1  0.5307310000000  0.5689330000000  0.4451120000000 1.0
C      1  0.4740670000000  0.5692670000000  0.4747790000000 1.0
C      1  0.3818060000000  0.4381600000000  0.4953810000000 1.0
C      1  0.4986470000000  0.5343100000000  0.5202770000000 1.0
C      1  0.4620230000000  0.5981830000000  0.4718840000000 1.0
C      1  0.4674410000000  0.5063460000000  0.5768060000000 1.0
C      1  0.5529840000000  0.5029740000000  0.4236900000000 1.0
C      1  0.4571950000000  0.5417810000000  0.4110730000000 1.0
C      1  0.6071980000000  0.5059210000000  0.5610980000000 1.0
C      1  0.4790350000000  0.4413420000000  0.4931450000000 1.0
C      1  0.5248240000000  0.3950220000000  0.4662300000000 1.0
C      1  0.4151150000000  0.4581470000000  0.4187440000000 1.0
C      1  0.5574530000000  0.4234400000000  0.3877540000000 1.0
C      1  0.5903910000000  0.4280080000000  0.4775620000000 1.0
C      1  0.5091520000000  0.4300070000000  0.5302740000000 1.0
C      1  0.4430160000000  0.5937960000000  0.4479780000000 1.0
C      1  0.5270180000000  0.4300790000000  0.6181270000000 1.0
C      1  0.6070270000000  0.5391190000000  0.4899910000000 1.0
C      1  0.5078980000000  0.5969110000000  0.5325140000000 1.0
C      1  0.4139520000000  0.4548770000000  0.4664860000000 1.0
C      1  0.5782200000000  0.5433590000000  0.4547510000000 1.0
C      1  0.5271450000000  0.4526800000000  0.4929930000000 1.0
C      1  0.5947090000000  0.5686370000000  0.5946500000000 1.0
C      1  0.3889690000000  0.4915220000000  0.4817470000000 1.0
C      1  0.5413540000000  0.5719110000000  0.4174440000000 1.0
C      1  0.4856160000000  0.6156020000000  0.4655540000000 1.0
C      1  0.5375850000000  0.4700950000000  0.3923570000000 1.0
C      1  0.5141260000000  0.4775480000000  0.5856860000000 1.0
C      1  0.3890570000000  0.4624010000000  0.4798000000000 1.0
C      1  0.4834570000000  0.6128220000000  0.5348960000000 1.0
C      1  0.5962540000000  0.4390060000000  0.5788650000000 1.0
C      1  0.5982690000000  0.4872500000000  0.4705840000000 1.0
C      1  0.5780720000000  0.4081220000000  0.3833670000000 1.0
C      1  0.5123690000000  0.5241280000000  0.4671030000000 1.0
C      1  0.5362880000000  0.4402140000000  0.3943940000000 1.0
C      1  0.4797040000000  0.4007560000000  0.5686520000000 1.0
C      1  0.4093760000000  0.5710500000000  0.4712660000000 1.0
C      1  0.4450170000000  0.5932770000000  0.5733630000000 1.0
C      1  0.4793590000000  0.5625790000000  0.4463620000000 1.0
C      1  0.5620510000000  0.4653120000000  0.6035540000000 1.0
C      1  0.5437500000000  0.4828060000000  0.5898430000000 1.0
C      1  0.6096570000000  0.5166610000000  0.5098120000000 1.0
C      1  0.4582630000000  0.5578320000000  0.6023770000000 1.0
C      1  0.5085760000000  0.4804170000000  0.3952290000000 1.0
C      1  0.5849870000000  0.5890080000000  0.4004530000000 1.0
C      1  0.4765490000000  0.5617930000000  0.4186610000000 1.0
C      1  0.4949050000000  0.4562270000000  0.4068440000000 1.0
C      1  0.5571230000000  0.5853310000000  0.5289670000000 1.0
C      1  0.4252370000000  0.5704860000000  0.4461220000000 1.0
C      1  0.5268960000000  0.5385640000000  0.5180280000000 1.0
C      1  0.5216650000000  0.5596960000000  0.3987980000000 1.0
C      1  0.5138730000000  0.4571670000000  0.4489630000000 1.0
C      1  0.5943810000000  0.4633440000000  0.5393470000000 1.0
C      1  0.5528640000000  0.4870390000000  0.4468170000000 1.0
C      1  0.5625620000000  0.5104370000000  0.5089010000000 1.0
C      1  0.4350150000000  0.5735800000000  0.5929020000000 1.0
C      1  0.4398210000000  0.5575400000000  0.5119320000000 1.0
C      1  0.4715410000000  0.4630730000000  0.5669070000000 1.0
C      1  0.6079340000000  0.5049870000000  0.4502200000000 1.0
C      1  0.4565720000000  0.6041460000000  0.5252680000000 1.0
C      1  0.5702860000000  0.3993420000000  0.5214280000000 1.0
C      1  0.4622400000000  0.4422600000000  0.5844410000000 1.0
C      1  0.5892080000000  0.4867540000000  0.4028740000000 1.0
C      1  0.4084220000000  0.5381830000000  0.5709050000000 1.0
C      1  0.5319510000000  0.4397900000000  0.5168960000000 1.0
C      1  0.4833590000000  0.5384430000000  0.5451480000000 1.0
C      1  0.4964060000000  0.5541350000000  0.5663040000000 1.0
C      1  0.4223540000000  0.4913290000000  0.5526780000000 1.0
C      1  0.4845190000000  0.4410680000000  0.5207380000000 1.0
C      1  0.6055510000000  0.4964150000000  0.4228940000000 1.0
C      1  0.4957140000000  0.5713340000000  0.4003450000000 1.0
C      1  0.3834880000000  0.4664870000000  0.5363190000000 1.0
C      1  0.6018880000000  0.4881070000000  0.5813240000000 1.0
C      1  0.4850460000000  0.5114960000000  0.5087950000000 1.0
C      1  0.4615620000000  0.4529400000000  0.4745290000000 1.0
C      1  0.4763910000000  0.3911110000000  0.4830430000000 1.0
C      1  0.6082750000000  0.4886960000000  0.4980690000000 1.0
C      1  0.4851660000000  0.4848820000000  0.5824660000000 1.0
C      1  0.5199990000000  0.5300550000000  0.4004780000000 1.0
C      1  0.4398810000000  0.5905220000000  0.5454790000000 1.0
C      1  0.5413720000000  0.4176590000000  0.4626370000000 1.0
C      1  0.5908130000000  0.4190770000000  0.5264010000000 1.0
C      1  0.5675440000000  0.4717490000000  0.5458570000000 1.0
C      1  0.5035170000000  0.4149510000000  0.5770670000000 1.0
C      1  0.4358790000000  0.4602080000000  0.4881620000000 1.0
C      1  0.4992880000000  0.5093030000000  0.3954470000000 1.0
C      1  0.3737910000000  0.4916600000000  0.5270320000000 1.0
C      1  0.4204350000000  0.5116280000000  0.5748210000000 1.0
C      1  0.4759370000000  0.4639970000000  0.5366760000000 1.0
C      1  0.4640030000000  0.5233400000000  0.4925450000000 1.0
C      1  0.5968130000000  0.4355380000000  0.5505300000000 1.0
C      1  0.4528670000000  0.3966430000000  0.5290070000000 1.0
C      1  0.5315010000000  0.5835180000000  0.5457250000000 1.0
C      1  0.5251050000000  0.5400180000000  0.4473200000000 1.0
C      1  0.5889040000000  0.4639890000000  0.5918820000000 1.0
C      1  0.4733230000000  0.5943070000000  0.5803120000000 1.0
C      1  0.5008360000000  0.4097090000000  0.4255100000000 1.0
C      1  0.4427300000000  0.5000610000000  0.5322430000000 1.0
C      1  0.5542840000000  0.6037990000000  0.5067780000000 1.0
C      1  0.5248480000000  0.4824500000000  0.4505310000000 1.0
C      1  0.4905520000000  0.4878570000000  0.5257750000000 1.0
C      1  0.5546130000000  0.4911520000000  0.5634790000000 1.0
C      1  0.4779260000000  0.4380190000000  0.6084370000000 1.0
C      1  0.3918580000000  0.4022920000000  0.4624700000000 1.0
C      1  0.4253560000000  0.4132720000000  0.4962090000000 1.0
C      1  0.5576680000000  0.5403870000000  0.4748220000000 1.0
C      1  0.3782240000000  0.5065300000000  0.5031780000000 1.0
C      1  0.4898420000000  0.4564440000000  0.4348260000000 1.0
C      1  0.4087110000000  0.5022290000000  0.4380540000000 1.0
C      1  0.6044850000000  0.4640770000000  0.5123890000000 1.0
C      1  0.4062320000000  0.5505670000000  0.5453640000000 1.0
C      1  0.4001280000000  0.4155670000000  0.4403840000000 1.0
C      1  0.4503740000000  0.3973770000000  0.4991970000000 1.0
C      1  0.5349830000000  0.5245090000000  0.4242820000000 1.0
C      1  0.5165670000000  0.4628530000000  0.5603700000000 1.0
C      1  0.5250960000000  0.3839690000000  0.4932320000000 1.0
C      1  0.4088960000000  0.5048870000000  0.4662640000000 1.0
C      1  0.4973910000000  0.3793260000000  0.4995520000000 1.0
C      1  0.5349980000000  0.5068670000000  0.5500660000000 1.0
C      1  0.5349140000000  0.5348840000000  0.5462370000000 1.0
C      1  0.5693380000000  0.4193060000000  0.4633880000000 1.0
C      1  0.5564560000000  0.5970600000000  0.4793480000000 1.0
C      1  0.4655450000000  0.4603770000000  0.4471960000000 1.0
C      1  0.4290740000000  0.4394470000000  0.5083930000000 1.0
C      1  0.4997450000000  0.5713940000000  0.4882450000000 1.0
C      1  0.5952060000000  0.5599690000000  0.5700790000000 1.0
C      1  0.5570250000000  0.4877140000000  0.4943040000000 1.0
C      1  0.4107510000000  0.4651000000000  0.5464390000000 1.0
C      1  0.5928120000000  0.5657720000000  0.4964690000000 1.0
C      1  0.5262810000000  0.4407940000000  0.4676360000000 1.0
C      1  0.4426780000000  0.5073160000000  0.4796710000000 1.0
C      1  0.4326500000000  0.5503670000000  0.4258480000000 1.0
C      1  0.3818730000000  0.5350900000000  0.5029020000000 1.0
C      1  0.5806570000000  0.5706470000000  0.4465910000000 1.0
C      1  0.4185350000000  0.5923930000000  0.4898150000000 1.0
C      1  0.4453950000000  0.6029710000000  0.4974690000000 1.0
C      1  0.4581950000000  0.5507820000000  0.4922280000000 1.0
C      1  0.4980670000000  0.3981270000000  0.4533990000000 1.0
C      1  0.4110510000000  0.4414570000000  0.4409640000000 1.0
C      1  0.4820040000000  0.5673190000000  0.5871270000000 1.0
C      1  0.5933410000000  0.5503050000000  0.5437940000000 1.0
C      1  0.5485460000000  0.5334980000000  0.5005390000000 1.0
C      1  0.5102970000000  0.4304980000000  0.4048860000000 1.0
C      1  0.3912970000000  0.5513640000000  0.4812410000000 1.0
C      1  0.5295750000000  0.4810420000000  0.4936840000000 1.0
C      1  0.5497040000000  0.4445260000000  0.6181260000000 1.0
C      1  0.5989740000000  0.4362830000000  0.5030690000000 1.0
C      1  0.5993720000000  0.5993710000000  0.3813540000000 1.0
C      1  0.4513420000000  0.4826870000000  0.4370760000000 1.0
C      1  0.4740520000000  0.3851660000000  0.5452230000000 1.0
C      1  0.5701240000000  0.4835560000000  0.4692020000000 1.0
C      1  0.5245060000000  0.5584280000000  0.5595250000000 1.0
C      1  0.5099170000000  0.5873740000000  0.5061630000000 1.0
C      1  0.4113690000000  0.5582120000000  0.5910470000000 1.0
C      1  0.5512700000000  0.4518120000000  0.5332590000000 1.0
C      1  0.4557090000000  0.5047370000000  0.4533830000000 1.0
C      1  0.5031210000000  0.4246920000000  0.6044770000000 1.0
C      1  0.6043960000000  0.5236340000000  0.5381800000000 1.0
C      1  0.4277860000000  0.5665140000000  0.5355050000000 1.0
C      1  0.5128440000000  0.4341540000000  0.5581730000000 1.0
C      1  0.4643450000000  0.5167050000000  0.5496320000000 1.0
END
