TITL C-612604-1799-1001 1.20620868782801 125000 -462.878298706808 0 0 78 (C1) n - 1
REM
REM in /home/nfs/bkarasulu/CARBON/AIRSS/Generating-Clusters/TERSOFF/Only-C1/FIRE-HFTN
REM
REM
REM
REM
REM
REM ./C.cell (11c1c37f851c82e70ff6c80c92926a4b)
REM AIRSS Version 0.9.1 bugfix July 2018 build 013d7b7c2542+ Fri, 06 Jul 2018 19:26:36 +0100
REM compiler GCC version 9.2.1 20190827 (Red Hat 9.2.1-1)
REM options -cpp -mtune=generic -march=x86-64 -g -O0 -fpre-include=/usr/include/finclude/math-vector-fortran.h
REM seed 958230276 -348694124 1778102735 1867993567 -1447941245 1617182143 1900507637 224175064 788300750 1570305983 -393474552 -1466242312 -135766589 2121213054 -404363174 1390524318 930139791 -339028119 1147524344 -2051651348 -489949800 2140097546 577605842 411834409 -514738553 1345649861 151675708 1446004183 309753151 1077193872 1667816636 1200775090 1837234313
REM
CELL 1.54180   50.00000   50.00000   50.00000   90.00000   90.00000   90.00000
LATT -1
SFAC C  
C      1  0.5348440000000  0.4426350000000  0.4846470000000 1.0
C      1  0.4930510000000  0.5014040000000  0.4780660000000 1.0
C      1  0.5058520000000  0.4361890000000  0.5368010000000 1.0
C      1  0.5450110000000  0.4834620000000  0.5628910000000 1.0
C      1  0.4953910000000  0.5865240000000  0.4526930000000 1.0
C      1  0.4853090000000  0.4492680000000  0.5865670000000 1.0
C      1  0.5763400000000  0.4475410000000  0.4729190000000 1.0
C      1  0.4265080000000  0.5810160000000  0.4846310000000 1.0
C      1  0.4132220000000  0.5646350000000  0.5773180000000 1.0
C      1  0.4543730000000  0.4723250000000  0.5566370000000 1.0
C      1  0.4362300000000  0.5532280000000  0.5298370000000 1.0
C      1  0.4240210000000  0.5594340000000  0.5541770000000 1.0
C      1  0.4882750000000  0.6018930000000  0.4312620000000 1.0
C      1  0.5914960000000  0.5241580000000  0.4755160000000 1.0
C      1  0.5113830000000  0.4827020000000  0.4664850000000 1.0
C      1  0.4912230000000  0.4618530000000  0.5259800000000 1.0
C      1  0.4890580000000  0.4228630000000  0.4941560000000 1.0
C      1  0.4975330000000  0.4553570000000  0.4330350000000 1.0
C      1  0.5327620000000  0.5303700000000  0.4616150000000 1.0
C      1  0.4981960000000  0.5480800000000  0.5673790000000 1.0
C      1  0.4419820000000  0.5042060000000  0.4752150000000 1.0
C      1  0.5603940000000  0.5663070000000  0.4825260000000 1.0
C      1  0.5117990000000  0.4548810000000  0.5791900000000 1.0
C      1  0.5654760000000  0.5513980000000  0.5063110000000 1.0
C      1  0.5453430000000  0.5046620000000  0.4211660000000 1.0
C      1  0.5929900000000  0.5126500000000  0.5210930000000 1.0
C      1  0.5539070000000  0.5058560000000  0.5473840000000 1.0
C      1  0.4789720000000  0.4849120000000  0.5437700000000 1.0
C      1  0.5790530000000  0.4549750000000  0.4999800000000 1.0
C      1  0.5087960000000  0.4174910000000  0.5152690000000 1.0
C      1  0.5418650000000  0.5503980000000  0.5238170000000 1.0
C      1  0.5436130000000  0.5567080000000  0.4636770000000 1.0
C      1  0.5864850000000  0.5320810000000  0.5022160000000 1.0
C      1  0.4882000000000  0.5690360000000  0.5792160000000 1.0
C      1  0.4679100000000  0.5091130000000  0.5290340000000 1.0
C      1  0.4304440000000  0.5682730000000  0.5070210000000 1.0
C      1  0.4223810000000  0.4998730000000  0.4952860000000 1.0
C      1  0.4196720000000  0.4874580000000  0.5192320000000 1.0
C      1  0.5146830000000  0.4756480000000  0.5126610000000 1.0
C      1  0.5503570000000  0.4401370000000  0.4620360000000 1.0
C      1  0.4690270000000  0.4529760000000  0.4330290000000 1.0
C      1  0.4756220000000  0.4478540000000  0.5022590000000 1.0
C      1  0.4857290000000  0.5072810000000  0.4297330000000 1.0
C      1  0.4573550000000  0.4997230000000  0.4271200000000 1.0
C      1  0.4882480000000  0.5587000000000  0.4544110000000 1.0
C      1  0.4886710000000  0.5366680000000  0.4344290000000 1.0
C      1  0.5132330000000  0.4349690000000  0.4472110000000 1.0
C      1  0.5504090000000  0.5133950000000  0.4465460000000 1.0
C      1  0.5193220000000  0.4824390000000  0.5752360000000 1.0
C      1  0.5221620000000  0.5929650000000  0.4990450000000 1.0
C      1  0.4375930000000  0.4466970000000  0.5945220000000 1.0
C      1  0.4987500000000  0.4201060000000  0.4668260000000 1.0
C      1  0.4541260000000  0.5318190000000  0.5282780000000 1.0
C      1  0.4920190000000  0.5482380000000  0.4811810000000 1.0
C      1  0.5078480000000  0.5253260000000  0.4765020000000 1.0
C      1  0.4246460000000  0.4624160000000  0.4249250000000 1.0
C      1  0.5005650000000  0.4990240000000  0.5615040000000 1.0
C      1  0.4666000000000  0.4907020000000  0.4808730000000 1.0
C      1  0.5106130000000  0.5258410000000  0.5559280000000 1.0
C      1  0.5698480000000  0.4655360000000  0.5256560000000 1.0
C      1  0.5234750000000  0.4680470000000  0.4871330000000 1.0
C      1  0.4258330000000  0.4484800000000  0.4489700000000 1.0
C      1  0.5103340000000  0.5975100000000  0.4747410000000 1.0
C      1  0.5202720000000  0.5690140000000  0.5153790000000 1.0
C      1  0.5502640000000  0.4575000000000  0.5481610000000 1.0
C      1  0.4400590000000  0.5107910000000  0.4475750000000 1.0
C      1  0.5257210000000  0.4418630000000  0.5563960000000 1.0
C      1  0.5745790000000  0.4944130000000  0.5308420000000 1.0
C      1  0.5337800000000  0.4206510000000  0.5024520000000 1.0
C      1  0.5038370000000  0.4834050000000  0.4382120000000 1.0
C      1  0.4533310000000  0.4483160000000  0.4584790000000 1.0
C      1  0.5364590000000  0.5283260000000  0.5424300000000 1.0
C      1  0.4630310000000  0.4619800000000  0.4817270000000 1.0
C      1  0.5769190000000  0.5127200000000  0.4561870000000 1.0
C      1  0.4512790000000  0.4728630000000  0.4189220000000 1.0
C      1  0.4949910000000  0.5579650000000  0.5072890000000 1.0
C      1  0.4585960000000  0.4558260000000  0.5796090000000 1.0
C      1  0.4304540000000  0.4766570000000  0.5415740000000 1.0
END
