TITL C-612600-6631-940 -0.0703523391410875 125000 -403.847573649806 0 0 68 (C1) n - 1
REM
REM in /home/nfs/bkarasulu/CARBON/AIRSS/Generating-Clusters/TERSOFF/Only-C1/FIRE-HFTN
REM
REM
REM
REM
REM
REM ./C.cell (11c1c37f851c82e70ff6c80c92926a4b)
REM AIRSS Version 0.9.1 bugfix July 2018 build 013d7b7c2542+ Fri, 06 Jul 2018 19:26:36 +0100
REM compiler GCC version 9.2.1 20190827 (Red Hat 9.2.1-1)
REM options -cpp -mtune=generic -march=x86-64 -g -O0 -fpre-include=/usr/include/finclude/math-vector-fortran.h
REM seed -458681592 -1325751742 -1130373850 1997969392 896497578 1498012833 65770034 -391028419 -1663179243 1264239141 -592343147 329514527 2078671881 -1085346504 -1947619763 -2147166110 -1279370992 114260550 -486495279 -1931220721 -1676028486 2018603364 929961775 -2031456391 1573892061 175150057 867933106 1298061977 -1293524766 8453819 983935387 192017992 -2090069212
REM
CELL 1.54180   50.00000   50.00000   50.00000   90.00000   90.00000   90.00000
LATT -1
SFAC C  
C      1  0.5503480000000  0.5488880000000  0.5267450000000 1.0
C      1  0.4647650000000  0.5230380000000  0.5268570000000 1.0
C      1  0.5474050000000  0.5685540000000  0.4627580000000 1.0
C      1  0.4706340000000  0.5831350000000  0.4782340000000 1.0
C      1  0.4828110000000  0.4459220000000  0.4659270000000 1.0
C      1  0.5419870000000  0.4323710000000  0.5027810000000 1.0
C      1  0.4986820000000  0.3863800000000  0.5048100000000 1.0
C      1  0.4351680000000  0.4587350000000  0.5189870000000 1.0
C      1  0.4718300000000  0.4281790000000  0.5106570000000 1.0
C      1  0.5400610000000  0.4601850000000  0.5077540000000 1.0
C      1  0.5460610000000  0.5105300000000  0.5558310000000 1.0
C      1  0.5523890000000  0.4697120000000  0.4512550000000 1.0
C      1  0.5244950000000  0.5885030000000  0.5432360000000 1.0
C      1  0.4907460000000  0.5267710000000  0.5363880000000 1.0
C      1  0.4130990000000  0.4693120000000  0.5088380000000 1.0
C      1  0.4806530000000  0.6077400000000  0.5375070000000 1.0
C      1  0.5846610000000  0.5348300000000  0.4766260000000 1.0
C      1  0.4256130000000  0.5752200000000  0.4738080000000 1.0
C      1  0.4691300000000  0.4632490000000  0.4202620000000 1.0
C      1  0.5424970000000  0.3653650000000  0.5095730000000 1.0
C      1  0.4815620000000  0.3800410000000  0.4828280000000 1.0
C      1  0.5820580000000  0.4919110000000  0.5052370000000 1.0
C      1  0.5132640000000  0.5177510000000  0.5207080000000 1.0
C      1  0.5119150000000  0.4979080000000  0.4455260000000 1.0
C      1  0.5098500000000  0.5272220000000  0.5810130000000 1.0
C      1  0.4696050000000  0.4269560000000  0.4818560000000 1.0
C      1  0.5444560000000  0.5742240000000  0.5328380000000 1.0
C      1  0.5376260000000  0.4098480000000  0.4594350000000 1.0
C      1  0.4667940000000  0.4002660000000  0.4719040000000 1.0
C      1  0.4601950000000  0.4485890000000  0.5262570000000 1.0
C      1  0.5268210000000  0.3859920000000  0.5010580000000 1.0
C      1  0.5334550000000  0.5118170000000  0.5810470000000 1.0
C      1  0.5433260000000  0.4990990000000  0.6036470000000 1.0
C      1  0.5283420000000  0.4214720000000  0.4369510000000 1.0
C      1  0.4838360000000  0.4450510000000  0.4365110000000 1.0
C      1  0.4874270000000  0.4809150000000  0.4049450000000 1.0
C      1  0.4512510000000  0.5618230000000  0.4721130000000 1.0
C      1  0.4563840000000  0.6047490000000  0.4922840000000 1.0
C      1  0.4947210000000  0.5404880000000  0.5612490000000 1.0
C      1  0.4860920000000  0.5673970000000  0.5651000000000 1.0
C      1  0.5133430000000  0.4450190000000  0.4317530000000 1.0
C      1  0.4674250000000  0.5080250000000  0.4382080000000 1.0
C      1  0.4568880000000  0.5351670000000  0.4786960000000 1.0
C      1  0.5224990000000  0.4692460000000  0.4490980000000 1.0
C      1  0.5692480000000  0.5539270000000  0.4664610000000 1.0
C      1  0.4286060000000  0.6001300000000  0.4855680000000 1.0
C      1  0.4934460000000  0.5025760000000  0.4232740000000 1.0
C      1  0.5525880000000  0.4870460000000  0.6248170000000 1.0
C      1  0.4666180000000  0.6149130000000  0.5160200000000 1.0
C      1  0.5390390000000  0.5237310000000  0.5318270000000 1.0
C      1  0.4742920000000  0.5192720000000  0.4636220000000 1.0
C      1  0.5108730000000  0.5020930000000  0.4970660000000 1.0
C      1  0.4872730000000  0.4067020000000  0.5214320000000 1.0
C      1  0.5169710000000  0.4738150000000  0.4975030000000 1.0
C      1  0.4506060000000  0.5262530000000  0.5045320000000 1.0
C      1  0.3923720000000  0.4806430000000  0.4978110000000 1.0
C      1  0.5015060000000  0.5108650000000  0.4709210000000 1.0
C      1  0.4972390000000  0.5887850000000  0.5497780000000 1.0
C      1  0.4733200000000  0.4585850000000  0.5480890000000 1.0
C      1  0.5896510000000  0.5131360000000  0.4911420000000 1.0
C      1  0.4523360000000  0.4834890000000  0.4334180000000 1.0
C      1  0.4478660000000  0.5779520000000  0.6017650000000 1.0
C      1  0.5375860000000  0.4088900000000  0.4877150000000 1.0
C      1  0.5636060000000  0.4743760000000  0.5129530000000 1.0
C      1  0.5227920000000  0.5781900000000  0.4650840000000 1.0
C      1  0.5061020000000  0.4611480000000  0.4746950000000 1.0
C      1  0.4664390000000  0.5728670000000  0.5842070000000 1.0
C      1  0.4974530000000  0.5830210000000  0.4712080000000 1.0
END
