TITL C-612606-7351-683 55936.8378931588 125000 -1147.97888720419 0 0 185 (C1) n - 1
REM
REM in /home/nfs/bkarasulu/CARBON/AIRSS/Generating-Clusters/TERSOFF/Only-C1/FIRE-HFTN
REM
REM
REM
REM
REM
REM ./C.cell (11c1c37f851c82e70ff6c80c92926a4b)
REM AIRSS Version 0.9.1 bugfix July 2018 build 013d7b7c2542+ Fri, 06 Jul 2018 19:26:36 +0100
REM compiler GCC version 9.2.1 20190827 (Red Hat 9.2.1-1)
REM options -cpp -mtune=generic -march=x86-64 -g -O0 -fpre-include=/usr/include/finclude/math-vector-fortran.h
REM seed 752512530 1753940917 -1973076455 322452862 85262455 1272795484 184210865 -873032664 776135092 2123713432 1590190328 -928118139 -937453339 1567072937 981453914 -363592329 1200847874 1267880306 1335818182 -1212895854 458428114 1062873214 -324941437 -1244325862 423030930 -1297266524 -1421997845 173967820 -150705217 1905796316 870768886 -330139816 -292169243
REM
CELL 1.54180   50.00000   50.00000   50.00000   90.00000   90.00000   90.00000
LATT -1
SFAC C  
C      1  0.5677820000000  0.4059190000000  0.4740250000000 1.0
C      1  0.4656530000000  0.4286380000000  0.4966060000000 1.0
C      1  0.4329210000000  0.5202650000000  0.5158900000000 1.0
C      1  0.4538060000000  0.4796170000000  0.6065810000000 1.0
C      1  0.5735640000000  0.5621920000000  0.4279680000000 1.0
C      1  0.4224980000000  0.4409860000000  0.5575470000000 1.0
C      1  0.5986910000000  0.4335840000000  0.5668810000000 1.0
C      1  0.5958290000000  0.4888520000000  0.4323170000000 1.0
C      1  0.5128400000000  0.5226120000000  0.6157940000000 1.0
C      1  0.4161950000000  0.5739430000000  0.4719560000000 1.0
C      1  0.4638800000000  0.4868320000000  0.4903000000000 1.0
C      1  0.5424970000000  0.4705880000000  0.5331640000000 1.0
C      1  0.4355250000000  0.3991110000000  0.5254780000000 1.0
C      1  0.4851890000000  0.4677420000000  0.5329280000000 1.0
C      1  0.4167470000000  0.4779630000000  0.4497730000000 1.0
C      1  0.5624420000000  0.4903280000000  0.5390570000000 1.0
C      1  0.5320370000000  0.4269730000000  0.5575560000000 1.0
C      1  0.4698390000000  0.4145190000000  0.5727260000000 1.0
C      1  0.5242610000000  0.4096770000000  0.4595190000000 1.0
C      1  0.5676260000000  0.4185570000000  0.5234320000000 1.0
C      1  0.4748400000000  0.3945280000000  0.5521510000000 1.0
C      1  0.4970370000000  0.3972980000000  0.5338160000000 1.0
C      1  0.5049780000000  0.5150690000000  0.5183950000000 1.0
C      1  0.4717950000000  0.4870660000000  0.4621500000000 1.0
C      1  0.4715330000000  0.6020020000000  0.6513990000000 1.0
C      1  0.5296640000000  0.4633430000000  0.5066750000000 1.0
C      1  0.4925000000000  0.4237930000000  0.5892870000000 1.0
C      1  0.6010640000000  0.4815600000000  0.4942670000000 1.0
C      1  0.4567810000000  0.5531850000000  0.4911150000000 1.0
C      1  0.5560950000000  0.6010200000000  0.5588480000000 1.0
C      1  0.4792590000000  0.3712020000000  0.4925410000000 1.0
C      1  0.5014060000000  0.5932590000000  0.5276580000000 1.0
C      1  0.4457020000000  0.5875100000000  0.4224080000000 1.0
C      1  0.4186170000000  0.5083090000000  0.5566370000000 1.0
C      1  0.5022520000000  0.5627670000000  0.4400610000000 1.0
C      1  0.5112380000000  0.5944910000000  0.6178210000000 1.0
C      1  0.5769050000000  0.5363930000000  0.5253430000000 1.0
C      1  0.4266900000000  0.5909780000000  0.5160620000000 1.0
C      1  0.5535440000000  0.4354480000000  0.4104990000000 1.0
C      1  0.5939320000000  0.4538190000000  0.5472220000000 1.0
C      1  0.4292300000000  0.5961460000000  0.4861240000000 1.0
C      1  0.5213330000000  0.5059670000000  0.3855310000000 1.0
C      1  0.4690820000000  0.5433480000000  0.5387380000000 1.0
C      1  0.5481430000000  0.5701950000000  0.4169530000000 1.0
C      1  0.5020020000000  0.3809460000000  0.5103000000000 1.0
C      1  0.5370890000000  0.5610330000000  0.5917730000000 1.0
C      1  0.4693280000000  0.4965480000000  0.6216980000000 1.0
C      1  0.3900170000000  0.5038770000000  0.5493080000000 1.0
C      1  0.5694520000000  0.5825170000000  0.5062730000000 1.0
C      1  0.4063180000000  0.5247340000000  0.5076280000000 1.0
C      1  0.5823600000000  0.4612690000000  0.4996630000000 1.0
C      1  0.3805110000000  0.5321900000000  0.5502910000000 1.0
C      1  0.5850570000000  0.5125670000000  0.4196980000000 1.0
C      1  0.4917310000000  0.5986940000000  0.6352490000000 1.0
C      1  0.4867130000000  0.5535590000000  0.3926520000000 1.0
C      1  0.4622910000000  0.5944300000000  0.4442420000000 1.0
C      1  0.4533830000000  0.3815970000000  0.4855130000000 1.0
C      1  0.5568940000000  0.5160270000000  0.5280670000000 1.0
C      1  0.4367460000000  0.5364210000000  0.4508570000000 1.0
C      1  0.3916250000000  0.5077610000000  0.4888270000000 1.0
C      1  0.5371610000000  0.4826380000000  0.4452300000000 1.0
C      1  0.5609210000000  0.5959750000000  0.4591670000000 1.0
C      1  0.3885380000000  0.4785840000000  0.5322170000000 1.0
C      1  0.5417740000000  0.5251020000000  0.3916800000000 1.0
C      1  0.4030950000000  0.5532070000000  0.5511500000000 1.0
C      1  0.4348080000000  0.3954250000000  0.4712970000000 1.0
C      1  0.5527950000000  0.4869230000000  0.4701900000000 1.0
C      1  0.5620670000000  0.5578300000000  0.5775490000000 1.0
C      1  0.4494890000000  0.5989510000000  0.5313510000000 1.0
C      1  0.5180740000000  0.5048940000000  0.4482070000000 1.0
C      1  0.5360620000000  0.5540590000000  0.3950950000000 1.0
C      1  0.4762030000000  0.5998750000000  0.5344740000000 1.0
C      1  0.5666100000000  0.5137470000000  0.3987070000000 1.0
C      1  0.5468030000000  0.6251590000000  0.4944930000000 1.0
C      1  0.4672390000000  0.4625170000000  0.5878440000000 1.0
C      1  0.5028680000000  0.3955730000000  0.4442770000000 1.0
C      1  0.5116600000000  0.4218630000000  0.5357810000000 1.0
C      1  0.6122850000000  0.5172030000000  0.4701220000000 1.0
C      1  0.4534700000000  0.5401420000000  0.5630790000000 1.0
C      1  0.5586770000000  0.4020460000000  0.5021580000000 1.0
C      1  0.5651300000000  0.5744810000000  0.5542650000000 1.0
C      1  0.5014110000000  0.4444190000000  0.4473610000000 1.0
C      1  0.4446280000000  0.4197480000000  0.5106600000000 1.0
C      1  0.4620060000000  0.4850220000000  0.4282030000000 1.0
C      1  0.5051330000000  0.4458530000000  0.5189330000000 1.0
C      1  0.4879920000000  0.4199190000000  0.4347360000000 1.0
C      1  0.5020840000000  0.4873460000000  0.3951030000000 1.0
C      1  0.5466340000000  0.3926750000000  0.4606570000000 1.0
C      1  0.4397950000000  0.4729930000000  0.4956330000000 1.0
C      1  0.4979540000000  0.4971070000000  0.6186380000000 1.0
C      1  0.4074190000000  0.5697250000000  0.5264670000000 1.0
C      1  0.5336090000000  0.3691770000000  0.4720170000000 1.0
C      1  0.5333950000000  0.4574460000000  0.5568720000000 1.0
C      1  0.4901430000000  0.4499830000000  0.6005350000000 1.0
C      1  0.5583770000000  0.4144130000000  0.5506830000000 1.0
C      1  0.5293320000000  0.5277340000000  0.4617400000000 1.0
C      1  0.5344330000000  0.5163860000000  0.5095600000000 1.0
C      1  0.3850010000000  0.4800060000000  0.5009620000000 1.0
C      1  0.5392330000000  0.6071300000000  0.5792150000000 1.0
C      1  0.5043580000000  0.4581740000000  0.3941140000000 1.0
C      1  0.4433980000000  0.4276430000000  0.5696750000000 1.0
C      1  0.5845050000000  0.4429210000000  0.5214150000000 1.0
C      1  0.5287250000000  0.5879230000000  0.5972860000000 1.0
C      1  0.5902270000000  0.4622750000000  0.4255190000000 1.0
C      1  0.5610730000000  0.4736320000000  0.6053460000000 1.0
C      1  0.4834470000000  0.5228330000000  0.4269600000000 1.0
C      1  0.5087760000000  0.5652800000000  0.4873090000000 1.0
C      1  0.5189330000000  0.4165620000000  0.5821950000000 1.0
C      1  0.4615600000000  0.5271540000000  0.4436720000000 1.0
C      1  0.4507390000000  0.3837270000000  0.5417740000000 1.0
C      1  0.6033050000000  0.5272240000000  0.5188880000000 1.0
C      1  0.4882470000000  0.3552070000000  0.4705380000000 1.0
C      1  0.4733830000000  0.4724820000000  0.5606870000000 1.0
C      1  0.4391390000000  0.4989630000000  0.4145710000000 1.0
C      1  0.5116030000000  0.5621190000000  0.3813570000000 1.0
C      1  0.4948030000000  0.5462030000000  0.4191910000000 1.0
C      1  0.4100810000000  0.4403550000000  0.4744470000000 1.0
C      1  0.5795590000000  0.4142830000000  0.5697350000000 1.0
C      1  0.3930890000000  0.5566530000000  0.4774550000000 1.0
C      1  0.4428090000000  0.5706090000000  0.4015710000000 1.0
C      1  0.5190940000000  0.5390620000000  0.5916760000000 1.0
C      1  0.6038730000000  0.5678990000000  0.4635020000000 1.0
C      1  0.5102880000000  0.4315890000000  0.4717210000000 1.0
C      1  0.6062790000000  0.5404300000000  0.4560620000000 1.0
C      1  0.4655880000000  0.4280040000000  0.4188830000000 1.0
C      1  0.4455270000000  0.5214600000000  0.3958800000000 1.0
C      1  0.5891560000000  0.5377320000000  0.4322090000000 1.0
C      1  0.4654080000000  0.5200920000000  0.5787000000000 1.0
C      1  0.5822280000000  0.4788480000000  0.5567770000000 1.0
C      1  0.4756430000000  0.6242240000000  0.4773110000000 1.0
C      1  0.4788420000000  0.4430710000000  0.3970130000000 1.0
C      1  0.5791210000000  0.4240880000000  0.4545700000000 1.0
C      1  0.5710450000000  0.5644580000000  0.5282300000000 1.0
C      1  0.4164560000000  0.4992200000000  0.4319940000000 1.0
C      1  0.5232980000000  0.4784580000000  0.5722970000000 1.0
C      1  0.5170990000000  0.5796970000000  0.5101170000000 1.0
C      1  0.4929800000000  0.4341820000000  0.4939040000000 1.0
C      1  0.5605280000000  0.6016650000000  0.4872090000000 1.0
C      1  0.5235690000000  0.6355660000000  0.4858500000000 1.0
C      1  0.4325900000000  0.4732880000000  0.5231690000000 1.0
C      1  0.3620470000000  0.4362480000000  0.4878840000000 1.0
C      1  0.4992510000000  0.4915660000000  0.4648030000000 1.0
C      1  0.5771770000000  0.4805840000000  0.5848350000000 1.0
C      1  0.4251010000000  0.5370360000000  0.5620040000000 1.0
C      1  0.5442830000000  0.5137740000000  0.4822450000000 1.0
C      1  0.5034640000000  0.6253670000000  0.4690820000000 1.0
C      1  0.5176610000000  0.5532610000000  0.4628590000000 1.0
C      1  0.4119130000000  0.5236310000000  0.4452650000000 1.0
C      1  0.6093460000000  0.4927970000000  0.4565590000000 1.0
C      1  0.4831200000000  0.4922340000000  0.5137480000000 1.0
C      1  0.5120050000000  0.4782620000000  0.4863270000000 1.0
C      1  0.5821240000000  0.5419490000000  0.5870840000000 1.0
C      1  0.4350160000000  0.4990500000000  0.5347080000000 1.0
C      1  0.4805910000000  0.4990270000000  0.5680870000000 1.0
C      1  0.4118060000000  0.4594750000000  0.5381310000000 1.0
C      1  0.5227860000000  0.5327070000000  0.6397270000000 1.0
C      1  0.5370680000000  0.4669420000000  0.6157450000000 1.0
C      1  0.4377540000000  0.5551590000000  0.4706880000000 1.0
C      1  0.4401900000000  0.4262150000000  0.4334480000000 1.0
C      1  0.4809620000000  0.5648190000000  0.4872330000000 1.0
C      1  0.5306300000000  0.3792590000000  0.5004620000000 1.0
C      1  0.4575870000000  0.5483600000000  0.3913010000000 1.0
C      1  0.3850280000000  0.4510270000000  0.4874640000000 1.0
C      1  0.5560650000000  0.4654470000000  0.4892780000000 1.0
C      1  0.4847540000000  0.4971110000000  0.4151500000000 1.0
C      1  0.6067690000000  0.5089170000000  0.4977520000000 1.0
C      1  0.4250950000000  0.4647840000000  0.4728680000000 1.0
C      1  0.6248350000000  0.5359210000000  0.5333800000000 1.0
C      1  0.5121240000000  0.5297120000000  0.5652860000000 1.0
C      1  0.3914290000000  0.5279070000000  0.4654710000000 1.0
C      1  0.5086890000000  0.4695560000000  0.6141550000000 1.0
C      1  0.5753470000000  0.4385360000000  0.4295170000000 1.0
C      1  0.5229880000000  0.4593990000000  0.4353700000000 1.0
C      1  0.5086090000000  0.5015290000000  0.5688760000000 1.0
C      1  0.4533690000000  0.6069150000000  0.4701460000000 1.0
C      1  0.4909070000000  0.5887670000000  0.4414670000000 1.0
C      1  0.4974000000000  0.5347950000000  0.5397430000000 1.0
C      1  0.5285940000000  0.4492440000000  0.4088830000000 1.0
C      1  0.4534880000000  0.5392910000000  0.5149150000000 1.0
C      1  0.5823690000000  0.5803690000000  0.4495640000000 1.0
C      1  0.3966950000000  0.5520300000000  0.5061610000000 1.0
C      1  0.5118410000000  0.6072520000000  0.4476860000000 1.0
C      1  0.5083070000000  0.3677180000000  0.4553100000000 1.0
C      1  0.5384950000000  0.5962730000000  0.4404150000000 1.0
C      1  0.4252710000000  0.4194840000000  0.4585920000000 1.0
END
