TITL C-612603-7354-655 3.16622936673275 125000 -946.972289498276 0 0 155 (C1) n - 1
REM
REM in /home/nfs/bkarasulu/CARBON/AIRSS/Generating-Clusters/TERSOFF/Only-C1/FIRE-HFTN
REM
REM
REM
REM
REM
REM ./C.cell (11c1c37f851c82e70ff6c80c92926a4b)
REM AIRSS Version 0.9.1 bugfix July 2018 build 013d7b7c2542+ Fri, 06 Jul 2018 19:26:36 +0100
REM compiler GCC version 9.2.1 20190827 (Red Hat 9.2.1-1)
REM options -cpp -mtune=generic -march=x86-64 -g -O0 -fpre-include=/usr/include/finclude/math-vector-fortran.h
REM seed -898236796 -1386547667 2116319913 -1454577049 -1480473828 -864542826 1771381787 -387486763 -1443442414 -1670546861 448207198 -1864717301 514130660 557241586 1394234545 -441562616 -534380821 -586728038 2090256238 1132847681 -1184261936 263953572 1021816090 -1450941674 1675700451 1179431812 -350222910 -697812589 -978187376 -1669872905 525682317 -426345725 758735891
REM
CELL 1.54180   50.00000   50.00000   50.00000   90.00000   90.00000   90.00000
LATT -1
SFAC C  
C      1  0.4879640000000  0.5074640000000  0.4702590000000 1.0
C      1  0.5745120000000  0.5488480000000  0.5690550000000 1.0
C      1  0.4847760000000  0.4164500000000  0.6605070000000 1.0
C      1  0.4160110000000  0.4561840000000  0.5370940000000 1.0
C      1  0.4265580000000  0.5838260000000  0.4818790000000 1.0
C      1  0.5295310000000  0.4092410000000  0.4704580000000 1.0
C      1  0.4086030000000  0.5666830000000  0.4680300000000 1.0
C      1  0.5091040000000  0.5201920000000  0.4331510000000 1.0
C      1  0.4443390000000  0.5096430000000  0.4206540000000 1.0
C      1  0.5549430000000  0.4688700000000  0.4614430000000 1.0
C      1  0.4313110000000  0.3871580000000  0.5190410000000 1.0
C      1  0.5033630000000  0.4052350000000  0.3979120000000 1.0
C      1  0.4716080000000  0.5622540000000  0.4118120000000 1.0
C      1  0.4910080000000  0.4974410000000  0.4249700000000 1.0
C      1  0.5736510000000  0.5493250000000  0.4206370000000 1.0
C      1  0.5738480000000  0.5649070000000  0.4949240000000 1.0
C      1  0.5561020000000  0.4453170000000  0.4174390000000 1.0
C      1  0.4407690000000  0.5145950000000  0.5612150000000 1.0
C      1  0.4846170000000  0.5133380000000  0.6226760000000 1.0
C      1  0.4809040000000  0.4866910000000  0.4513770000000 1.0
C      1  0.5610710000000  0.4693620000000  0.5655670000000 1.0
C      1  0.4093150000000  0.4742900000000  0.4357210000000 1.0
C      1  0.5117070000000  0.5373010000000  0.3924630000000 1.0
C      1  0.4771630000000  0.3954950000000  0.5689030000000 1.0
C      1  0.5106830000000  0.6152730000000  0.5232950000000 1.0
C      1  0.4707590000000  0.5120390000000  0.4088740000000 1.0
C      1  0.5319390000000  0.4570990000000  0.4724210000000 1.0
C      1  0.6145090000000  0.5062820000000  0.5030320000000 1.0
C      1  0.4524510000000  0.5412200000000  0.5581820000000 1.0
C      1  0.4709300000000  0.6138750000000  0.4928840000000 1.0
C      1  0.4148650000000  0.4454530000000  0.4463720000000 1.0
C      1  0.3919380000000  0.4609970000000  0.4919610000000 1.0
C      1  0.4897730000000  0.4633470000000  0.5783200000000 1.0
C      1  0.5868440000000  0.4684010000000  0.5239000000000 1.0
C      1  0.6412840000000  0.5142580000000  0.5445620000000 1.0
C      1  0.4129950000000  0.5103790000000  0.5645470000000 1.0
C      1  0.5441460000000  0.4981730000000  0.3835420000000 1.0
C      1  0.4505730000000  0.6331810000000  0.5594760000000 1.0
C      1  0.4816600000000  0.6254280000000  0.4704210000000 1.0
C      1  0.5989000000000  0.5507930000000  0.4978590000000 1.0
C      1  0.4452170000000  0.5704910000000  0.4062450000000 1.0
C      1  0.5133730000000  0.4701040000000  0.5213370000000 1.0
C      1  0.5305690000000  0.4342100000000  0.5814780000000 1.0
C      1  0.5058810000000  0.3953620000000  0.5078580000000 1.0
C      1  0.4898310000000  0.4363340000000  0.4750330000000 1.0
C      1  0.5304500000000  0.5817940000000  0.5813820000000 1.0
C      1  0.6074120000000  0.5461800000000  0.5262730000000 1.0
C      1  0.4211220000000  0.5728600000000  0.4176020000000 1.0
C      1  0.5108800000000  0.3890460000000  0.4799610000000 1.0
C      1  0.5825050000000  0.3986680000000  0.4239220000000 1.0
C      1  0.4995020000000  0.5438090000000  0.5804390000000 1.0
C      1  0.4161000000000  0.5582050000000  0.5246880000000 1.0
C      1  0.3914430000000  0.5197360000000  0.4636160000000 1.0
C      1  0.4203010000000  0.4275990000000  0.4710490000000 1.0
C      1  0.3981430000000  0.5418590000000  0.5096010000000 1.0
C      1  0.5434800000000  0.5266400000000  0.4735290000000 1.0
C      1  0.4918810000000  0.3720960000000  0.4356130000000 1.0
C      1  0.5167410000000  0.4343180000000  0.4655540000000 1.0
C      1  0.5304620000000  0.5984010000000  0.5347360000000 1.0
C      1  0.6016650000000  0.4965890000000  0.4389530000000 1.0
C      1  0.4921750000000  0.5446520000000  0.5309430000000 1.0
C      1  0.4818990000000  0.4675450000000  0.6486020000000 1.0
C      1  0.5757010000000  0.4419630000000  0.5222170000000 1.0
C      1  0.4375230000000  0.4736850000000  0.4768200000000 1.0
C      1  0.5309850000000  0.5065800000000  0.5477830000000 1.0
C      1  0.5675330000000  0.4873290000000  0.4788980000000 1.0
C      1  0.3990980000000  0.4927740000000  0.4570780000000 1.0
C      1  0.5249640000000  0.5390030000000  0.4185690000000 1.0
C      1  0.5056370000000  0.5593090000000  0.4861410000000 1.0
C      1  0.5547070000000  0.5550980000000  0.5149620000000 1.0
C      1  0.4354120000000  0.5588300000000  0.5435140000000 1.0
C      1  0.5931350000000  0.5530160000000  0.5499140000000 1.0
C      1  0.5422610000000  0.4202790000000  0.6020530000000 1.0
C      1  0.4069920000000  0.5705890000000  0.4401690000000 1.0
C      1  0.5139410000000  0.4869570000000  0.5418270000000 1.0
C      1  0.6066900000000  0.5260090000000  0.4814710000000 1.0
C      1  0.4105200000000  0.4310820000000  0.5226440000000 1.0
C      1  0.5060430000000  0.5639310000000  0.5145120000000 1.0
C      1  0.3970410000000  0.5430530000000  0.4804370000000 1.0
C      1  0.4411440000000  0.5232670000000  0.4458060000000 1.0
C      1  0.5266240000000  0.5195240000000  0.3759990000000 1.0
C      1  0.3947340000000  0.5021050000000  0.5447160000000 1.0
C      1  0.5514480000000  0.5384530000000  0.5827550000000 1.0
C      1  0.4940640000000  0.3849380000000  0.4123720000000 1.0
C      1  0.3935260000000  0.4748100000000  0.5370980000000 1.0
C      1  0.5023820000000  0.4385710000000  0.5820540000000 1.0
C      1  0.4096450000000  0.4791570000000  0.4798290000000 1.0
C      1  0.4822510000000  0.5380420000000  0.3986630000000 1.0
C      1  0.3771130000000  0.4696380000000  0.5143150000000 1.0
C      1  0.4759480000000  0.3868450000000  0.5438390000000 1.0
C      1  0.4788320000000  0.3926050000000  0.5162970000000 1.0
C      1  0.5369090000000  0.4118790000000  0.5174140000000 1.0
C      1  0.5355400000000  0.5998980000000  0.5622800000000 1.0
C      1  0.5628530000000  0.4672400000000  0.4343400000000 1.0
C      1  0.4815580000000  0.5457960000000  0.5575930000000 1.0
C      1  0.5267740000000  0.5537980000000  0.5822400000000 1.0
C      1  0.5013480000000  0.5136030000000  0.4942850000000 1.0
C      1  0.5493400000000  0.4102990000000  0.4913400000000 1.0
C      1  0.4897410000000  0.5306250000000  0.6032640000000 1.0
C      1  0.4338380000000  0.6364650000000  0.5797570000000 1.0
C      1  0.3866790000000  0.5212140000000  0.5251930000000 1.0
C      1  0.5202250000000  0.5337840000000  0.4861970000000 1.0
C      1  0.5350190000000  0.4715220000000  0.3820650000000 1.0
C      1  0.4609470000000  0.4513180000000  0.5178410000000 1.0
C      1  0.5242690000000  0.4670400000000  0.4974790000000 1.0
C      1  0.4915140000000  0.5589590000000  0.4604890000000 1.0
C      1  0.5571540000000  0.5077930000000  0.5373550000000 1.0
C      1  0.5470810000000  0.4439660000000  0.5604890000000 1.0
C      1  0.5571640000000  0.4859600000000  0.5883800000000 1.0
C      1  0.5518110000000  0.4305020000000  0.5349240000000 1.0
C      1  0.5781930000000  0.4892270000000  0.4236660000000 1.0
C      1  0.4477260000000  0.5978790000000  0.4903460000000 1.0
C      1  0.6080550000000  0.4783740000000  0.5069810000000 1.0
C      1  0.4822170000000  0.4918180000000  0.6379630000000 1.0
C      1  0.6210560000000  0.4768770000000  0.4439120000000 1.0
C      1  0.4586520000000  0.4721150000000  0.4600220000000 1.0
C      1  0.4446390000000  0.5156130000000  0.4983310000000 1.0
C      1  0.4261680000000  0.4878550000000  0.4167670000000 1.0
C      1  0.5951540000000  0.5431710000000  0.4356940000000 1.0
C      1  0.4828070000000  0.5723220000000  0.4367870000000 1.0
C      1  0.5175120000000  0.4272290000000  0.3932400000000 1.0
C      1  0.4423040000000  0.4092050000000  0.4781820000000 1.0
C      1  0.6030850000000  0.5220550000000  0.4527690000000 1.0
C      1  0.4529770000000  0.3947040000000  0.5017190000000 1.0
C      1  0.5599920000000  0.5252340000000  0.5157620000000 1.0
C      1  0.4747500000000  0.4815020000000  0.5657620000000 1.0
C      1  0.4830360000000  0.4419700000000  0.6554760000000 1.0
C      1  0.5468630000000  0.5730880000000  0.4499950000000 1.0
C      1  0.5672000000000  0.5011790000000  0.4002630000000 1.0
C      1  0.5532100000000  0.5122080000000  0.5935050000000 1.0
C      1  0.5323500000000  0.5723110000000  0.5230120000000 1.0
C      1  0.4421050000000  0.5241100000000  0.4727980000000 1.0
C      1  0.6221440000000  0.4605590000000  0.4902590000000 1.0
C      1  0.4615990000000  0.5077970000000  0.5197330000000 1.0
C      1  0.4042390000000  0.4354450000000  0.4945680000000 1.0
C      1  0.5700720000000  0.4212520000000  0.4201220000000 1.0
C      1  0.4922580000000  0.5311670000000  0.4534840000000 1.0
C      1  0.5468350000000  0.5551120000000  0.4277720000000 1.0
C      1  0.6283370000000  0.4609710000000  0.4641770000000 1.0
C      1  0.4668950000000  0.6283500000000  0.5391850000000 1.0
C      1  0.4981130000000  0.3726230000000  0.4615610000000 1.0
C      1  0.4146800000000  0.4047220000000  0.5309820000000 1.0
C      1  0.5613230000000  0.5123640000000  0.4896090000000 1.0
C      1  0.5722100000000  0.4840460000000  0.5428170000000 1.0
C      1  0.4751340000000  0.4429080000000  0.4967070000000 1.0
C      1  0.4831030000000  0.6192990000000  0.5182380000000 1.0
C      1  0.5359660000000  0.4478460000000  0.3972060000000 1.0
C      1  0.4170130000000  0.6394560000000  0.6000190000000 1.0
C      1  0.6225220000000  0.5215350000000  0.5263320000000 1.0
C      1  0.4862240000000  0.4157050000000  0.5835810000000 1.0
C      1  0.4429330000000  0.4658840000000  0.5347240000000 1.0
C      1  0.4546430000000  0.4922320000000  0.5455670000000 1.0
C      1  0.4870730000000  0.5196380000000  0.5176490000000 1.0
C      1  0.5624500000000  0.5767550000000  0.4718890000000 1.0
C      1  0.4004610000000  0.6423820000000  0.6199470000000 1.0
END
