TITL C-612603-7354-1082 0.00870591740488348 125000 -248.850760630798 0 0 42 (C1) n - 1
REM
REM in /home/nfs/bkarasulu/CARBON/AIRSS/Generating-Clusters/TERSOFF/Only-C1/FIRE-HFTN
REM
REM
REM
REM
REM
REM ./C.cell (11c1c37f851c82e70ff6c80c92926a4b)
REM AIRSS Version 0.9.1 bugfix July 2018 build 013d7b7c2542+ Fri, 06 Jul 2018 19:26:36 +0100
REM compiler GCC version 9.2.1 20190827 (Red Hat 9.2.1-1)
REM options -cpp -mtune=generic -march=x86-64 -g -O0 -fpre-include=/usr/include/finclude/math-vector-fortran.h
REM seed 49244712 1332770115 -660806253 -493449417 101727730 228389386 -2119594614 513071982 -1820958468 2019441572 -1435216494 -209870269 -220883086 2116244775 -226278134 1075721379 833178338 -2044507025 1804921558 1529065332 484943766 -506290057 -1775918859 -1760689198 -1877933335 -743200326 -984495145 1984174689 2113311981 1007697874 -463511736 1822391997 -1192018065
REM
CELL 1.54180   50.00000   50.00000   50.00000   90.00000   90.00000   90.00000
LATT -1
SFAC C  
C      1  0.4524190000000  0.4565480000000  0.4881030000000 1.0
C      1  0.5543900000000  0.4688510000000  0.4456710000000 1.0
C      1  0.4413430000000  0.5156370000000  0.6256900000000 1.0
C      1  0.4826650000000  0.4226150000000  0.4736540000000 1.0
C      1  0.5195730000000  0.4574150000000  0.5051980000000 1.0
C      1  0.4930720000000  0.4426390000000  0.4277950000000 1.0
C      1  0.4573370000000  0.5266470000000  0.6082950000000 1.0
C      1  0.5527240000000  0.4939220000000  0.5011160000000 1.0
C      1  0.4888970000000  0.4248990000000  0.4475650000000 1.0
C      1  0.5505250000000  0.4969230000000  0.4493450000000 1.0
C      1  0.4931870000000  0.4488450000000  0.5149180000000 1.0
C      1  0.5232590000000  0.4914720000000  0.5403340000000 1.0
C      1  0.5356280000000  0.5288610000000  0.5743050000000 1.0
C      1  0.5481200000000  0.5908280000000  0.5578950000000 1.0
C      1  0.4898960000000  0.5041370000000  0.4902860000000 1.0
C      1  0.4435960000000  0.4750200000000  0.4706900000000 1.0
C      1  0.4762860000000  0.5362970000000  0.5256600000000 1.0
C      1  0.5176970000000  0.5328640000000  0.4369120000000 1.0
C      1  0.5360130000000  0.4781790000000  0.5183710000000 1.0
C      1  0.4941450000000  0.5445240000000  0.4421390000000 1.0
C      1  0.4841260000000  0.5559010000000  0.5439090000000 1.0
C      1  0.5180390000000  0.4630150000000  0.4772070000000 1.0
C      1  0.4849480000000  0.5110100000000  0.5173230000000 1.0
C      1  0.4835460000000  0.4656890000000  0.5357830000000 1.0
C      1  0.4505070000000  0.5199810000000  0.4508450000000 1.0
C      1  0.5263480000000  0.5748080000000  0.5565970000000 1.0
C      1  0.5372270000000  0.4528340000000  0.4592830000000 1.0
C      1  0.5196430000000  0.5518850000000  0.5734490000000 1.0
C      1  0.4498740000000  0.4918810000000  0.4489340000000 1.0
C      1  0.5559440000000  0.5046800000000  0.4763580000000 1.0
C      1  0.4683490000000  0.5397320000000  0.4474950000000 1.0
C      1  0.5288540000000  0.5073030000000  0.4333700000000 1.0
C      1  0.5121850000000  0.4880530000000  0.4200500000000 1.0
C      1  0.5014100000000  0.4860660000000  0.4737860000000 1.0
C      1  0.5039270000000  0.5763100000000  0.5383170000000 1.0
C      1  0.4745020000000  0.4398160000000  0.4946580000000 1.0
C      1  0.4946070000000  0.4919340000000  0.5367620000000 1.0
C      1  0.4907840000000  0.5474640000000  0.5712580000000 1.0
C      1  0.4646770000000  0.4808810000000  0.4275130000000 1.0
C      1  0.4736170000000  0.5376410000000  0.5905210000000 1.0
C      1  0.4902250000000  0.4701720000000  0.4220090000000 1.0
C      1  0.5358880000000  0.5058210000000  0.5606320000000 1.0
END
