TITL C-612603-7354-384 2710.48919763106 125000 -1044.74372059625 0 0 172 (C1) n - 1
REM
REM in /home/nfs/bkarasulu/CARBON/AIRSS/Generating-Clusters/TERSOFF/Only-C1/FIRE-HFTN
REM
REM
REM
REM
REM
REM ./C.cell (11c1c37f851c82e70ff6c80c92926a4b)
REM AIRSS Version 0.9.1 bugfix July 2018 build 013d7b7c2542+ Fri, 06 Jul 2018 19:26:36 +0100
REM compiler GCC version 9.2.1 20190827 (Red Hat 9.2.1-1)
REM options -cpp -mtune=generic -march=x86-64 -g -O0 -fpre-include=/usr/include/finclude/math-vector-fortran.h
REM seed -1606596770 -982542778 41641818 -769645665 -292271006 -1306019647 -1126398606 1226428805 620489075 -597618909 -596734760 -2009296846 -1818650570 269758180 -1380315774 1436021729 1492405273 -982008957 -1119051131 1646296780 313184393 -671735894 386795275 83187005 558120273 495098425 2044108737 -1063497609 1015433025 1449044056 1937203203 -2108875814 1403058070
REM
CELL 1.54180   50.00000   50.00000   50.00000   90.00000   90.00000   90.00000
LATT -1
SFAC C  
C      1  0.5252850000000  0.5548050000000  0.5512850000000 1.0
C      1  0.4723360000000  0.4843360000000  0.5340570000000 1.0
C      1  0.5038590000000  0.4974770000000  0.6367890000000 1.0
C      1  0.5459870000000  0.4816630000000  0.4754180000000 1.0
C      1  0.3884460000000  0.4308230000000  0.5471360000000 1.0
C      1  0.4972280000000  0.4649940000000  0.4500970000000 1.0
C      1  0.4706730000000  0.5029040000000  0.4346230000000 1.0
C      1  0.5794120000000  0.5811640000000  0.4807620000000 1.0
C      1  0.5324740000000  0.4872930000000  0.3884140000000 1.0
C      1  0.4415950000000  0.5204440000000  0.5439700000000 1.0
C      1  0.5151120000000  0.4060530000000  0.4986700000000 1.0
C      1  0.5027380000000  0.4849290000000  0.4914260000000 1.0
C      1  0.5481750000000  0.5521500000000  0.5339160000000 1.0
C      1  0.5935620000000  0.5406210000000  0.5243300000000 1.0
C      1  0.4841140000000  0.6060470000000  0.6051320000000 1.0
C      1  0.4229530000000  0.4429850000000  0.4233060000000 1.0
C      1  0.4944780000000  0.4247210000000  0.6151930000000 1.0
C      1  0.4774590000000  0.4537650000000  0.5855170000000 1.0
C      1  0.4680360000000  0.5748820000000  0.4268640000000 1.0
C      1  0.5020540000000  0.5201060000000  0.6192970000000 1.0
C      1  0.5068210000000  0.5063330000000  0.5753530000000 1.0
C      1  0.5798470000000  0.4312500000000  0.4994840000000 1.0
C      1  0.5531200000000  0.4590130000000  0.5311270000000 1.0
C      1  0.5927280000000  0.4755310000000  0.4555910000000 1.0
C      1  0.5307610000000  0.5978280000000  0.5525110000000 1.0
C      1  0.5927570000000  0.5034600000000  0.4534100000000 1.0
C      1  0.4462860000000  0.4942980000000  0.5341050000000 1.0
C      1  0.5024260000000  0.3772060000000  0.5606910000000 1.0
C      1  0.4816210000000  0.5542630000000  0.5291640000000 1.0
C      1  0.5677010000000  0.5132070000000  0.5810980000000 1.0
C      1  0.4718610000000  0.6039960000000  0.5368940000000 1.0
C      1  0.5791240000000  0.5355520000000  0.4978500000000 1.0
C      1  0.4232050000000  0.5859590000000  0.5198840000000 1.0
C      1  0.5321000000000  0.4383320000000  0.5361190000000 1.0
C      1  0.4675570000000  0.5155030000000  0.4606360000000 1.0
C      1  0.5332340000000  0.5525270000000  0.4150560000000 1.0
C      1  0.6006470000000  0.4498250000000  0.5102230000000 1.0
C      1  0.5525770000000  0.3792430000000  0.5495780000000 1.0
C      1  0.4881570000000  0.5592590000000  0.4397630000000 1.0
C      1  0.5218340000000  0.5211780000000  0.5967590000000 1.0
C      1  0.5479430000000  0.4174890000000  0.4640900000000 1.0
C      1  0.5099970000000  0.6066900000000  0.5058780000000 1.0
C      1  0.4604210000000  0.4353180000000  0.5486870000000 1.0
C      1  0.5894680000000  0.5677750000000  0.4561990000000 1.0
C      1  0.4275190000000  0.4167470000000  0.4215460000000 1.0
C      1  0.3980400000000  0.5056660000000  0.4400890000000 1.0
C      1  0.4278860000000  0.5392010000000  0.4228400000000 1.0
C      1  0.4697460000000  0.4134550000000  0.5653050000000 1.0
C      1  0.5339730000000  0.5244640000000  0.4166960000000 1.0
C      1  0.4766510000000  0.3876170000000  0.5208270000000 1.0
C      1  0.5123400000000  0.5079300000000  0.5478220000000 1.0
C      1  0.5506160000000  0.5993820000000  0.5311140000000 1.0
C      1  0.5376740000000  0.5049660000000  0.5354960000000 1.0
C      1  0.5165680000000  0.5163260000000  0.4587020000000 1.0
C      1  0.5646300000000  0.4073930000000  0.5074860000000 1.0
C      1  0.6116300000000  0.5177410000000  0.5250170000000 1.0
C      1  0.4737400000000  0.4551820000000  0.5332080000000 1.0
C      1  0.5811320000000  0.5175030000000  0.4304380000000 1.0
C      1  0.5467000000000  0.5340960000000  0.5888210000000 1.0
C      1  0.5215120000000  0.4590960000000  0.3912380000000 1.0
C      1  0.4913650000000  0.4594240000000  0.3923870000000 1.0
C      1  0.4028250000000  0.4552630000000  0.4921970000000 1.0
C      1  0.5679310000000  0.4373130000000  0.4721680000000 1.0
C      1  0.5425940000000  0.5139130000000  0.4730270000000 1.0
C      1  0.5377110000000  0.4503300000000  0.6117610000000 1.0
C      1  0.5958990000000  0.5176680000000  0.4795390000000 1.0
C      1  0.3769510000000  0.4964790000000  0.5077270000000 1.0
C      1  0.4920130000000  0.5541820000000  0.4664340000000 1.0
C      1  0.3856850000000  0.5226280000000  0.5470940000000 1.0
C      1  0.4514940000000  0.4236290000000  0.4807430000000 1.0
C      1  0.4992990000000  0.5129190000000  0.5002690000000 1.0
C      1  0.4457240000000  0.3982470000000  0.4284640000000 1.0
C      1  0.4963970000000  0.5556480000000  0.5525300000000 1.0
C      1  0.4363240000000  0.4903110000000  0.4858190000000 1.0
C      1  0.4722320000000  0.4437140000000  0.4876620000000 1.0
C      1  0.4274070000000  0.4679220000000  0.4356310000000 1.0
C      1  0.5488110000000  0.5746320000000  0.4874720000000 1.0
C      1  0.6207520000000  0.4538750000000  0.4900880000000 1.0
C      1  0.4870250000000  0.4429260000000  0.5114960000000 1.0
C      1  0.4128400000000  0.4616370000000  0.5192190000000 1.0
C      1  0.6017660000000  0.4700050000000  0.5323060000000 1.0
C      1  0.4264900000000  0.4421100000000  0.4774970000000 1.0
C      1  0.5154650000000  0.5094910000000  0.4319600000000 1.0
C      1  0.5541260000000  0.5075860000000  0.4076520000000 1.0
C      1  0.5316900000000  0.4329240000000  0.3975660000000 1.0
C      1  0.4939180000000  0.6141940000000  0.4833660000000 1.0
C      1  0.5937440000000  0.5098550000000  0.5683830000000 1.0
C      1  0.4823480000000  0.5847160000000  0.5902640000000 1.0
C      1  0.4811800000000  0.4867190000000  0.3893190000000 1.0
C      1  0.5497470000000  0.6186400000000  0.4228280000000 1.0
C      1  0.5450330000000  0.4701020000000  0.5056190000000 1.0
C      1  0.4795470000000  0.5698180000000  0.4851760000000 1.0
C      1  0.5287820000000  0.6004240000000  0.4251750000000 1.0
C      1  0.4702340000000  0.4015860000000  0.4706520000000 1.0
C      1  0.5122550000000  0.4464700000000  0.6241900000000 1.0
C      1  0.4762350000000  0.5219290000000  0.6046360000000 1.0
C      1  0.4885790000000  0.3935060000000  0.4942490000000 1.0
C      1  0.5369850000000  0.5968990000000  0.5046000000000 1.0
C      1  0.4336040000000  0.4811070000000  0.5826610000000 1.0
C      1  0.6044480000000  0.4974520000000  0.5439860000000 1.0
C      1  0.5033210000000  0.4703040000000  0.6374720000000 1.0
C      1  0.4946580000000  0.5309050000000  0.3818950000000 1.0
C      1  0.3931090000000  0.5434740000000  0.4994330000000 1.0
C      1  0.4696450000000  0.5354420000000  0.3965320000000 1.0
C      1  0.5523410000000  0.4828740000000  0.5478390000000 1.0
C      1  0.3967190000000  0.5364520000000  0.4714350000000 1.0
C      1  0.4468590000000  0.5161860000000  0.4801740000000 1.0
C      1  0.5418180000000  0.4033480000000  0.4889170000000 1.0
C      1  0.5216380000000  0.4400510000000  0.5620540000000 1.0
C      1  0.4805150000000  0.3912210000000  0.5497230000000 1.0
C      1  0.5056640000000  0.5036350000000  0.3813040000000 1.0
C      1  0.4624420000000  0.4774010000000  0.5864830000000 1.0
C      1  0.4521910000000  0.5546390000000  0.4126630000000 1.0
C      1  0.3868730000000  0.4975860000000  0.4635280000000 1.0
C      1  0.4801260000000  0.4348690000000  0.4020980000000 1.0
C      1  0.5493320000000  0.5467770000000  0.5046620000000 1.0
C      1  0.4803500000000  0.5605640000000  0.5763100000000 1.0
C      1  0.5677270000000  0.4644110000000  0.4633100000000 1.0
C      1  0.4460760000000  0.5974520000000  0.5298880000000 1.0
C      1  0.5369940000000  0.5654000000000  0.5738720000000 1.0
C      1  0.4674650000000  0.5562100000000  0.5055230000000 1.0
C      1  0.4222830000000  0.5082600000000  0.5819350000000 1.0
C      1  0.5547340000000  0.5388630000000  0.4596770000000 1.0
C      1  0.4763690000000  0.4250320000000  0.5922330000000 1.0
C      1  0.5122460000000  0.4291700000000  0.5158640000000 1.0
C      1  0.5169590000000  0.4730690000000  0.5117740000000 1.0
C      1  0.4912020000000  0.5059550000000  0.5290890000000 1.0
C      1  0.5399340000000  0.5645140000000  0.4603630000000 1.0
C      1  0.5288500000000  0.3735700000000  0.5603530000000 1.0
C      1  0.4721790000000  0.4010460000000  0.4398640000000 1.0
C      1  0.5336960000000  0.5738310000000  0.4340370000000 1.0
C      1  0.5035680000000  0.4556660000000  0.5739530000000 1.0
C      1  0.4933190000000  0.5256800000000  0.4733460000000 1.0
C      1  0.3964230000000  0.5136930000000  0.5704750000000 1.0
C      1  0.5284960000000  0.4201510000000  0.4439880000000 1.0
C      1  0.4954880000000  0.4884770000000  0.4317680000000 1.0
C      1  0.4065210000000  0.4512740000000  0.5448030000000 1.0
C      1  0.5774940000000  0.5879360000000  0.5301940000000 1.0
C      1  0.4320510000000  0.5110240000000  0.4105120000000 1.0
C      1  0.4417990000000  0.5274030000000  0.5717470000000 1.0
C      1  0.4464900000000  0.5378800000000  0.4994640000000 1.0
C      1  0.4043960000000  0.5687700000000  0.5094250000000 1.0
C      1  0.5520070000000  0.4668660000000  0.5960070000000 1.0
C      1  0.6161830000000  0.4626630000000  0.4648670000000 1.0
C      1  0.5664380000000  0.3919450000000  0.5306390000000 1.0
C      1  0.5338090000000  0.5208780000000  0.5028620000000 1.0
C      1  0.4068320000000  0.5338740000000  0.4447140000000 1.0
C      1  0.5779930000000  0.5439620000000  0.4429150000000 1.0
C      1  0.5021280000000  0.6081800000000  0.4192890000000 1.0
C      1  0.3859190000000  0.4800030000000  0.4856410000000 1.0
C      1  0.5005450000000  0.6050860000000  0.5339620000000 1.0
C      1  0.6176410000000  0.5105910000000  0.4977830000000 1.0
C      1  0.5166780000000  0.4756450000000  0.4685510000000 1.0
C      1  0.4791390000000  0.6119180000000  0.4604710000000 1.0
C      1  0.5564620000000  0.4862080000000  0.5760430000000 1.0
C      1  0.4907790000000  0.4125200000000  0.4181510000000 1.0
C      1  0.5212360000000  0.4136180000000  0.4167060000000 1.0
C      1  0.4611300000000  0.5064160000000  0.4055950000000 1.0
C      1  0.4167020000000  0.4916190000000  0.4245470000000 1.0
C      1  0.4186520000000  0.4617420000000  0.5682240000000 1.0
C      1  0.5070790000000  0.4374920000000  0.4501500000000 1.0
C      1  0.5701740000000  0.6348210000000  0.4226150000000 1.0
C      1  0.5911330000000  0.5919740000000  0.5048400000000 1.0
C      1  0.3835280000000  0.5223040000000  0.5184680000000 1.0
C      1  0.4628720000000  0.5402430000000  0.5868590000000 1.0
C      1  0.4705300000000  0.4617920000000  0.4648570000000 1.0
C      1  0.4778720000000  0.6020790000000  0.4331690000000 1.0
C      1  0.4321530000000  0.5363360000000  0.5236220000000 1.0
C      1  0.4802580000000  0.4993590000000  0.5860840000000 1.0
C      1  0.4401520000000  0.4681070000000  0.4633510000000 1.0
C      1  0.5770330000000  0.5598000000000  0.5385500000000 1.0
C      1  0.4306010000000  0.4833410000000  0.5136790000000 1.0
END
