TITL C-612602-9376-164 3.30296877692111 125000 -240.297032719207 0 0 41 (C1) n - 1
REM
REM in /home/nfs/bkarasulu/CARBON/AIRSS/Generating-Clusters/TERSOFF/Only-C1/FIRE-HFTN
REM
REM
REM
REM
REM
REM ./C.cell (11c1c37f851c82e70ff6c80c92926a4b)
REM AIRSS Version 0.9.1 bugfix July 2018 build 013d7b7c2542+ Fri, 06 Jul 2018 19:26:36 +0100
REM compiler GCC version 9.2.1 20190827 (Red Hat 9.2.1-1)
REM options -cpp -mtune=generic -march=x86-64 -g -O0 -fpre-include=/usr/include/finclude/math-vector-fortran.h
REM seed 1149216196 -451506811 -1671566170 -1961357351 1482893160 -1565758721 1024306266 553057889 1928977406 -1815448324 -1498414767 106900291 2020636817 -958117478 1123303922 1408562800 141057729 -345646754 648208037 1640673652 -958048163 -1472878320 1458099022 1950938972 -1513301180 1636315568 1831246680 -685520786 1365488140 1927422027 1394424192 1560315489 2007959569
REM
CELL 1.54180   50.00000   50.00000   50.00000   90.00000   90.00000   90.00000
LATT -1
SFAC C  
C      1  0.4429000000000  0.4787020000000  0.5397860000000 1.0
C      1  0.5558390000000  0.4813380000000  0.5055040000000 1.0
C      1  0.4816700000000  0.4928950000000  0.4994200000000 1.0
C      1  0.6268070000000  0.5217250000000  0.4299480000000 1.0
C      1  0.5168360000000  0.5696190000000  0.4881770000000 1.0
C      1  0.4159140000000  0.4967900000000  0.4585590000000 1.0
C      1  0.4690680000000  0.4673990000000  0.4996330000000 1.0
C      1  0.5198280000000  0.4625230000000  0.5309660000000 1.0
C      1  0.5899540000000  0.5361740000000  0.4672850000000 1.0
C      1  0.4578520000000  0.3816370000000  0.5466390000000 1.0
C      1  0.5426960000000  0.5228080000000  0.4706980000000 1.0
C      1  0.5034210000000  0.5451730000000  0.4892580000000 1.0
C      1  0.5186810000000  0.5212750000000  0.4850280000000 1.0
C      1  0.4642300000000  0.5158690000000  0.5001550000000 1.0
C      1  0.4364300000000  0.5114120000000  0.5034950000000 1.0
C      1  0.4460160000000  0.4577180000000  0.4545890000000 1.0
C      1  0.5671230000000  0.5772070000000  0.4814080000000 1.0
C      1  0.4035350000000  0.5086500000000  0.5401040000000 1.0
C      1  0.3804220000000  0.4944100000000  0.5364850000000 1.0
C      1  0.4764910000000  0.5407780000000  0.4958390000000 1.0
C      1  0.5907860000000  0.5624960000000  0.4783380000000 1.0
C      1  0.6085730000000  0.5285880000000  0.4478990000000 1.0
C      1  0.6382760000000  0.5830530000000  0.4937220000000 1.0
C      1  0.5742190000000  0.4956790000000  0.4921770000000 1.0
C      1  0.4586890000000  0.3567250000000  0.5542780000000 1.0
C      1  0.5409930000000  0.5805220000000  0.4852050000000 1.0
C      1  0.4628950000000  0.4549670000000  0.4752050000000 1.0
C      1  0.4561040000000  0.4591620000000  0.5236400000000 1.0
C      1  0.4199030000000  0.5112370000000  0.4807610000000 1.0
C      1  0.5098990000000  0.4971430000000  0.4980380000000 1.0
C      1  0.6448380000000  0.5150470000000  0.4123430000000 1.0
C      1  0.5699720000000  0.5179830000000  0.4755290000000 1.0
C      1  0.4562290000000  0.4323060000000  0.5312150000000 1.0
C      1  0.4038370000000  0.5314220000000  0.5553170000000 1.0
C      1  0.4265520000000  0.4747740000000  0.4475180000000 1.0
C      1  0.5283480000000  0.4798280000000  0.5115300000000 1.0
C      1  0.4485300000000  0.4770830000000  0.5934830000000 1.0
C      1  0.4275550000000  0.4996700000000  0.5278750000000 1.0
C      1  0.4570020000000  0.4069650000000  0.5388730000000 1.0
C      1  0.6151710000000  0.5733930000000  0.4865120000000 1.0
C      1  0.4459160000000  0.4778560000000  0.5675670000000 1.0
END
