TITL C-612604-1799-745 17.4406648931172 125000 -1200.38250619141 0 0 194 (C1) n - 1
REM
REM in /home/nfs/bkarasulu/CARBON/AIRSS/Generating-Clusters/TERSOFF/Only-C1/FIRE-HFTN
REM
REM
REM
REM
REM
REM ./C.cell (11c1c37f851c82e70ff6c80c92926a4b)
REM AIRSS Version 0.9.1 bugfix July 2018 build 013d7b7c2542+ Fri, 06 Jul 2018 19:26:36 +0100
REM compiler GCC version 9.2.1 20190827 (Red Hat 9.2.1-1)
REM options -cpp -mtune=generic -march=x86-64 -g -O0 -fpre-include=/usr/include/finclude/math-vector-fortran.h
REM seed -229801421 -2121402221 1040934981 -995088449 -360313736 -785559321 -1826738260 -1280060894 1806393076 -740759206 -455384655 2112243448 1862227125 543682530 -1560187077 1988784845 1416903407 468747589 1029649170 859242405 -1167177390 -631629823 2133122249 182539053 1968615315 -1361323523 1818073608 -1520819822 1997447624 -622228050 -635091350 1860421392 -1437053281
REM
CELL 1.54180   50.00000   50.00000   50.00000   90.00000   90.00000   90.00000
LATT -1
SFAC C  
C      1  0.5031420000000  0.5758600000000  0.3935060000000 1.0
C      1  0.4292990000000  0.4833220000000  0.5211780000000 1.0
C      1  0.5145850000000  0.5889970000000  0.5160390000000 1.0
C      1  0.4067760000000  0.5496420000000  0.4556830000000 1.0
C      1  0.5157930000000  0.6004870000000  0.5415030000000 1.0
C      1  0.5079910000000  0.4421720000000  0.4072430000000 1.0
C      1  0.4468830000000  0.4628020000000  0.4051990000000 1.0
C      1  0.4772500000000  0.5619030000000  0.4891780000000 1.0
C      1  0.5082490000000  0.4445610000000  0.5541890000000 1.0
C      1  0.5833490000000  0.4769930000000  0.5918400000000 1.0
C      1  0.4189550000000  0.4615530000000  0.4098260000000 1.0
C      1  0.6094160000000  0.4908560000000  0.4291860000000 1.0
C      1  0.4528920000000  0.5180420000000  0.4908820000000 1.0
C      1  0.5855640000000  0.5336360000000  0.4259170000000 1.0
C      1  0.4654990000000  0.5402190000000  0.5527530000000 1.0
C      1  0.5625450000000  0.4632800000000  0.4793990000000 1.0
C      1  0.4427490000000  0.4533530000000  0.4828500000000 1.0
C      1  0.3640200000000  0.5566190000000  0.5613640000000 1.0
C      1  0.4806520000000  0.5272210000000  0.4187490000000 1.0
C      1  0.5605710000000  0.4300040000000  0.5738590000000 1.0
C      1  0.5349660000000  0.4358360000000  0.4006650000000 1.0
C      1  0.4818800000000  0.4817190000000  0.5346700000000 1.0
C      1  0.4576640000000  0.5446180000000  0.4831730000000 1.0
C      1  0.5012000000000  0.4409910000000  0.6192380000000 1.0
C      1  0.5427820000000  0.5697360000000  0.6186620000000 1.0
C      1  0.4444310000000  0.5529100000000  0.5364270000000 1.0
C      1  0.4247690000000  0.5065560000000  0.3457610000000 1.0
C      1  0.4355350000000  0.5368350000000  0.5935090000000 1.0
C      1  0.4613850000000  0.5401530000000  0.5829300000000 1.0
C      1  0.5251930000000  0.4725040000000  0.5878590000000 1.0
C      1  0.4330890000000  0.3937340000000  0.4444710000000 1.0
C      1  0.4679360000000  0.6340470000000  0.4876390000000 1.0
C      1  0.5921260000000  0.4770260000000  0.5243010000000 1.0
C      1  0.3708060000000  0.5658230000000  0.5855940000000 1.0
C      1  0.5947740000000  0.5026250000000  0.4827190000000 1.0
C      1  0.4582180000000  0.6083790000000  0.4821840000000 1.0
C      1  0.4956840000000  0.5770220000000  0.5013220000000 1.0
C      1  0.5076990000000  0.4079130000000  0.4963500000000 1.0
C      1  0.5660490000000  0.4382990000000  0.4370440000000 1.0
C      1  0.5057480000000  0.4697660000000  0.4077220000000 1.0
C      1  0.4305420000000  0.4573420000000  0.5076560000000 1.0
C      1  0.5588570000000  0.5628430000000  0.5954220000000 1.0
C      1  0.4812070000000  0.5501980000000  0.6021900000000 1.0
C      1  0.5033920000000  0.3859630000000  0.5774100000000 1.0
C      1  0.5300100000000  0.4618940000000  0.5427900000000 1.0
C      1  0.5918630000000  0.4723230000000  0.4742560000000 1.0
C      1  0.5060390000000  0.3901940000000  0.4726300000000 1.0
C      1  0.5703490000000  0.5357880000000  0.5952130000000 1.0
C      1  0.5061520000000  0.4935560000000  0.5801680000000 1.0
C      1  0.5149480000000  0.5393190000000  0.5438120000000 1.0
C      1  0.5869160000000  0.5494900000000  0.5285350000000 1.0
C      1  0.5046300000000  0.5251170000000  0.4338570000000 1.0
C      1  0.5987690000000  0.4981550000000  0.5800250000000 1.0
C      1  0.5949650000000  0.4489710000000  0.5152830000000 1.0
C      1  0.4402120000000  0.5562620000000  0.4093060000000 1.0
C      1  0.4866730000000  0.4920650000000  0.4660290000000 1.0
C      1  0.3904150000000  0.5601480000000  0.6028580000000 1.0
C      1  0.5289900000000  0.4299810000000  0.4639690000000 1.0
C      1  0.5658890000000  0.3667090000000  0.4498260000000 1.0
C      1  0.4809680000000  0.3900000000000  0.5334320000000 1.0
C      1  0.5113620000000  0.5006660000000  0.4502540000000 1.0
C      1  0.6039180000000  0.4466040000000  0.4865290000000 1.0
C      1  0.5097990000000  0.5232560000000  0.6329440000000 1.0
C      1  0.5873800000000  0.5240230000000  0.5747520000000 1.0
C      1  0.4133780000000  0.5467350000000  0.6043560000000 1.0
C      1  0.4335570000000  0.5109640000000  0.5112190000000 1.0
C      1  0.4760370000000  0.3872860000000  0.4700170000000 1.0
C      1  0.5809210000000  0.5407670000000  0.4534510000000 1.0
C      1  0.5404840000000  0.5388260000000  0.5302700000000 1.0
C      1  0.5146720000000  0.5898060000000  0.4537440000000 1.0
C      1  0.5853830000000  0.6015650000000  0.5112800000000 1.0
C      1  0.5559200000000  0.5798580000000  0.4135690000000 1.0
C      1  0.5490890000000  0.4814180000000  0.4970870000000 1.0
C      1  0.4889360000000  0.6074080000000  0.5495980000000 1.0
C      1  0.4455500000000  0.5935100000000  0.5034960000000 1.0
C      1  0.5586450000000  0.3930210000000  0.4522130000000 1.0
C      1  0.3729710000000  0.5350460000000  0.5457040000000 1.0
C      1  0.5685180000000  0.4584910000000  0.5755900000000 1.0
C      1  0.4581380000000  0.4031430000000  0.5755190000000 1.0
C      1  0.5348820000000  0.4056790000000  0.5368970000000 1.0
C      1  0.5836960000000  0.5654670000000  0.4675410000000 1.0
C      1  0.3928830000000  0.4267410000000  0.5157040000000 1.0
C      1  0.3672880000000  0.4220410000000  0.5143560000000 1.0
C      1  0.4082840000000  0.4884770000000  0.4113220000000 1.0
C      1  0.4790960000000  0.6568020000000  0.4936950000000 1.0
C      1  0.5360630000000  0.5096610000000  0.3754460000000 1.0
C      1  0.5233300000000  0.4473050000000  0.6027780000000 1.0
C      1  0.4856570000000  0.5056840000000  0.5198490000000 1.0
C      1  0.4243760000000  0.5343380000000  0.5262680000000 1.0
C      1  0.4777190000000  0.5034500000000  0.4915390000000 1.0
C      1  0.5290140000000  0.5173850000000  0.6130490000000 1.0
C      1  0.5443420000000  0.4707570000000  0.5658960000000 1.0
C      1  0.4356060000000  0.5891150000000  0.4441210000000 1.0
C      1  0.5157850000000  0.4821600000000  0.4287550000000 1.0
C      1  0.5599810000000  0.5610400000000  0.5208580000000 1.0
C      1  0.5532630000000  0.5049850000000  0.3976080000000 1.0
C      1  0.4885900000000  0.5296170000000  0.5362070000000 1.0
C      1  0.4610850000000  0.5069900000000  0.3786660000000 1.0
C      1  0.3929460000000  0.4790600000000  0.4775790000000 1.0
C      1  0.4207910000000  0.5353180000000  0.4104280000000 1.0
C      1  0.5215040000000  0.6092930000000  0.5857120000000 1.0
C      1  0.4393810000000  0.4736890000000  0.4628940000000 1.0
C      1  0.5004630000000  0.5644560000000  0.5856850000000 1.0
C      1  0.5231620000000  0.5495080000000  0.4812170000000 1.0
C      1  0.5623620000000  0.5304850000000  0.4093660000000 1.0
C      1  0.4872390000000  0.4545270000000  0.5712750000000 1.0
C      1  0.4379090000000  0.4147730000000  0.5312660000000 1.0
C      1  0.6077600000000  0.5166370000000  0.4207840000000 1.0
C      1  0.5786970000000  0.4148580000000  0.4492010000000 1.0
C      1  0.5565280000000  0.4508370000000  0.4125220000000 1.0
C      1  0.5379870000000  0.4240410000000  0.5914780000000 1.0
C      1  0.3626720000000  0.5095890000000  0.5514990000000 1.0
C      1  0.4851970000000  0.4566230000000  0.5189290000000 1.0
C      1  0.4705670000000  0.5047190000000  0.4053200000000 1.0
C      1  0.5419220000000  0.5045120000000  0.4696140000000 1.0
C      1  0.4228020000000  0.4372950000000  0.5713270000000 1.0
C      1  0.5591270000000  0.5152770000000  0.5348230000000 1.0
C      1  0.5621220000000  0.5854680000000  0.5048310000000 1.0
C      1  0.4133140000000  0.4849680000000  0.4601470000000 1.0
C      1  0.4484210000000  0.5811820000000  0.5293430000000 1.0
C      1  0.4603340000000  0.4323550000000  0.4738210000000 1.0
C      1  0.4670060000000  0.4742760000000  0.4485100000000 1.0
C      1  0.5667080000000  0.4919180000000  0.5197150000000 1.0
C      1  0.4384720000000  0.4166060000000  0.5599820000000 1.0
C      1  0.5167260000000  0.5185670000000  0.5870370000000 1.0
C      1  0.6086730000000  0.5917980000000  0.5001360000000 1.0
C      1  0.4849580000000  0.4824160000000  0.5640250000000 1.0
C      1  0.5595250000000  0.4187560000000  0.5464240000000 1.0
C      1  0.4939440000000  0.4329740000000  0.5332190000000 1.0
C      1  0.3662350000000  0.4864320000000  0.5642320000000 1.0
C      1  0.5313340000000  0.5250980000000  0.4863110000000 1.0
C      1  0.4169970000000  0.5743360000000  0.4599080000000 1.0
C      1  0.5697200000000  0.4897220000000  0.6141730000000 1.0
C      1  0.4885150000000  0.4290370000000  0.4238970000000 1.0
C      1  0.5238270000000  0.3994820000000  0.5887270000000 1.0
C      1  0.6109490000000  0.5156300000000  0.5027740000000 1.0
C      1  0.4748160000000  0.4420490000000  0.4482080000000 1.0
C      1  0.5183460000000  0.5677730000000  0.6311080000000 1.0
C      1  0.5503630000000  0.4470690000000  0.4597410000000 1.0
C      1  0.4641600000000  0.5970580000000  0.5470610000000 1.0
C      1  0.4828920000000  0.4032090000000  0.4140990000000 1.0
C      1  0.4199060000000  0.4330330000000  0.5185380000000 1.0
C      1  0.5556460000000  0.5803030000000  0.5721760000000 1.0
C      1  0.4634190000000  0.4811340000000  0.4192660000000 1.0
C      1  0.5120060000000  0.4344730000000  0.4856950000000 1.0
C      1  0.5024750000000  0.5916560000000  0.5932290000000 1.0
C      1  0.4169900000000  0.5112350000000  0.3939850000000 1.0
C      1  0.5422730000000  0.5531940000000  0.4110090000000 1.0
C      1  0.4610540000000  0.5979340000000  0.4552100000000 1.0
C      1  0.5817630000000  0.5290400000000  0.5478670000000 1.0
C      1  0.5150880000000  0.5431890000000  0.5721510000000 1.0
C      1  0.5896190000000  0.4784180000000  0.4450190000000 1.0
C      1  0.5285080000000  0.4686060000000  0.5138470000000 1.0
C      1  0.4108880000000  0.4367140000000  0.4213710000000 1.0
C      1  0.3844540000000  0.4687500000000  0.5726010000000 1.0
C      1  0.5361360000000  0.5997000000000  0.5629350000000 1.0
C      1  0.4872210000000  0.5921000000000  0.4409950000000 1.0
C      1  0.4627390000000  0.4066400000000  0.4876650000000 1.0
C      1  0.5986410000000  0.4230050000000  0.4695170000000 1.0
C      1  0.5572510000000  0.5155150000000  0.6122400000000 1.0
C      1  0.5308760000000  0.4009110000000  0.4576890000000 1.0
C      1  0.4584180000000  0.4006260000000  0.5164700000000 1.0
C      1  0.4729830000000  0.3800340000000  0.4230330000000 1.0
C      1  0.3970090000000  0.5375350000000  0.5314110000000 1.0
C      1  0.4590240000000  0.3812470000000  0.4473760000000 1.0
C      1  0.4326610000000  0.5827280000000  0.4166100000000 1.0
C      1  0.5229060000000  0.5463980000000  0.4341840000000 1.0
C      1  0.4628290000000  0.4117440000000  0.6021010000000 1.0
C      1  0.4240070000000  0.4802880000000  0.5489220000000 1.0
C      1  0.4963160000000  0.5482270000000  0.6279790000000 1.0
C      1  0.4337970000000  0.5081680000000  0.3713450000000 1.0
C      1  0.5552100000000  0.6009550000000  0.4304390000000 1.0
C      1  0.4680030000000  0.5523550000000  0.4148910000000 1.0
C      1  0.5554620000000  0.4811630000000  0.4142510000000 1.0
C      1  0.5231820000000  0.5332360000000  0.3706300000000 1.0
C      1  0.4065830000000  0.5006690000000  0.4379440000000 1.0
C      1  0.6054810000000  0.5438830000000  0.5069350000000 1.0
C      1  0.5430910000000  0.5986700000000  0.4561360000000 1.0
C      1  0.5055070000000  0.4062240000000  0.5254300000000 1.0
C      1  0.5606110000000  0.5836770000000  0.4753110000000 1.0
C      1  0.4785850000000  0.4265170000000  0.6180130000000 1.0
C      1  0.5756130000000  0.5186280000000  0.4697880000000 1.0
C      1  0.5619400000000  0.4883350000000  0.4415700000000 1.0
C      1  0.6057620000000  0.5658840000000  0.4876650000000 1.0
C      1  0.6144550000000  0.4953020000000  0.5228850000000 1.0
C      1  0.4848390000000  0.5761530000000  0.4155390000000 1.0
C      1  0.4791940000000  0.3883930000000  0.5624090000000 1.0
C      1  0.5799000000000  0.4285200000000  0.5285970000000 1.0
C      1  0.5228710000000  0.5559850000000  0.3876500000000 1.0
C      1  0.5064100000000  0.4578350000000  0.4995930000000 1.0
C      1  0.4179890000000  0.4136070000000  0.4337390000000 1.0
C      1  0.4111140000000  0.4624230000000  0.5666500000000 1.0
C      1  0.4093920000000  0.5291790000000  0.4367130000000 1.0
C      1  0.5190310000000  0.5617750000000  0.4570430000000 1.0
END
