TITL C-612600-6631-1267 21.9079759673211 125000 -372.287303052556 0 0 62 (C1) n - 1
REM
REM in /home/nfs/bkarasulu/CARBON/AIRSS/Generating-Clusters/TERSOFF/Only-C1/FIRE-HFTN
REM
REM
REM
REM
REM
REM ./C.cell (11c1c37f851c82e70ff6c80c92926a4b)
REM AIRSS Version 0.9.1 bugfix July 2018 build 013d7b7c2542+ Fri, 06 Jul 2018 19:26:36 +0100
REM compiler GCC version 9.2.1 20190827 (Red Hat 9.2.1-1)
REM options -cpp -mtune=generic -march=x86-64 -g -O0 -fpre-include=/usr/include/finclude/math-vector-fortran.h
REM seed -394456710 -1082152273 -715676619 -10543395 -707720073 1348408361 -1190103035 402347409 -704432292 1469120453 -983308238 469462867 -786143125 831707650 -1845318512 972327418 -1736532475 1567765952 -2145810781 -1010647192 -1788571183 -1615125424 -493706661 -1407201789 919419147 1202307821 -902651420 -1489605477 -835933967 -54347001 -2073944886 1388366658 -1015672513
REM
CELL 1.54180   50.00000   50.00000   50.00000   90.00000   90.00000   90.00000
LATT -1
SFAC C  
C      1  0.4782530000000  0.4702820000000  0.5440510000000 1.0
C      1  0.4556600000000  0.4842250000000  0.5456800000000 1.0
C      1  0.5026220000000  0.5330090000000  0.4771130000000 1.0
C      1  0.5311690000000  0.5815010000000  0.4876390000000 1.0
C      1  0.5837300000000  0.4772020000000  0.5541070000000 1.0
C      1  0.4986060000000  0.4453110000000  0.4488580000000 1.0
C      1  0.5023170000000  0.4596950000000  0.5400620000000 1.0
C      1  0.4761200000000  0.4265160000000  0.4869470000000 1.0
C      1  0.4296690000000  0.5244910000000  0.5340610000000 1.0
C      1  0.5407630000000  0.4449270000000  0.5140170000000 1.0
C      1  0.5816080000000  0.4589120000000  0.5749480000000 1.0
C      1  0.4299750000000  0.5462260000000  0.4894050000000 1.0
C      1  0.4872850000000  0.5167390000000  0.4944420000000 1.0
C      1  0.4321490000000  0.4994300000000  0.5475940000000 1.0
C      1  0.4450650000000  0.5063780000000  0.4001500000000 1.0
C      1  0.4883880000000  0.5232370000000  0.5217280000000 1.0
C      1  0.4329760000000  0.5478760000000  0.5479410000000 1.0
C      1  0.4333810000000  0.4706940000000  0.4339790000000 1.0
C      1  0.5456050000000  0.5627510000000  0.5035380000000 1.0
C      1  0.5248440000000  0.4104170000000  0.5735990000000 1.0
C      1  0.5618700000000  0.4194940000000  0.5997800000000 1.0
C      1  0.5609780000000  0.4392690000000  0.5771790000000 1.0
C      1  0.4177480000000  0.4813390000000  0.4785490000000 1.0
C      1  0.4111620000000  0.4901580000000  0.5625930000000 1.0
C      1  0.6017590000000  0.4409160000000  0.6162130000000 1.0
C      1  0.4147700000000  0.5945070000000  0.4365030000000 1.0
C      1  0.5705690000000  0.5164800000000  0.4907850000000 1.0
C      1  0.4822900000000  0.5359690000000  0.4214210000000 1.0
C      1  0.5888900000000  0.4947980000000  0.5349480000000 1.0
C      1  0.5224880000000  0.5512410000000  0.5464020000000 1.0
C      1  0.4751130000000  0.4935610000000  0.4846940000000 1.0
C      1  0.4798140000000  0.4472330000000  0.4694670000000 1.0
C      1  0.5827410000000  0.4217020000000  0.6183840000000 1.0
C      1  0.5415250000000  0.5628620000000  0.5314110000000 1.0
C      1  0.4505250000000  0.5659450000000  0.4452790000000 1.0
C      1  0.4379370000000  0.4720330000000  0.4615360000000 1.0
C      1  0.5640890000000  0.4698820000000  0.4752330000000 1.0
C      1  0.5508970000000  0.5377510000000  0.4912850000000 1.0
C      1  0.5372400000000  0.4333950000000  0.5609720000000 1.0
C      1  0.4232170000000  0.5248630000000  0.5063340000000 1.0
C      1  0.4619560000000  0.5265110000000  0.4045490000000 1.0
C      1  0.4758350000000  0.5540200000000  0.4428910000000 1.0
C      1  0.5545710000000  0.4517930000000  0.4923670000000 1.0
C      1  0.6011320000000  0.4585960000000  0.5956620000000 1.0
C      1  0.4392400000000  0.5856000000000  0.4269920000000 1.0
C      1  0.4123310000000  0.5018240000000  0.4946500000000 1.0
C      1  0.5280380000000  0.5094270000000  0.4302640000000 1.0
C      1  0.4349580000000  0.4842840000000  0.4111140000000 1.0
C      1  0.5858700000000  0.5091240000000  0.5127880000000 1.0
C      1  0.4644530000000  0.4709600000000  0.4719540000000 1.0
C      1  0.5073430000000  0.5229690000000  0.4197880000000 1.0
C      1  0.5013120000000  0.5355750000000  0.5415720000000 1.0
C      1  0.5090400000000  0.5796350000000  0.4720810000000 1.0
C      1  0.5390620000000  0.4025410000000  0.5959230000000 1.0
C      1  0.4305320000000  0.5629920000000  0.4672850000000 1.0
C      1  0.5298760000000  0.5276610000000  0.4740790000000 1.0
C      1  0.5628300000000  0.4972700000000  0.4698140000000 1.0
C      1  0.4090820000000  0.5815670000000  0.4603730000000 1.0
C      1  0.5404050000000  0.5085160000000  0.4552130000000 1.0
C      1  0.5154120000000  0.4427460000000  0.4291080000000 1.0
C      1  0.4940160000000  0.5569070000000  0.4643930000000 1.0
C      1  0.5268950000000  0.4462650000000  0.5383120000000 1.0
END
