TITL C-612604-1799-706 0.0035600165995775 125000 -555.711185194483 0 0 91 (C1) n - 1
REM
REM in /home/nfs/bkarasulu/CARBON/AIRSS/Generating-Clusters/TERSOFF/Only-C1/FIRE-HFTN
REM
REM
REM
REM
REM
REM ./C.cell (11c1c37f851c82e70ff6c80c92926a4b)
REM AIRSS Version 0.9.1 bugfix July 2018 build 013d7b7c2542+ Fri, 06 Jul 2018 19:26:36 +0100
REM compiler GCC version 9.2.1 20190827 (Red Hat 9.2.1-1)
REM options -cpp -mtune=generic -march=x86-64 -g -O0 -fpre-include=/usr/include/finclude/math-vector-fortran.h
REM seed 1273902743 665568126 839930440 -146639590 750185454 -1866753906 370933993 1637722973 1956758257 -2037791512 823858340 -1952611711 2052886149 1611985806 -607137030 1962134073 326178427 -1704264752 -973034716 -539316645 1152707726 -145925395 -1250868878 -1664155832 -531022295 1491949180 402057992 1791636474 -2113893803 -67731122 846720922 883171612 -55735563
REM
CELL 1.54180   50.00000   50.00000   50.00000   90.00000   90.00000   90.00000
LATT -1
SFAC C  
C      1  0.5181130000000  0.4383400000000  0.4215290000000 1.0
C      1  0.5109350000000  0.4014880000000  0.5089050000000 1.0
C      1  0.5305980000000  0.4172850000000  0.4943030000000 1.0
C      1  0.4265370000000  0.5596810000000  0.4849760000000 1.0
C      1  0.4695810000000  0.4621650000000  0.5701270000000 1.0
C      1  0.5792630000000  0.4589320000000  0.5101320000000 1.0
C      1  0.4628660000000  0.4894960000000  0.5657510000000 1.0
C      1  0.4929320000000  0.4512220000000  0.4670220000000 1.0
C      1  0.5123570000000  0.4820650000000  0.5229950000000 1.0
C      1  0.4124870000000  0.5164640000000  0.4836400000000 1.0
C      1  0.4764060000000  0.5608840000000  0.5426550000000 1.0
C      1  0.5170810000000  0.5325580000000  0.5092750000000 1.0
C      1  0.5597710000000  0.5809070000000  0.5409710000000 1.0
C      1  0.4399750000000  0.5032480000000  0.5518290000000 1.0
C      1  0.5214550000000  0.5545740000000  0.5258790000000 1.0
C      1  0.5582040000000  0.6199260000000  0.4848500000000 1.0
C      1  0.4897690000000  0.4212640000000  0.5502830000000 1.0
C      1  0.5284510000000  0.4786760000000  0.5665850000000 1.0
C      1  0.4177620000000  0.5008720000000  0.5325690000000 1.0
C      1  0.5694390000000  0.6192030000000  0.5090620000000 1.0
C      1  0.5081170000000  0.4555790000000  0.5124580000000 1.0
C      1  0.5815180000000  0.5066030000000  0.4965790000000 1.0
C      1  0.4071730000000  0.4662680000000  0.4932110000000 1.0
C      1  0.4610140000000  0.5901990000000  0.5101210000000 1.0
C      1  0.5131460000000  0.4720970000000  0.4632760000000 1.0
C      1  0.4505190000000  0.5683470000000  0.5270250000000 1.0
C      1  0.4287540000000  0.5527890000000  0.5137430000000 1.0
C      1  0.4889560000000  0.4455650000000  0.4941070000000 1.0
C      1  0.4990650000000  0.5715870000000  0.5273540000000 1.0
C      1  0.5608810000000  0.4833090000000  0.4514790000000 1.0
C      1  0.5761290000000  0.4733750000000  0.5761180000000 1.0
C      1  0.4771420000000  0.4455250000000  0.4436630000000 1.0
C      1  0.4404220000000  0.4730290000000  0.4446680000000 1.0
C      1  0.4703370000000  0.4277430000000  0.5063780000000 1.0
C      1  0.5427470000000  0.4251080000000  0.6151940000000 1.0
C      1  0.5523780000000  0.4649460000000  0.5061450000000 1.0
C      1  0.4305120000000  0.4312280000000  0.4616650000000 1.0
C      1  0.4919780000000  0.4819730000000  0.4100590000000 1.0
C      1  0.5339810000000  0.4428100000000  0.5069430000000 1.0
C      1  0.4880110000000  0.5072860000000  0.5614820000000 1.0
C      1  0.4570230000000  0.4938470000000  0.4527710000000 1.0
C      1  0.4458820000000  0.4412330000000  0.5058970000000 1.0
C      1  0.4892300000000  0.5868330000000  0.5041900000000 1.0
C      1  0.4918870000000  0.4443880000000  0.5670470000000 1.0
C      1  0.5538370000000  0.5400430000000  0.5861030000000 1.0
C      1  0.4614510000000  0.5163720000000  0.5122190000000 1.0
C      1  0.4479990000000  0.4697960000000  0.5124330000000 1.0
C      1  0.5559340000000  0.4872320000000  0.5637020000000 1.0
C      1  0.4618460000000  0.5618820000000  0.4443140000000 1.0
C      1  0.5615590000000  0.4943530000000  0.4254480000000 1.0
C      1  0.4787960000000  0.5779190000000  0.4572470000000 1.0
C      1  0.4714180000000  0.5036430000000  0.4098230000000 1.0
C      1  0.4636150000000  0.5136890000000  0.3853600000000 1.0
C      1  0.4486380000000  0.4462280000000  0.4458290000000 1.0
C      1  0.5310720000000  0.4393330000000  0.5967400000000 1.0
C      1  0.4873910000000  0.4113780000000  0.5234260000000 1.0
C      1  0.4927040000000  0.4536790000000  0.4202690000000 1.0
C      1  0.4978600000000  0.5840720000000  0.4771280000000 1.0
C      1  0.4153000000000  0.5245050000000  0.5137150000000 1.0
C      1  0.6028960000000  0.4488090000000  0.5144770000000 1.0
C      1  0.4229450000000  0.4411170000000  0.4872940000000 1.0
C      1  0.5360310000000  0.4174220000000  0.4658040000000 1.0
C      1  0.5527320000000  0.5429220000000  0.6119790000000 1.0
C      1  0.5413710000000  0.6054910000000  0.4700610000000 1.0
C      1  0.5031420000000  0.4968700000000  0.4727800000000 1.0
C      1  0.5762900000000  0.4952830000000  0.4724050000000 1.0
C      1  0.5360520000000  0.4900960000000  0.5061770000000 1.0
C      1  0.5693860000000  0.6033660000000  0.5305170000000 1.0
C      1  0.4020890000000  0.4901920000000  0.4779620000000 1.0
C      1  0.5098110000000  0.4922250000000  0.5495650000000 1.0
C      1  0.4628760000000  0.4914300000000  0.5001180000000 1.0
C      1  0.5252870000000  0.5826520000000  0.4692680000000 1.0
C      1  0.5770370000000  0.5105020000000  0.5230970000000 1.0
C      1  0.4587480000000  0.5143320000000  0.4338050000000 1.0
C      1  0.5243040000000  0.5128650000000  0.4878870000000 1.0
C      1  0.5363260000000  0.5574780000000  0.4629870000000 1.0
C      1  0.4198100000000  0.4765350000000  0.5181340000000 1.0
C      1  0.5449690000000  0.5571530000000  0.5415300000000 1.0
C      1  0.4465010000000  0.5381390000000  0.4449720000000 1.0
C      1  0.5378970000000  0.5312500000000  0.4684810000000 1.0
C      1  0.4550330000000  0.5233190000000  0.5380350000000 1.0
C      1  0.4771240000000  0.5335750000000  0.5525780000000 1.0
C      1  0.5174640000000  0.4911420000000  0.4009060000000 1.0
C      1  0.5177220000000  0.4538470000000  0.5770060000000 1.0
C      1  0.5628160000000  0.5108330000000  0.5479880000000 1.0
C      1  0.4744870000000  0.4946660000000  0.4747850000000 1.0
C      1  0.5360210000000  0.4373150000000  0.4446580000000 1.0
C      1  0.5430560000000  0.4966990000000  0.4061630000000 1.0
C      1  0.5538890000000  0.5359910000000  0.5584020000000 1.0
C      1  0.5394410000000  0.4645000000000  0.4549140000000 1.0
C      1  0.4262440000000  0.5369430000000  0.4665930000000 1.0
END
