TITL C-612602-9376-220 6.21356456427718 125000 -471.782031637507 0 0 78 (C1) n - 1
REM
REM in /home/nfs/bkarasulu/CARBON/AIRSS/Generating-Clusters/TERSOFF/Only-C1/FIRE-HFTN
REM
REM
REM
REM
REM
REM ./C.cell (11c1c37f851c82e70ff6c80c92926a4b)
REM AIRSS Version 0.9.1 bugfix July 2018 build 013d7b7c2542+ Fri, 06 Jul 2018 19:26:36 +0100
REM compiler GCC version 9.2.1 20190827 (Red Hat 9.2.1-1)
REM options -cpp -mtune=generic -march=x86-64 -g -O0 -fpre-include=/usr/include/finclude/math-vector-fortran.h
REM seed 2015237650 -1914579300 1642927856 28948495 1982223332 1891015398 -328387340 -2086071507 -1768393026 -495268221 1543135240 32314853 -766638730 1525562790 -67461474 1801197127 -1998382187 -649109326 805812881 1837414186 -1268202762 -1076979242 538824233 1664276256 -176725942 1137752376 1060362622 1249620545 -1263426087 -1913560802 -704545281 947589562 -1155829902
REM
CELL 1.54180   50.00000   50.00000   50.00000   90.00000   90.00000   90.00000
LATT -1
SFAC C  
C      1  0.4735810000000  0.4251620000000  0.5507890000000 1.0
C      1  0.4621030000000  0.3812660000000  0.4694350000000 1.0
C      1  0.5080020000000  0.6005740000000  0.5405000000000 1.0
C      1  0.4722030000000  0.3900130000000  0.4465090000000 1.0
C      1  0.4655090000000  0.5513850000000  0.5187220000000 1.0
C      1  0.5108450000000  0.5348470000000  0.4468080000000 1.0
C      1  0.4200820000000  0.5313850000000  0.4232330000000 1.0
C      1  0.4416480000000  0.4960500000000  0.5732060000000 1.0
C      1  0.5118850000000  0.4878980000000  0.4812100000000 1.0
C      1  0.5327460000000  0.5669290000000  0.5103730000000 1.0
C      1  0.4067150000000  0.6022070000000  0.5887820000000 1.0
C      1  0.4906870000000  0.5385570000000  0.5139750000000 1.0
C      1  0.5982300000000  0.5352020000000  0.5009710000000 1.0
C      1  0.5131620000000  0.4431690000000  0.4205890000000 1.0
C      1  0.5302620000000  0.4801830000000  0.5012650000000 1.0
C      1  0.4673200000000  0.4999060000000  0.4603610000000 1.0
C      1  0.4542990000000  0.3883080000000  0.5204160000000 1.0
C      1  0.5463120000000  0.4111490000000  0.5126870000000 1.0
C      1  0.5580550000000  0.5627290000000  0.4964190000000 1.0
C      1  0.4829030000000  0.4915970000000  0.5300560000000 1.0
C      1  0.4724740000000  0.4833620000000  0.5052590000000 1.0
C      1  0.4913420000000  0.4466130000000  0.5466860000000 1.0
C      1  0.4610600000000  0.5244910000000  0.4480650000000 1.0
C      1  0.4604980000000  0.4043350000000  0.5406860000000 1.0
C      1  0.5318730000000  0.4891430000000  0.4257500000000 1.0
C      1  0.5816860000000  0.4669210000000  0.4854840000000 1.0
C      1  0.4829500000000  0.4051100000000  0.4275430000000 1.0
C      1  0.4245690000000  0.5504070000000  0.4673350000000 1.0
C      1  0.5538040000000  0.4766700000000  0.4387200000000 1.0
C      1  0.4836180000000  0.4884050000000  0.4800240000000 1.0
C      1  0.4837660000000  0.5394860000000  0.4410250000000 1.0
C      1  0.5338010000000  0.4342460000000  0.4378530000000 1.0
C      1  0.4186890000000  0.5586850000000  0.5610590000000 1.0
C      1  0.5993020000000  0.5078610000000  0.5082340000000 1.0
C      1  0.5152620000000  0.4404010000000  0.5326820000000 1.0
C      1  0.6100860000000  0.5008300000000  0.5335720000000 1.0
C      1  0.4553380000000  0.3803790000000  0.4950890000000 1.0
C      1  0.5747760000000  0.5444660000000  0.5571730000000 1.0
C      1  0.4270970000000  0.5372730000000  0.5456690000000 1.0
C      1  0.5498940000000  0.5526290000000  0.4708870000000 1.0
C      1  0.4630940000000  0.4149350000000  0.3733700000000 1.0
C      1  0.4917010000000  0.4264070000000  0.4117130000000 1.0
C      1  0.5781200000000  0.4907550000000  0.5000610000000 1.0
C      1  0.5246650000000  0.5155470000000  0.4316270000000 1.0
C      1  0.5114250000000  0.5503630000000  0.4977550000000 1.0
C      1  0.5143260000000  0.4711160000000  0.4122630000000 1.0
C      1  0.4814680000000  0.4730380000000  0.5515500000000 1.0
C      1  0.5531830000000  0.4506070000000  0.4503020000000 1.0
C      1  0.5636060000000  0.4469650000000  0.4764400000000 1.0
C      1  0.4261970000000  0.5088270000000  0.5535680000000 1.0
C      1  0.5488700000000  0.5082760000000  0.5375190000000 1.0
C      1  0.4325500000000  0.5102340000000  0.5075950000000 1.0
C      1  0.5939820000000  0.5003020000000  0.5569380000000 1.0
C      1  0.5279940000000  0.5871790000000  0.5288830000000 1.0
C      1  0.5220090000000  0.5449700000000  0.4705370000000 1.0
C      1  0.5286250000000  0.4533670000000  0.5100420000000 1.0
C      1  0.4815000000000  0.5967000000000  0.5400800000000 1.0
C      1  0.4232710000000  0.4949520000000  0.5284230000000 1.0
C      1  0.5477430000000  0.4349080000000  0.4966270000000 1.0
C      1  0.4637100000000  0.4805020000000  0.5722320000000 1.0
C      1  0.5999480000000  0.4858800000000  0.5792160000000 1.0
C      1  0.3959130000000  0.6459920000000  0.6158080000000 1.0
C      1  0.4807860000000  0.4599180000000  0.3791070000000 1.0
C      1  0.4012680000000  0.6242810000000  0.6024080000000 1.0
C      1  0.4349230000000  0.5354280000000  0.4458420000000 1.0
C      1  0.5819860000000  0.5567330000000  0.5098980000000 1.0
C      1  0.5705640000000  0.5165720000000  0.5543200000000 1.0
C      1  0.4122670000000  0.5801960000000  0.5751120000000 1.0
C      1  0.5225010000000  0.5158620000000  0.5435040000000 1.0
C      1  0.5523220000000  0.4949010000000  0.5121920000000 1.0
C      1  0.5284140000000  0.4143230000000  0.5336110000000 1.0
C      1  0.5824320000000  0.5617090000000  0.5378250000000 1.0
C      1  0.4974450000000  0.5161250000000  0.5308010000000 1.0
C      1  0.4777830000000  0.4330740000000  0.3874730000000 1.0
C      1  0.4975090000000  0.4777030000000  0.3906630000000 1.0
C      1  0.4377590000000  0.5396180000000  0.5158560000000 1.0
C      1  0.4661590000000  0.5774260000000  0.5298030000000 1.0
C      1  0.4235500000000  0.5540840000000  0.4939340000000 1.0
END
