TITL C-612602-9376-771 3.88958675751142 125000 -1106.31749043845 0 0 180 (C1) n - 1
REM
REM in /home/nfs/bkarasulu/CARBON/AIRSS/Generating-Clusters/TERSOFF/Only-C1/FIRE-HFTN
REM
REM
REM
REM
REM
REM ./C.cell (11c1c37f851c82e70ff6c80c92926a4b)
REM AIRSS Version 0.9.1 bugfix July 2018 build 013d7b7c2542+ Fri, 06 Jul 2018 19:26:36 +0100
REM compiler GCC version 9.2.1 20190827 (Red Hat 9.2.1-1)
REM options -cpp -mtune=generic -march=x86-64 -g -O0 -fpre-include=/usr/include/finclude/math-vector-fortran.h
REM seed -1228928162 1539333634 -708130652 2057800139 482469426 -361371775 -1303425542 -1075552682 -435831655 -1268428840 -1503356140 -567502137 1666353073 -1038391938 -1555153004 -662611465 -1950640342 -1998805215 1179726695 -1855219170 -1361829745 1861714053 1431812719 -1869080820 978940981 942391570 1664522614 915436433 -689674266 -353786515 -188098348 -470816688 -929004858
REM
CELL 1.54180   50.00000   50.00000   50.00000   90.00000   90.00000   90.00000
LATT -1
SFAC C  
C      1  0.5354180000000  0.4758880000000  0.5612010000000 1.0
C      1  0.5622370000000  0.4517420000000  0.5249690000000 1.0
C      1  0.4216590000000  0.4989560000000  0.4815670000000 1.0
C      1  0.4101630000000  0.4937770000000  0.4565560000000 1.0
C      1  0.3748140000000  0.5679850000000  0.4995600000000 1.0
C      1  0.5376600000000  0.4201270000000  0.4300820000000 1.0
C      1  0.5430170000000  0.4562370000000  0.4613380000000 1.0
C      1  0.5415000000000  0.5717230000000  0.5900390000000 1.0
C      1  0.4689930000000  0.5618770000000  0.5120930000000 1.0
C      1  0.4138550000000  0.5201390000000  0.5659860000000 1.0
C      1  0.5435810000000  0.5520460000000  0.4220630000000 1.0
C      1  0.4931530000000  0.4726220000000  0.5791470000000 1.0
C      1  0.4503770000000  0.5768710000000  0.5666550000000 1.0
C      1  0.5839720000000  0.5786440000000  0.4379420000000 1.0
C      1  0.4884080000000  0.5616140000000  0.4643560000000 1.0
C      1  0.5276440000000  0.6256510000000  0.4419560000000 1.0
C      1  0.4176280000000  0.5471140000000  0.6257100000000 1.0
C      1  0.4412450000000  0.4641360000000  0.5211340000000 1.0
C      1  0.5443680000000  0.4299510000000  0.5202240000000 1.0
C      1  0.4333740000000  0.5490180000000  0.4893250000000 1.0
C      1  0.4675650000000  0.5345690000000  0.4263110000000 1.0
C      1  0.5310040000000  0.4672040000000  0.4111110000000 1.0
C      1  0.4255880000000  0.5224010000000  0.4930870000000 1.0
C      1  0.5315220000000  0.6072210000000  0.5359800000000 1.0
C      1  0.5080270000000  0.3986200000000  0.5649600000000 1.0
C      1  0.5638290000000  0.5711990000000  0.4218930000000 1.0
C      1  0.5393120000000  0.3834910000000  0.5207810000000 1.0
C      1  0.4683610000000  0.5986970000000  0.5761110000000 1.0
C      1  0.4343340000000  0.4631380000000  0.6195180000000 1.0
C      1  0.4587420000000  0.3824000000000  0.4829380000000 1.0
C      1  0.5642860000000  0.5571460000000  0.5873490000000 1.0
C      1  0.4703330000000  0.6141760000000  0.3625560000000 1.0
C      1  0.6114450000000  0.5546370000000  0.5980280000000 1.0
C      1  0.3995030000000  0.5158820000000  0.5904270000000 1.0
C      1  0.5946190000000  0.5187410000000  0.5699750000000 1.0
C      1  0.4436970000000  0.3613260000000  0.5502710000000 1.0
C      1  0.5520430000000  0.4989320000000  0.5678710000000 1.0
C      1  0.4099600000000  0.4257010000000  0.4466460000000 1.0
C      1  0.5942880000000  0.4581280000000  0.4642680000000 1.0
C      1  0.5585280000000  0.4045710000000  0.5214070000000 1.0
C      1  0.5680680000000  0.5780990000000  0.5174200000000 1.0
C      1  0.4807070000000  0.5449650000000  0.5556410000000 1.0
C      1  0.4337050000000  0.4729230000000  0.5655060000000 1.0
C      1  0.4698120000000  0.5836790000000  0.4275960000000 1.0
C      1  0.4546460000000  0.4271410000000  0.5470090000000 1.0
C      1  0.5237400000000  0.3851860000000  0.5449260000000 1.0
C      1  0.4847680000000  0.4950970000000  0.6598480000000 1.0
C      1  0.6147330000000  0.4106680000000  0.4028550000000 1.0
C      1  0.3947130000000  0.5806960000000  0.4823040000000 1.0
C      1  0.5020380000000  0.4737230000000  0.4516550000000 1.0
C      1  0.4394500000000  0.5568540000000  0.4608210000000 1.0
C      1  0.5393430000000  0.5129500000000  0.4551750000000 1.0
C      1  0.4235320000000  0.4725700000000  0.4421670000000 1.0
C      1  0.6064790000000  0.5016940000000  0.5229270000000 1.0
C      1  0.6087380000000  0.4789080000000  0.4779520000000 1.0
C      1  0.4854090000000  0.3826260000000  0.5727550000000 1.0
C      1  0.6324880000000  0.5654710000000  0.6099150000000 1.0
C      1  0.4798820000000  0.4890340000000  0.4987950000000 1.0
C      1  0.4877090000000  0.4302590000000  0.5970450000000 1.0
C      1  0.5854420000000  0.4007710000000  0.5216260000000 1.0
C      1  0.4994970000000  0.4679240000000  0.4968410000000 1.0
C      1  0.3964590000000  0.4080630000000  0.5214840000000 1.0
C      1  0.5992510000000  0.5186280000000  0.4532690000000 1.0
C      1  0.6104560000000  0.4257110000000  0.4242540000000 1.0
C      1  0.5042070000000  0.5606490000000  0.3967800000000 1.0
C      1  0.6078110000000  0.5172810000000  0.5448620000000 1.0
C      1  0.4325030000000  0.5656110000000  0.5435360000000 1.0
C      1  0.4141680000000  0.5454760000000  0.5531920000000 1.0
C      1  0.4612440000000  0.4079320000000  0.5288860000000 1.0
C      1  0.4981750000000  0.6008120000000  0.5747130000000 1.0
C      1  0.5044750000000  0.4628910000000  0.3981410000000 1.0
C      1  0.5181310000000  0.4642970000000  0.4741400000000 1.0
C      1  0.5733630000000  0.4961440000000  0.4087900000000 1.0
C      1  0.5091730000000  0.4258850000000  0.5770600000000 1.0
C      1  0.5182460000000  0.4549570000000  0.5730290000000 1.0
C      1  0.4286340000000  0.5270920000000  0.4026930000000 1.0
C      1  0.6042510000000  0.4413880000000  0.4446770000000 1.0
C      1  0.4632380000000  0.6076800000000  0.4413270000000 1.0
C      1  0.4867540000000  0.5574020000000  0.4918000000000 1.0
C      1  0.5472630000000  0.5247240000000  0.5551190000000 1.0
C      1  0.4166590000000  0.5580660000000  0.4432940000000 1.0
C      1  0.5690760000000  0.5355070000000  0.4883930000000 1.0
C      1  0.4675430000000  0.3993910000000  0.4321540000000 1.0
C      1  0.5343280000000  0.5404830000000  0.4458100000000 1.0
C      1  0.3877740000000  0.5119640000000  0.4526940000000 1.0
C      1  0.6185530000000  0.3960430000000  0.3816160000000 1.0
C      1  0.5894600000000  0.5432410000000  0.5847670000000 1.0
C      1  0.4659700000000  0.4924770000000  0.3978930000000 1.0
C      1  0.4540840000000  0.5066150000000  0.5388090000000 1.0
C      1  0.4941820000000  0.4942700000000  0.5589280000000 1.0
C      1  0.5425030000000  0.5387760000000  0.5305090000000 1.0
C      1  0.4443460000000  0.5486680000000  0.6244450000000 1.0
C      1  0.4410560000000  0.5614580000000  0.5146780000000 1.0
C      1  0.4783520000000  0.4574290000000  0.5988620000000 1.0
C      1  0.4871600000000  0.5124280000000  0.4850590000000 1.0
C      1  0.4753660000000  0.4190290000000  0.4145510000000 1.0
C      1  0.5135200000000  0.4990170000000  0.4478580000000 1.0
C      1  0.4621190000000  0.4668810000000  0.6197650000000 1.0
C      1  0.4652600000000  0.5592340000000  0.4453270000000 1.0
C      1  0.3657760000000  0.5436770000000  0.4892640000000 1.0
C      1  0.3783450000000  0.5369910000000  0.4638980000000 1.0
C      1  0.4167940000000  0.5980370000000  0.4901510000000 1.0
C      1  0.5285720000000  0.3823370000000  0.4936940000000 1.0
C      1  0.5615390000000  0.5507660000000  0.5124130000000 1.0
C      1  0.5274730000000  0.5440690000000  0.4001630000000 1.0
C      1  0.5072100000000  0.5440130000000  0.4530800000000 1.0
C      1  0.4070770000000  0.3835220000000  0.5249160000000 1.0
C      1  0.5964750000000  0.4835730000000  0.5039110000000 1.0
C      1  0.4823950000000  0.5677910000000  0.5359790000000 1.0
C      1  0.5934150000000  0.5849420000000  0.5252360000000 1.0
C      1  0.4693700000000  0.4335260000000  0.4896880000000 1.0
C      1  0.6191130000000  0.5009560000000  0.4636210000000 1.0
C      1  0.4845310000000  0.5972490000000  0.5319860000000 1.0
C      1  0.5676610000000  0.4575230000000  0.4751730000000 1.0
C      1  0.4437900000000  0.4532080000000  0.5478590000000 1.0
C      1  0.4624770000000  0.3864740000000  0.4559680000000 1.0
C      1  0.4777480000000  0.4585650000000  0.4505710000000 1.0
C      1  0.4639120000000  0.6086940000000  0.5139300000000 1.0
C      1  0.4638700000000  0.3676310000000  0.5670290000000 1.0
C      1  0.3989400000000  0.5364180000000  0.6097180000000 1.0
C      1  0.4529920000000  0.3866740000000  0.5108770000000 1.0
C      1  0.5185600000000  0.5863120000000  0.5888060000000 1.0
C      1  0.5946720000000  0.5666010000000  0.4594520000000 1.0
C      1  0.5788540000000  0.4530720000000  0.5480110000000 1.0
C      1  0.6457970000000  0.5050220000000  0.4598980000000 1.0
C      1  0.4410130000000  0.4322060000000  0.4871000000000 1.0
C      1  0.5901340000000  0.5407590000000  0.4695460000000 1.0
C      1  0.5528270000000  0.5124480000000  0.4805580000000 1.0
C      1  0.4595890000000  0.4667160000000  0.4099810000000 1.0
C      1  0.4549630000000  0.5173490000000  0.4072610000000 1.0
C      1  0.5400680000000  0.4486290000000  0.4327700000000 1.0
C      1  0.5678340000000  0.4711410000000  0.5031060000000 1.0
C      1  0.4163800000000  0.5461240000000  0.4176670000000 1.0
C      1  0.5059400000000  0.6076260000000  0.5474800000000 1.0
C      1  0.5114510000000  0.4057660000000  0.4921400000000 1.0
C      1  0.5897550000000  0.4835950000000  0.3906400000000 1.0
C      1  0.6743090000000  0.5870480000000  0.6333600000000 1.0
C      1  0.4649360000000  0.5535470000000  0.5780270000000 1.0
C      1  0.5369690000000  0.3806420000000  0.4655820000000 1.0
C      1  0.4551580000000  0.6153870000000  0.4658370000000 1.0
C      1  0.4770860000000  0.5977570000000  0.3816330000000 1.0
C      1  0.5042820000000  0.4141140000000  0.4647310000000 1.0
C      1  0.4995830000000  0.5333440000000  0.5001220000000 1.0
C      1  0.4097180000000  0.4709210000000  0.6128740000000 1.0
C      1  0.4948440000000  0.5177220000000  0.4581180000000 1.0
C      1  0.5258450000000  0.4022660000000  0.4485820000000 1.0
C      1  0.5353100000000  0.6175470000000  0.4655160000000 1.0
C      1  0.4806460000000  0.4457360000000  0.4049800000000 1.0
C      1  0.4738470000000  0.4807390000000  0.6410410000000 1.0
C      1  0.5434220000000  0.6090480000000  0.4892610000000 1.0
C      1  0.5477830000000  0.4930140000000  0.5009470000000 1.0
C      1  0.4918090000000  0.4429030000000  0.5077970000000 1.0
C      1  0.5791710000000  0.4949320000000  0.5746780000000 1.0
C      1  0.4920010000000  0.4873370000000  0.3862700000000 1.0
C      1  0.5880430000000  0.4688770000000  0.5679370000000 1.0
C      1  0.5854230000000  0.5108300000000  0.4297580000000 1.0
C      1  0.4781190000000  0.5163210000000  0.5509110000000 1.0
C      1  0.5479740000000  0.5983520000000  0.5147560000000 1.0
C      1  0.4256710000000  0.4469590000000  0.5054020000000 1.0
C      1  0.4839910000000  0.5803040000000  0.4025060000000 1.0
C      1  0.3934200000000  0.5622300000000  0.4582720000000 1.0
C      1  0.4025640000000  0.4335100000000  0.5149230000000 1.0
C      1  0.5090170000000  0.5067380000000  0.3759120000000 1.0
C      1  0.4572550000000  0.4876080000000  0.5168650000000 1.0
C      1  0.3956130000000  0.4897680000000  0.6001820000000 1.0
C      1  0.4626810000000  0.5475250000000  0.6050040000000 1.0
C      1  0.6535720000000  0.5763490000000  0.6217350000000 1.0
C      1  0.5448960000000  0.4936710000000  0.4050430000000 1.0
C      1  0.4073730000000  0.4501300000000  0.4356310000000 1.0
C      1  0.4822940000000  0.4328780000000  0.4637370000000 1.0
C      1  0.4329770000000  0.3721870000000  0.5263430000000 1.0
C      1  0.4262420000000  0.4192430000000  0.4669500000000 1.0
C      1  0.5299440000000  0.5161400000000  0.3924030000000 1.0
C      1  0.4326830000000  0.5004830000000  0.5574360000000 1.0
C      1  0.5266070000000  0.4991560000000  0.5185270000000 1.0
C      1  0.4522700000000  0.4675560000000  0.4377750000000 1.0
C      1  0.5203590000000  0.5272100000000  0.5169380000000 1.0
C      1  0.5156160000000  0.4267080000000  0.5115630000000 1.0
C      1  0.5168720000000  0.4875600000000  0.5417720000000 1.0
C      1  0.4444270000000  0.6085640000000  0.4914800000000 1.0
END
