TITL C-612602-9376-598 0.163724845665154 125000 -733.361287459561 0 0 120 (C1) n - 1
REM
REM in /home/nfs/bkarasulu/CARBON/AIRSS/Generating-Clusters/TERSOFF/Only-C1/FIRE-HFTN
REM
REM
REM
REM
REM
REM ./C.cell (11c1c37f851c82e70ff6c80c92926a4b)
REM AIRSS Version 0.9.1 bugfix July 2018 build 013d7b7c2542+ Fri, 06 Jul 2018 19:26:36 +0100
REM compiler GCC version 9.2.1 20190827 (Red Hat 9.2.1-1)
REM options -cpp -mtune=generic -march=x86-64 -g -O0 -fpre-include=/usr/include/finclude/math-vector-fortran.h
REM seed 1057306007 2083021518 1110186875 -1938638448 526131171 -1031048161 -320002738 1812185475 -187392656 1070846645 -1509435652 354353793 1223031326 -1073119940 -1459965147 494481607 1311962797 503614044 2115965454 -1764636995 -1499095656 -1740762666 -314711370 1943158091 395860639 1612661803 -1257392620 195766189 -249578092 2061469916 1822647786 1099595266 1120043476
REM
CELL 1.54180   50.00000   50.00000   50.00000   90.00000   90.00000   90.00000
LATT -1
SFAC C  
C      1  0.4262910000000  0.5655760000000  0.4397450000000 1.0
C      1  0.4123570000000  0.5473000000000  0.5089190000000 1.0
C      1  0.4800600000000  0.3811780000000  0.5140460000000 1.0
C      1  0.4054250000000  0.4941780000000  0.4697380000000 1.0
C      1  0.5147030000000  0.5117670000000  0.4237650000000 1.0
C      1  0.4527250000000  0.4586850000000  0.5100180000000 1.0
C      1  0.4851100000000  0.3917880000000  0.5405870000000 1.0
C      1  0.4361380000000  0.5636290000000  0.5134870000000 1.0
C      1  0.4290040000000  0.4552100000000  0.5246430000000 1.0
C      1  0.5473410000000  0.4436170000000  0.4398260000000 1.0
C      1  0.4827180000000  0.5783650000000  0.5622700000000 1.0
C      1  0.4850340000000  0.4881960000000  0.5314270000000 1.0
C      1  0.4201990000000  0.3920180000000  0.4775600000000 1.0
C      1  0.5184500000000  0.4455480000000  0.4353070000000 1.0
C      1  0.5416810000000  0.4219090000000  0.5051270000000 1.0
C      1  0.5247130000000  0.4416690000000  0.4897240000000 1.0
C      1  0.4852110000000  0.5289520000000  0.5637580000000 1.0
C      1  0.5246340000000  0.5592740000000  0.5679430000000 1.0
C      1  0.4242280000000  0.5656600000000  0.4675060000000 1.0
C      1  0.4768160000000  0.4722360000000  0.5075970000000 1.0
C      1  0.4546720000000  0.3721890000000  0.5057610000000 1.0
C      1  0.4518700000000  0.4878420000000  0.4578910000000 1.0
C      1  0.4445070000000  0.5755330000000  0.4865450000000 1.0
C      1  0.5920810000000  0.5154470000000  0.5144470000000 1.0
C      1  0.4933830000000  0.4809750000000  0.5791910000000 1.0
C      1  0.5125350000000  0.4014620000000  0.5424000000000 1.0
C      1  0.5199220000000  0.4165240000000  0.5650110000000 1.0
C      1  0.4092920000000  0.3955160000000  0.4541510000000 1.0
C      1  0.4698950000000  0.5533630000000  0.5555920000000 1.0
C      1  0.5724510000000  0.5362280000000  0.5177560000000 1.0
C      1  0.5097060000000  0.5006490000000  0.5221860000000 1.0
C      1  0.4926760000000  0.5875230000000  0.4343500000000 1.0
C      1  0.5818100000000  0.4846730000000  0.4346490000000 1.0
C      1  0.4245740000000  0.4839300000000  0.4509970000000 1.0
C      1  0.4922900000000  0.4539400000000  0.4382380000000 1.0
C      1  0.5504630000000  0.5128570000000  0.4817350000000 1.0
C      1  0.4831020000000  0.5696330000000  0.4541620000000 1.0
C      1  0.5179690000000  0.4955690000000  0.6205450000000 1.0
C      1  0.5673210000000  0.5863930000000  0.5206540000000 1.0
C      1  0.5139130000000  0.5330490000000  0.5708530000000 1.0
C      1  0.5622680000000  0.4593020000000  0.5887400000000 1.0
C      1  0.5046900000000  0.6061170000000  0.5154580000000 1.0
C      1  0.4929130000000  0.5872640000000  0.4982570000000 1.0
C      1  0.4449830000000  0.4676970000000  0.5823090000000 1.0
C      1  0.4169420000000  0.4714360000000  0.4279720000000 1.0
C      1  0.5313900000000  0.5105320000000  0.5751310000000 1.0
C      1  0.4883740000000  0.4746740000000  0.4800500000000 1.0
C      1  0.5483470000000  0.5024210000000  0.5535840000000 1.0
C      1  0.6006990000000  0.5257520000000  0.4641810000000 1.0
C      1  0.5152910000000  0.5028720000000  0.6454010000000 1.0
C      1  0.5247670000000  0.3995290000000  0.5151520000000 1.0
C      1  0.4611960000000  0.4454630000000  0.5761010000000 1.0
C      1  0.4823850000000  0.5416680000000  0.4450460000000 1.0
C      1  0.5021580000000  0.5128770000000  0.4978640000000 1.0
C      1  0.5008190000000  0.5181530000000  0.4485450000000 1.0
C      1  0.5942660000000  0.5060700000000  0.4449780000000 1.0
C      1  0.4100430000000  0.4767340000000  0.5198890000000 1.0
C      1  0.5203040000000  0.4878350000000  0.5921810000000 1.0
C      1  0.5311440000000  0.5695690000000  0.3783560000000 1.0
C      1  0.5500670000000  0.6040550000000  0.5352200000000 1.0
C      1  0.4848960000000  0.5533630000000  0.3778920000000 1.0
C      1  0.5217620000000  0.5993140000000  0.5376550000000 1.0
C      1  0.5643100000000  0.4646790000000  0.4308210000000 1.0
C      1  0.4072740000000  0.5462800000000  0.4804900000000 1.0
C      1  0.5918980000000  0.4656930000000  0.5138460000000 1.0
C      1  0.5754170000000  0.4919460000000  0.5538430000000 1.0
C      1  0.5329210000000  0.4899300000000  0.5333320000000 1.0
C      1  0.4720430000000  0.5816060000000  0.4784160000000 1.0
C      1  0.5755760000000  0.5898980000000  0.4936870000000 1.0
C      1  0.5049580000000  0.3848580000000  0.4997510000000 1.0
C      1  0.4507000000000  0.3454460000000  0.5011290000000 1.0
C      1  0.4501750000000  0.4254130000000  0.5593850000000 1.0
C      1  0.4326900000000  0.3903000000000  0.5025480000000 1.0
C      1  0.4767690000000  0.4989100000000  0.5601670000000 1.0
C      1  0.5369760000000  0.4624260000000  0.5333890000000 1.0
C      1  0.4483950000000  0.4925100000000  0.5689470000000 1.0
C      1  0.5148010000000  0.4397600000000  0.5799920000000 1.0
C      1  0.4002290000000  0.4793820000000  0.4933070000000 1.0
C      1  0.5273480000000  0.5511090000000  0.5031480000000 1.0
C      1  0.5344770000000  0.4912740000000  0.4741950000000 1.0
C      1  0.5803780000000  0.4738020000000  0.5749160000000 1.0
C      1  0.4573370000000  0.5099770000000  0.4768970000000 1.0
C      1  0.3991970000000  0.5218000000000  0.4692630000000 1.0
C      1  0.5863050000000  0.4434630000000  0.4991140000000 1.0
C      1  0.4977610000000  0.5116480000000  0.4008780000000 1.0
C      1  0.4741830000000  0.4683870000000  0.4555960000000 1.0
C      1  0.5601490000000  0.4262180000000  0.4592930000000 1.0
C      1  0.4026660000000  0.5262390000000  0.5243850000000 1.0
C      1  0.4255520000000  0.5033440000000  0.5580790000000 1.0
C      1  0.4656060000000  0.5397980000000  0.4209160000000 1.0
C      1  0.5670380000000  0.4249430000000  0.4876150000000 1.0
C      1  0.4887710000000  0.4520460000000  0.5785160000000 1.0
C      1  0.5560330000000  0.5346800000000  0.4037300000000 1.0
C      1  0.5010560000000  0.5606810000000  0.5059340000000 1.0
C      1  0.5475830000000  0.4383720000000  0.5295700000000 1.0
C      1  0.5061930000000  0.4990000000000  0.4724160000000 1.0
C      1  0.4723500000000  0.5543440000000  0.3536790000000 1.0
C      1  0.5360960000000  0.4644770000000  0.4806630000000 1.0
C      1  0.4771650000000  0.5458680000000  0.5107310000000 1.0
C      1  0.4750130000000  0.5228780000000  0.4954460000000 1.0
C      1  0.4238250000000  0.4072140000000  0.5232860000000 1.0
C      1  0.5108450000000  0.5821340000000  0.5581860000000 1.0
C      1  0.5042590000000  0.5729690000000  0.3858420000000 1.0
C      1  0.5888890000000  0.4904980000000  0.5282530000000 1.0
C      1  0.5857750000000  0.5760590000000  0.4729280000000 1.0
C      1  0.5947180000000  0.5533480000000  0.4616340000000 1.0
C      1  0.5608450000000  0.6261970000000  0.5473490000000 1.0
C      1  0.4985780000000  0.5889520000000  0.4083060000000 1.0
C      1  0.5498330000000  0.5341550000000  0.5002340000000 1.0
C      1  0.5415410000000  0.5182900000000  0.4191620000000 1.0
C      1  0.4101200000000  0.5013440000000  0.5350750000000 1.0
C      1  0.4648870000000  0.4014870000000  0.5570680000000 1.0
C      1  0.6069230000000  0.5170510000000  0.4904720000000 1.0
C      1  0.4300140000000  0.4301190000000  0.5388700000000 1.0
C      1  0.4403810000000  0.5517810000000  0.4217160000000 1.0
C      1  0.5746720000000  0.5609400000000  0.5310660000000 1.0
C      1  0.5519340000000  0.5547800000000  0.3865280000000 1.0
C      1  0.4579320000000  0.5538840000000  0.5295640000000 1.0
C      1  0.4794920000000  0.5328910000000  0.3970220000000 1.0
C      1  0.5341800000000  0.4597710000000  0.5893350000000 1.0
END
