TITL C-612602-9376-938 1.34266350821052 125000 -901.420421084541 0 0 146 (C1) n - 1
REM
REM in /home/nfs/bkarasulu/CARBON/AIRSS/Generating-Clusters/TERSOFF/Only-C1/FIRE-HFTN
REM
REM
REM
REM
REM
REM ./C.cell (11c1c37f851c82e70ff6c80c92926a4b)
REM AIRSS Version 0.9.1 bugfix July 2018 build 013d7b7c2542+ Fri, 06 Jul 2018 19:26:36 +0100
REM compiler GCC version 9.2.1 20190827 (Red Hat 9.2.1-1)
REM options -cpp -mtune=generic -march=x86-64 -g -O0 -fpre-include=/usr/include/finclude/math-vector-fortran.h
REM seed -1670694007 2112330187 2069156358 -538640763 -910143532 -2088316429 -267876827 -236465140 -903710141 45909770 -938994560 1197194355 1728106549 -1468940974 -1003613252 1496650373 -1026282154 -1022610416 1431977679 684542221 1172408253 2059813069 -1984724726 -1875288369 -860827576 -957238175 -1716449640 1990100822 347661234 1016522085 637050440 -872790552 1216431889
REM
CELL 1.54180   50.00000   50.00000   50.00000   90.00000   90.00000   90.00000
LATT -1
SFAC C  
C      1  0.4674050000000  0.5634130000000  0.5313530000000 1.0
C      1  0.4252540000000  0.4120950000000  0.5005670000000 1.0
C      1  0.3847460000000  0.4022530000000  0.4661460000000 1.0
C      1  0.4950850000000  0.4658720000000  0.5243920000000 1.0
C      1  0.6070400000000  0.4391110000000  0.4994720000000 1.0
C      1  0.4821410000000  0.5850760000000  0.4923630000000 1.0
C      1  0.4938040000000  0.5146330000000  0.4797770000000 1.0
C      1  0.5488740000000  0.4558160000000  0.5327460000000 1.0
C      1  0.4208290000000  0.5611200000000  0.4946100000000 1.0
C      1  0.4151540000000  0.5410870000000  0.4506640000000 1.0
C      1  0.5401140000000  0.5202250000000  0.4257380000000 1.0
C      1  0.4357590000000  0.6153070000000  0.4027970000000 1.0
C      1  0.5546790000000  0.5344250000000  0.4084040000000 1.0
C      1  0.5250310000000  0.5641650000000  0.4731860000000 1.0
C      1  0.4477520000000  0.4522280000000  0.5979750000000 1.0
C      1  0.4341370000000  0.3971280000000  0.5238040000000 1.0
C      1  0.5306660000000  0.5546930000000  0.4991090000000 1.0
C      1  0.6376450000000  0.5246570000000  0.5540960000000 1.0
C      1  0.4227400000000  0.5916720000000  0.3923410000000 1.0
C      1  0.5840790000000  0.4934730000000  0.5501060000000 1.0
C      1  0.5333880000000  0.5714100000000  0.5216260000000 1.0
C      1  0.3249000000000  0.3904690000000  0.4151610000000 1.0
C      1  0.4440500000000  0.4368720000000  0.4987920000000 1.0
C      1  0.5850410000000  0.5605820000000  0.5517930000000 1.0
C      1  0.4298460000000  0.6390250000000  0.3882690000000 1.0
C      1  0.4232840000000  0.5637720000000  0.4361580000000 1.0
C      1  0.4384270000000  0.5826740000000  0.4520160000000 1.0
C      1  0.5036320000000  0.5044370000000  0.6112540000000 1.0
C      1  0.4953530000000  0.4355100000000  0.5178780000000 1.0
C      1  0.5104240000000  0.5671600000000  0.5646750000000 1.0
C      1  0.6347430000000  0.4837050000000  0.4750480000000 1.0
C      1  0.4051570000000  0.4900020000000  0.5397380000000 1.0
C      1  0.4252340000000  0.4119830000000  0.5717870000000 1.0
C      1  0.5284460000000  0.4911100000000  0.6159350000000 1.0
C      1  0.5362560000000  0.3983610000000  0.5288200000000 1.0
C      1  0.4176540000000  0.6157870000000  0.3493430000000 1.0
C      1  0.4793830000000  0.4898760000000  0.6078410000000 1.0
C      1  0.4747200000000  0.5338790000000  0.4912600000000 1.0
C      1  0.5400700000000  0.4652920000000  0.5063800000000 1.0
C      1  0.5780360000000  0.5305190000000  0.4872210000000 1.0
C      1  0.4180620000000  0.5702560000000  0.4095690000000 1.0
C      1  0.3049460000000  0.3865410000000  0.3981610000000 1.0
C      1  0.4868940000000  0.5814810000000  0.4420550000000 1.0
C      1  0.5557920000000  0.4526530000000  0.4563800000000 1.0
C      1  0.4685170000000  0.4738470000000  0.4647520000000 1.0
C      1  0.5425620000000  0.4486280000000  0.4836710000000 1.0
C      1  0.5335980000000  0.3869810000000  0.5761080000000 1.0
C      1  0.6576630000000  0.4754090000000  0.4625060000000 1.0
C      1  0.6018740000000  0.4475690000000  0.4732140000000 1.0
C      1  0.4712070000000  0.6657880000000  0.3538860000000 1.0
C      1  0.5314080000000  0.5128600000000  0.5660210000000 1.0
C      1  0.4290190000000  0.4550480000000  0.5177180000000 1.0
C      1  0.5336210000000  0.4221190000000  0.4890450000000 1.0
C      1  0.5695130000000  0.4652410000000  0.5924980000000 1.0
C      1  0.4410420000000  0.5576950000000  0.5403970000000 1.0
C      1  0.3647980000000  0.3983230000000  0.4491520000000 1.0
C      1  0.4645110000000  0.3970910000000  0.5210020000000 1.0
C      1  0.6082530000000  0.5601100000000  0.5357790000000 1.0
C      1  0.4127130000000  0.4919180000000  0.4920730000000 1.0
C      1  0.4302700000000  0.5834160000000  0.4794950000000 1.0
C      1  0.4283110000000  0.4827840000000  0.5561430000000 1.0
C      1  0.4548870000000  0.5170130000000  0.5040880000000 1.0
C      1  0.4755630000000  0.5603210000000  0.5036930000000 1.0
C      1  0.5596900000000  0.4392410000000  0.5840460000000 1.0
C      1  0.5094860000000  0.5720850000000  0.4528810000000 1.0
C      1  0.4185570000000  0.5557330000000  0.5227050000000 1.0
C      1  0.3448490000000  0.3943960000000  0.4321560000000 1.0
C      1  0.4893490000000  0.4932640000000  0.4603990000000 1.0
C      1  0.4880330000000  0.6627860000000  0.3745350000000 1.0
C      1  0.4556030000000  0.4794160000000  0.5964450000000 1.0
C      1  0.4859380000000  0.5162890000000  0.5452550000000 1.0
C      1  0.5040290000000  0.5323520000000  0.6053570000000 1.0
C      1  0.5516380000000  0.5298450000000  0.5700900000000 1.0
C      1  0.4448810000000  0.4657100000000  0.5390190000000 1.0
C      1  0.5811980000000  0.5372540000000  0.4051460000000 1.0
C      1  0.4085900000000  0.4753620000000  0.5143040000000 1.0
C      1  0.5129920000000  0.4586630000000  0.4339130000000 1.0
C      1  0.4791250000000  0.6328140000000  0.4149580000000 1.0
C      1  0.5661520000000  0.4220220000000  0.5609730000000 1.0
C      1  0.6005840000000  0.5284280000000  0.4215470000000 1.0
C      1  0.5121310000000  0.4849970000000  0.4445190000000 1.0
C      1  0.5415660000000  0.4219750000000  0.4182380000000 1.0
C      1  0.5521970000000  0.4794800000000  0.6104530000000 1.0
C      1  0.4381960000000  0.5235060000000  0.5802700000000 1.0
C      1  0.6488830000000  0.5130160000000  0.5745240000000 1.0
C      1  0.4286140000000  0.6398470000000  0.3597070000000 1.0
C      1  0.5527040000000  0.4004760000000  0.4837630000000 1.0
C      1  0.5712880000000  0.4384380000000  0.5378800000000 1.0
C      1  0.5620350000000  0.4823500000000  0.4505790000000 1.0
C      1  0.6255730000000  0.5369880000000  0.5322040000000 1.0
C      1  0.5584700000000  0.5549340000000  0.5593820000000 1.0
C      1  0.5155540000000  0.4804110000000  0.5064460000000 1.0
C      1  0.5364740000000  0.4427420000000  0.4350770000000 1.0
C      1  0.5842420000000  0.4803840000000  0.5735750000000 1.0
C      1  0.5381820000000  0.4978330000000  0.4425070000000 1.0
C      1  0.3980970000000  0.5379900000000  0.5315330000000 1.0
C      1  0.6208280000000  0.5733350000000  0.4910150000000 1.0
C      1  0.5151050000000  0.5074800000000  0.4976200000000 1.0
C      1  0.4530830000000  0.3742220000000  0.5591690000000 1.0
C      1  0.4543320000000  0.4532330000000  0.4752190000000 1.0
C      1  0.4903500000000  0.6500860000000  0.3979590000000 1.0
C      1  0.3649030000000  0.5119380000000  0.5549060000000 1.0
C      1  0.5802420000000  0.4347440000000  0.4597710000000 1.0
C      1  0.5990850000000  0.5176140000000  0.4473230000000 1.0
C      1  0.5309080000000  0.4433310000000  0.5798140000000 1.0
C      1  0.5739070000000  0.5047810000000  0.5280030000000 1.0
C      1  0.5189420000000  0.4185970000000  0.5145210000000 1.0
C      1  0.5154680000000  0.3991740000000  0.5921460000000 1.0
C      1  0.6364460000000  0.5020110000000  0.4965430000000 1.0
C      1  0.5349290000000  0.5265510000000  0.5036070000000 1.0
C      1  0.4680190000000  0.4772180000000  0.5284090000000 1.0
C      1  0.4151880000000  0.5935980000000  0.3650070000000 1.0
C      1  0.4583980000000  0.6144590000000  0.4201050000000 1.0
C      1  0.4868870000000  0.6107830000000  0.4917880000000 1.0
C      1  0.5076560000000  0.4736900000000  0.5507300000000 1.0
C      1  0.4345980000000  0.4309030000000  0.5883660000000 1.0
C      1  0.4394250000000  0.4954920000000  0.5789700000000 1.0
C      1  0.5298140000000  0.4577600000000  0.5553400000000 1.0
C      1  0.4384250000000  0.5461900000000  0.5661210000000 1.0
C      1  0.4193400000000  0.5372940000000  0.4782440000000 1.0
C      1  0.4867510000000  0.5717390000000  0.5500590000000 1.0
C      1  0.6216690000000  0.5458720000000  0.4839460000000 1.0
C      1  0.5513970000000  0.3849340000000  0.5077890000000 1.0
C      1  0.5997690000000  0.5342540000000  0.4702170000000 1.0
C      1  0.6311190000000  0.5282990000000  0.5051130000000 1.0
C      1  0.5352260000000  0.5688000000000  0.5497310000000 1.0
C      1  0.6128260000000  0.5802400000000  0.5161140000000 1.0
C      1  0.4615440000000  0.5937080000000  0.4393720000000 1.0
C      1  0.5078250000000  0.5539780000000  0.5897490000000 1.0
C      1  0.4703570000000  0.4235230000000  0.5113560000000 1.0
C      1  0.5128650000000  0.4261440000000  0.5926430000000 1.0
C      1  0.4734810000000  0.3785790000000  0.5409830000000 1.0
C      1  0.5077160000000  0.5017120000000  0.5563230000000 1.0
C      1  0.5733800000000  0.4075850000000  0.4659700000000 1.0
C      1  0.4668590000000  0.5053500000000  0.5271440000000 1.0
C      1  0.4305460000000  0.3918020000000  0.5528630000000 1.0
C      1  0.3890920000000  0.5133020000000  0.5421760000000 1.0
C      1  0.4298230000000  0.5140610000000  0.4903060000000 1.0
C      1  0.5945360000000  0.4369300000000  0.5228470000000 1.0
C      1  0.6093860000000  0.4738930000000  0.4658410000000 1.0
C      1  0.5621220000000  0.5193980000000  0.5070570000000 1.0
C      1  0.2853200000000  0.3826770000000  0.3814410000000 1.0
C      1  0.4046700000000  0.4063640000000  0.4831050000000 1.0
C      1  0.4468120000000  0.6568950000000  0.3469530000000 1.0
C      1  0.5477170000000  0.3997290000000  0.5551110000000 1.0
C      1  0.5900130000000  0.4907590000000  0.4526560000000 1.0
END
