TITL C-612600-6631-643 0.000542645296510364 125000 -489.136391620767 0 0 80 (C1) n - 1
REM
REM in /home/nfs/bkarasulu/CARBON/AIRSS/Generating-Clusters/TERSOFF/Only-C1/FIRE-HFTN
REM
REM
REM
REM
REM
REM ./C.cell (11c1c37f851c82e70ff6c80c92926a4b)
REM AIRSS Version 0.9.1 bugfix July 2018 build 013d7b7c2542+ Fri, 06 Jul 2018 19:26:36 +0100
REM compiler GCC version 9.2.1 20190827 (Red Hat 9.2.1-1)
REM options -cpp -mtune=generic -march=x86-64 -g -O0 -fpre-include=/usr/include/finclude/math-vector-fortran.h
REM seed -1327754953 2093029260 218195934 -1042979516 -938737971 204802402 -1787349298 1275998782 1686136857 1093194522 842985689 1046038755 1834632276 847583005 -696774049 -675484626 269757802 -156773315 1048769280 744057093 1738919831 1473217786 1173660893 -1415666135 -1060508715 1425344220 968782202 596382913 -419025265 -590349607 -1795867422 -1274026972 -1336602213
REM
CELL 1.54180   50.00000   50.00000   50.00000   90.00000   90.00000   90.00000
LATT -1
SFAC C  
C      1  0.5704730000000  0.5237110000000  0.4886180000000 1.0
C      1  0.5672380000000  0.5025270000000  0.4399720000000 1.0
C      1  0.4954940000000  0.4488610000000  0.4364320000000 1.0
C      1  0.5239560000000  0.4225520000000  0.4870640000000 1.0
C      1  0.4507650000000  0.3974300000000  0.5134300000000 1.0
C      1  0.5458730000000  0.4432610000000  0.4525840000000 1.0
C      1  0.4064400000000  0.4807680000000  0.4929600000000 1.0
C      1  0.4458530000000  0.5668670000000  0.4795410000000 1.0
C      1  0.5131850000000  0.5581180000000  0.4742410000000 1.0
C      1  0.5486850000000  0.5089410000000  0.5002500000000 1.0
C      1  0.5150460000000  0.5431770000000  0.5799280000000 1.0
C      1  0.4620070000000  0.4835310000000  0.4485960000000 1.0
C      1  0.5702990000000  0.5235870000000  0.4596160000000 1.0
C      1  0.4748420000000  0.4915000000000  0.5517000000000 1.0
C      1  0.5367950000000  0.4659500000000  0.5437890000000 1.0
C      1  0.5849450000000  0.4807860000000  0.4453340000000 1.0
C      1  0.4336950000000  0.4512600000000  0.5232570000000 1.0
C      1  0.4679880000000  0.5094660000000  0.4372480000000 1.0
C      1  0.5308800000000  0.5682150000000  0.4934370000000 1.0
C      1  0.6180670000000  0.5172730000000  0.5054340000000 1.0
C      1  0.5188460000000  0.5109840000000  0.4369770000000 1.0
C      1  0.5262470000000  0.5380520000000  0.5332570000000 1.0
C      1  0.4676680000000  0.4170170000000  0.5223970000000 1.0
C      1  0.5201000000000  0.4873410000000  0.5341960000000 1.0
C      1  0.4768090000000  0.5718660000000  0.5225310000000 1.0
C      1  0.4823220000000  0.4648240000000  0.4574490000000 1.0
C      1  0.4115760000000  0.4619310000000  0.5129840000000 1.0
C      1  0.4918880000000  0.4617490000000  0.4854040000000 1.0
C      1  0.5633240000000  0.4209780000000  0.5139740000000 1.0
C      1  0.4818060000000  0.5582620000000  0.5469810000000 1.0
C      1  0.5719150000000  0.4482790000000  0.5129850000000 1.0
C      1  0.5109840000000  0.4609880000000  0.4157460000000 1.0
C      1  0.5711240000000  0.4609680000000  0.4875050000000 1.0
C      1  0.4557590000000  0.5597270000000  0.4534820000000 1.0
C      1  0.4552490000000  0.5205420000000  0.5004630000000 1.0
C      1  0.5190780000000  0.4181580000000  0.5346710000000 1.0
C      1  0.5070830000000  0.5452830000000  0.5530160000000 1.0
C      1  0.5253900000000  0.4408690000000  0.5505210000000 1.0
C      1  0.4336970000000  0.5725850000000  0.6037610000000 1.0
C      1  0.4916570000000  0.4819960000000  0.5312970000000 1.0
C      1  0.4098400000000  0.5565000000000  0.5666990000000 1.0
C      1  0.4597120000000  0.4947450000000  0.5726740000000 1.0
C      1  0.5279930000000  0.4199550000000  0.4581100000000 1.0
C      1  0.6282900000000  0.4941940000000  0.4962140000000 1.0
C      1  0.5354470000000  0.4939160000000  0.4795430000000 1.0
C      1  0.4818060000000  0.5621640000000  0.6090120000000 1.0
C      1  0.4594360000000  0.5573770000000  0.5650170000000 1.0
C      1  0.5026310000000  0.5737440000000  0.4534810000000 1.0
C      1  0.4934190000000  0.5129690000000  0.4250040000000 1.0
C      1  0.4098870000000  0.5677670000000  0.5914910000000 1.0
C      1  0.4775040000000  0.5750380000000  0.4439780000000 1.0
C      1  0.5366600000000  0.5595000000000  0.5180990000000 1.0
C      1  0.4224460000000  0.5535880000000  0.4888020000000 1.0
C      1  0.5183060000000  0.4514650000000  0.4883920000000 1.0
C      1  0.4351100000000  0.4758880000000  0.4511500000000 1.0
C      1  0.4133550000000  0.4742710000000  0.4665050000000 1.0
C      1  0.3977710000000  0.5650850000000  0.4887220000000 1.0
C      1  0.5357430000000  0.4138050000000  0.5114360000000 1.0
C      1  0.4606120000000  0.4445790000000  0.5195470000000 1.0
C      1  0.5638020000000  0.4641600000000  0.5350980000000 1.0
C      1  0.5057140000000  0.5512870000000  0.6036690000000 1.0
C      1  0.5941890000000  0.5291720000000  0.5024710000000 1.0
C      1  0.4335570000000  0.5510430000000  0.5545360000000 1.0
C      1  0.4080330000000  0.5078500000000  0.4999780000000 1.0
C      1  0.4630830000000  0.5767460000000  0.4999250000000 1.0
C      1  0.5336460000000  0.4753810000000  0.4113190000000 1.0
C      1  0.5179490000000  0.5106700000000  0.4650440000000 1.0
C      1  0.6178770000000  0.4744200000000  0.4813100000000 1.0
C      1  0.4534920000000  0.5332400000000  0.4431450000000 1.0
C      1  0.4590940000000  0.5655210000000  0.5930480000000 1.0
C      1  0.5420190000000  0.4983610000000  0.4258410000000 1.0
C      1  0.4278600000000  0.5273760000000  0.4983270000000 1.0
C      1  0.5328980000000  0.5115150000000  0.5244630000000 1.0
C      1  0.4795660000000  0.4646180000000  0.5111980000000 1.0
C      1  0.5925660000000  0.4691960000000  0.4703180000000 1.0
C      1  0.5040750000000  0.4222480000000  0.4428520000000 1.0
C      1  0.5034100000000  0.5312630000000  0.4780520000000 1.0
C      1  0.5431200000000  0.4647050000000  0.4757000000000 1.0
C      1  0.4806900000000  0.5243540000000  0.4931130000000 1.0
C      1  0.4923440000000  0.4101400000000  0.5336920000000 1.0
END
