TITL C-612600-6631-1182 -0.000306378334775763 125000 -604.215461504976 0 0 101 (C1) n - 1
REM
REM in /home/nfs/bkarasulu/CARBON/AIRSS/Generating-Clusters/TERSOFF/Only-C1/FIRE-HFTN
REM
REM
REM
REM
REM
REM ./C.cell (11c1c37f851c82e70ff6c80c92926a4b)
REM AIRSS Version 0.9.1 bugfix July 2018 build 013d7b7c2542+ Fri, 06 Jul 2018 19:26:36 +0100
REM compiler GCC version 9.2.1 20190827 (Red Hat 9.2.1-1)
REM options -cpp -mtune=generic -march=x86-64 -g -O0 -fpre-include=/usr/include/finclude/math-vector-fortran.h
REM seed 437551440 1647601881 -1995501724 1678380016 -810938637 -1770513913 1847878003 970216457 -911247647 1814576518 1777233342 485010820 -726382760 -960099955 383748307 758586442 -2008447695 799232317 -1729414289 1572467524 -1317217929 -2095029377 -710241488 -1065892156 958228959 1173979098 -272555619 109812348 -325222486 119232379 -267539744 -1402912491 -1150493958
REM
CELL 1.54180   50.00000   50.00000   50.00000   90.00000   90.00000   90.00000
LATT -1
SFAC C  
C      1  0.4433150000000  0.5687800000000  0.5316350000000 1.0
C      1  0.5136950000000  0.4439710000000  0.4277620000000 1.0
C      1  0.4682770000000  0.5577520000000  0.5401050000000 1.0
C      1  0.4698990000000  0.5303870000000  0.4425280000000 1.0
C      1  0.4839870000000  0.4111010000000  0.5353660000000 1.0
C      1  0.5365690000000  0.4625550000000  0.5779270000000 1.0
C      1  0.5459260000000  0.5764290000000  0.4916910000000 1.0
C      1  0.4915080000000  0.4976760000000  0.5039460000000 1.0
C      1  0.5037160000000  0.4580720000000  0.4506150000000 1.0
C      1  0.5381710000000  0.5439740000000  0.6041470000000 1.0
C      1  0.4324350000000  0.4371680000000  0.4519450000000 1.0
C      1  0.5239830000000  0.5037340000000  0.4483780000000 1.0
C      1  0.5588400000000  0.5686380000000  0.4692300000000 1.0
C      1  0.5218290000000  0.4540930000000  0.5109340000000 1.0
C      1  0.4584030000000  0.5533910000000  0.4313510000000 1.0
C      1  0.5906820000000  0.5155360000000  0.5563830000000 1.0
C      1  0.4984150000000  0.5683400000000  0.5028640000000 1.0
C      1  0.4873970000000  0.5021500000000  0.5537910000000 1.0
C      1  0.4425870000000  0.4898700000000  0.4938670000000 1.0
C      1  0.4719370000000  0.4545070000000  0.5216640000000 1.0
C      1  0.4759940000000  0.5219960000000  0.5055810000000 1.0
C      1  0.4591240000000  0.4744660000000  0.4760760000000 1.0
C      1  0.5710420000000  0.4583320000000  0.4860790000000 1.0
C      1  0.5233030000000  0.4323190000000  0.6137520000000 1.0
C      1  0.5821610000000  0.5208550000000  0.4699270000000 1.0
C      1  0.5362060000000  0.5241410000000  0.4907460000000 1.0
C      1  0.4788670000000  0.4900310000000  0.5964680000000 1.0
C      1  0.4922380000000  0.5333640000000  0.4602230000000 1.0
C      1  0.4505460000000  0.4650790000000  0.5633080000000 1.0
C      1  0.5267550000000  0.5685840000000  0.5639590000000 1.0
C      1  0.5778070000000  0.5149130000000  0.4426690000000 1.0
C      1  0.5729850000000  0.5001570000000  0.5128470000000 1.0
C      1  0.5198220000000  0.5085800000000  0.4210400000000 1.0
C      1  0.5214680000000  0.5129570000000  0.3948230000000 1.0
C      1  0.5549550000000  0.4349840000000  0.4831390000000 1.0
C      1  0.5642540000000  0.5158750000000  0.4904380000000 1.0
C      1  0.5564990000000  0.5604780000000  0.4418890000000 1.0
C      1  0.5170200000000  0.4459480000000  0.5908120000000 1.0
C      1  0.4304200000000  0.4277080000000  0.4787090000000 1.0
C      1  0.5184110000000  0.5239070000000  0.4677460000000 1.0
C      1  0.5618660000000  0.5345420000000  0.3783750000000 1.0
C      1  0.5812720000000  0.4739930000000  0.6057980000000 1.0
C      1  0.4956980000000  0.5899810000000  0.4583390000000 1.0
C      1  0.4448750000000  0.4828960000000  0.4295750000000 1.0
C      1  0.4845990000000  0.4030050000000  0.4076550000000 1.0
C      1  0.4835400000000  0.5817810000000  0.4822200000000 1.0
C      1  0.4395220000000  0.5652300000000  0.5030020000000 1.0
C      1  0.4082410000000  0.4375730000000  0.4935580000000 1.0
C      1  0.5302700000000  0.4308350000000  0.4964290000000 1.0
C      1  0.4490800000000  0.4658190000000  0.5349420000000 1.0
C      1  0.4455530000000  0.5722950000000  0.4188220000000 1.0
C      1  0.4078660000000  0.4593440000000  0.5095860000000 1.0
C      1  0.5293380000000  0.5780500000000  0.5389230000000 1.0
C      1  0.5345160000000  0.5731930000000  0.4292300000000 1.0
C      1  0.5003280000000  0.4224180000000  0.4164650000000 1.0
C      1  0.4586570000000  0.5055710000000  0.4343010000000 1.0
C      1  0.5709050000000  0.5389400000000  0.4282910000000 1.0
C      1  0.5667070000000  0.4725770000000  0.5111880000000 1.0
C      1  0.4758170000000  0.5526930000000  0.5667680000000 1.0
C      1  0.4369120000000  0.5155760000000  0.5612630000000 1.0
C      1  0.4785010000000  0.4606250000000  0.4630860000000 1.0
C      1  0.5602050000000  0.4692070000000  0.5912210000000 1.0
C      1  0.5248890000000  0.5762260000000  0.5109140000000 1.0
C      1  0.4837510000000  0.5477050000000  0.5173820000000 1.0
C      1  0.4855630000000  0.4216180000000  0.5618740000000 1.0
C      1  0.5755280000000  0.5407540000000  0.4006300000000 1.0
C      1  0.4681620000000  0.3844070000000  0.3996820000000 1.0
C      1  0.4554480000000  0.5806590000000  0.4856460000000 1.0
C      1  0.3874240000000  0.5448460000000  0.5225160000000 1.0
C      1  0.5216820000000  0.4054810000000  0.5047120000000 1.0
C      1  0.4525220000000  0.4190310000000  0.4947080000000 1.0
C      1  0.4020600000000  0.5349610000000  0.5020030000000 1.0
C      1  0.4485100000000  0.5176550000000  0.4971340000000 1.0
C      1  0.5291810000000  0.5284300000000  0.5180750000000 1.0
C      1  0.3953280000000  0.5613130000000  0.5424830000000 1.0
C      1  0.5709050000000  0.5137020000000  0.5379000000000 1.0
C      1  0.5123650000000  0.5856610000000  0.4378770000000 1.0
C      1  0.4907700000000  0.4433760000000  0.5797460000000 1.0
C      1  0.4618790000000  0.5104770000000  0.5552080000000 1.0
C      1  0.5748170000000  0.4859490000000  0.4389890000000 1.0
C      1  0.4931190000000  0.5398050000000  0.5853820000000 1.0
C      1  0.4819780000000  0.5244270000000  0.6298040000000 1.0
C      1  0.5315560000000  0.4725050000000  0.5520210000000 1.0
C      1  0.5385130000000  0.4540710000000  0.4174190000000 1.0
C      1  0.5593150000000  0.4712670000000  0.4201480000000 1.0
C      1  0.5442910000000  0.4644930000000  0.5272700000000 1.0
C      1  0.4301660000000  0.4754740000000  0.5157700000000 1.0
C      1  0.4719820000000  0.4654300000000  0.5825220000000 1.0
C      1  0.5378590000000  0.5226770000000  0.3759950000000 1.0
C      1  0.5454950000000  0.5260430000000  0.5397140000000 1.0
C      1  0.5811850000000  0.4705360000000  0.4626110000000 1.0
C      1  0.5198180000000  0.5506850000000  0.5850050000000 1.0
C      1  0.4355690000000  0.4581740000000  0.4352240000000 1.0
C      1  0.5218680000000  0.4779430000000  0.4584300000000 1.0
C      1  0.4848990000000  0.5177440000000  0.6030930000000 1.0
C      1  0.4295550000000  0.5389140000000  0.4965260000000 1.0
C      1  0.5049300000000  0.3963540000000  0.5237080000000 1.0
C      1  0.4198170000000  0.5719880000000  0.5468370000000 1.0
C      1  0.5054750000000  0.4825730000000  0.5453450000000 1.0
C      1  0.4693080000000  0.4267310000000  0.5163120000000 1.0
C      1  0.4968040000000  0.4709750000000  0.5179850000000 1.0
END
