TITL C-612602-9376-544 29.191668107554 125000 -907.758424780637 0 0 148 (C1) n - 1
REM
REM in /home/nfs/bkarasulu/CARBON/AIRSS/Generating-Clusters/TERSOFF/Only-C1/FIRE-HFTN
REM
REM
REM
REM
REM
REM ./C.cell (11c1c37f851c82e70ff6c80c92926a4b)
REM AIRSS Version 0.9.1 bugfix July 2018 build 013d7b7c2542+ Fri, 06 Jul 2018 19:26:36 +0100
REM compiler GCC version 9.2.1 20190827 (Red Hat 9.2.1-1)
REM options -cpp -mtune=generic -march=x86-64 -g -O0 -fpre-include=/usr/include/finclude/math-vector-fortran.h
REM seed 1672810643 939329448 -387857485 571346742 -2116941008 -1228117944 481833630 -1940865371 -658823319 364890790 -1338179198 -837664888 -2042906341 622481428 1245183103 -635328175 1313901107 2075409741 -1916037953 1324300925 413246971 -1593774726 -1400608936 -982115593 1513335096 -1056500507 -868127068 210954345 -259251269 -1368643757 6580598 2113084574 144132687
REM
CELL 1.54180   50.00000   50.00000   50.00000   90.00000   90.00000   90.00000
LATT -1
SFAC C  
C      1  0.5489640000000  0.5142320000000  0.5066280000000 1.0
C      1  0.5401560000000  0.6099310000000  0.5652400000000 1.0
C      1  0.4907760000000  0.5363020000000  0.3866980000000 1.0
C      1  0.5749960000000  0.4575530000000  0.5470660000000 1.0
C      1  0.4602200000000  0.4308970000000  0.5830450000000 1.0
C      1  0.4479570000000  0.4811130000000  0.5131790000000 1.0
C      1  0.5205300000000  0.4959060000000  0.5533000000000 1.0
C      1  0.4403950000000  0.5954940000000  0.4943780000000 1.0
C      1  0.5211440000000  0.5282010000000  0.4436220000000 1.0
C      1  0.5355010000000  0.5254420000000  0.5967220000000 1.0
C      1  0.5411840000000  0.4044580000000  0.5379690000000 1.0
C      1  0.4459240000000  0.5417920000000  0.5886850000000 1.0
C      1  0.4933820000000  0.5421960000000  0.6089770000000 1.0
C      1  0.4948510000000  0.5357110000000  0.5069930000000 1.0
C      1  0.4739260000000  0.5615750000000  0.4243280000000 1.0
C      1  0.4546430000000  0.4359170000000  0.4253010000000 1.0
C      1  0.5944570000000  0.5878170000000  0.4242220000000 1.0
C      1  0.5576710000000  0.4320380000000  0.4420250000000 1.0
C      1  0.4940400000000  0.4928100000000  0.6046550000000 1.0
C      1  0.5145950000000  0.4720740000000  0.5094490000000 1.0
C      1  0.4668090000000  0.5683000000000  0.5217740000000 1.0
C      1  0.5389380000000  0.5511940000000  0.5810560000000 1.0
C      1  0.5295060000000  0.5158920000000  0.4868900000000 1.0
C      1  0.5760190000000  0.4901820000000  0.4810170000000 1.0
C      1  0.6074060000000  0.5665370000000  0.4340260000000 1.0
C      1  0.5035320000000  0.4483450000000  0.4982500000000 1.0
C      1  0.4545650000000  0.5125180000000  0.4075190000000 1.0
C      1  0.4511210000000  0.5405420000000  0.4203390000000 1.0
C      1  0.4802220000000  0.4445620000000  0.5965030000000 1.0
C      1  0.4639610000000  0.4792050000000  0.4677080000000 1.0
C      1  0.5305170000000  0.5415760000000  0.4692460000000 1.0
C      1  0.3983270000000  0.4435840000000  0.5370260000000 1.0
C      1  0.5956780000000  0.5448370000000  0.5218550000000 1.0
C      1  0.4022910000000  0.4569940000000  0.4244710000000 1.0
C      1  0.3860200000000  0.5290240000000  0.5460260000000 1.0
C      1  0.5600630000000  0.4877990000000  0.4574300000000 1.0
C      1  0.5495940000000  0.4774000000000  0.6014360000000 1.0
C      1  0.4770290000000  0.4440020000000  0.5057580000000 1.0
C      1  0.5631110000000  0.4894460000000  0.5057200000000 1.0
C      1  0.5512130000000  0.6014650000000  0.4418860000000 1.0
C      1  0.4180620000000  0.5312070000000  0.5071730000000 1.0
C      1  0.4284820000000  0.4642590000000  0.5004010000000 1.0
C      1  0.4302210000000  0.5570070000000  0.4655820000000 1.0
C      1  0.4271230000000  0.5005060000000  0.5471470000000 1.0
C      1  0.5177050000000  0.5690460000000  0.4684560000000 1.0
C      1  0.5983880000000  0.5012120000000  0.5344850000000 1.0
C      1  0.5162900000000  0.5952840000000  0.5638560000000 1.0
C      1  0.5324360000000  0.5903010000000  0.4571710000000 1.0
C      1  0.4477950000000  0.5173120000000  0.6001420000000 1.0
C      1  0.5536350000000  0.5041210000000  0.6011330000000 1.0
C      1  0.4548830000000  0.4259350000000  0.5090050000000 1.0
C      1  0.4922360000000  0.5207040000000  0.4471870000000 1.0
C      1  0.4705590000000  0.5216550000000  0.5423320000000 1.0
C      1  0.4829330000000  0.5594850000000  0.5000560000000 1.0
C      1  0.5619010000000  0.6242720000000  0.5661110000000 1.0
C      1  0.6038270000000  0.5195480000000  0.4544590000000 1.0
C      1  0.5448940000000  0.4126510000000  0.4882720000000 1.0
C      1  0.5904820000000  0.5058300000000  0.4304690000000 1.0
C      1  0.5680190000000  0.4107530000000  0.5461460000000 1.0
C      1  0.4035870000000  0.4329700000000  0.4367220000000 1.0
C      1  0.4656580000000  0.4977430000000  0.6053000000000 1.0
C      1  0.5403180000000  0.5278610000000  0.5294100000000 1.0
C      1  0.5677990000000  0.4692790000000  0.5241760000000 1.0
C      1  0.4437450000000  0.4259230000000  0.5587140000000 1.0
C      1  0.5505660000000  0.5416590000000  0.4092570000000 1.0
C      1  0.5002670000000  0.4255460000000  0.5525650000000 1.0
C      1  0.4648600000000  0.5569430000000  0.5733420000000 1.0
C      1  0.5000160000000  0.3994810000000  0.5101410000000 1.0
C      1  0.5472580000000  0.5087620000000  0.5508520000000 1.0
C      1  0.4799770000000  0.5104330000000  0.3926760000000 1.0
C      1  0.4021090000000  0.4751850000000  0.4969340000000 1.0
C      1  0.5651550000000  0.5200950000000  0.4218900000000 1.0
C      1  0.4986970000000  0.4888620000000  0.3931330000000 1.0
C      1  0.5296010000000  0.4033540000000  0.5111920000000 1.0
C      1  0.5444920000000  0.5075840000000  0.4413020000000 1.0
C      1  0.5899700000000  0.4287440000000  0.4787240000000 1.0
C      1  0.4077310000000  0.4957930000000  0.4777910000000 1.0
C      1  0.4972870000000  0.4466790000000  0.4426750000000 1.0
C      1  0.4595740000000  0.5063980000000  0.4803120000000 1.0
C      1  0.4682610000000  0.4041470000000  0.4640710000000 1.0
C      1  0.4852630000000  0.3973680000000  0.4847440000000 1.0
C      1  0.4942260000000  0.6076380000000  0.5506400000000 1.0
C      1  0.4693750000000  0.4646170000000  0.5501010000000 1.0
C      1  0.5590830000000  0.5500670000000  0.4717390000000 1.0
C      1  0.5729020000000  0.6059150000000  0.4244800000000 1.0
C      1  0.5153940000000  0.5693850000000  0.5765690000000 1.0
C      1  0.4045410000000  0.4966300000000  0.4500270000000 1.0
C      1  0.4648040000000  0.5507530000000  0.5451750000000 1.0
C      1  0.3884150000000  0.4657330000000  0.5204070000000 1.0
C      1  0.5677250000000  0.4351380000000  0.5620870000000 1.0
C      1  0.4464670000000  0.5822700000000  0.4671440000000 1.0
C      1  0.5152040000000  0.4715710000000  0.5394030000000 1.0
C      1  0.4146290000000  0.4194120000000  0.4826280000000 1.0
C      1  0.4682520000000  0.4653310000000  0.5220570000000 1.0
C      1  0.5636810000000  0.4249410000000  0.4697220000000 1.0
C      1  0.4322970000000  0.4364010000000  0.4966610000000 1.0
C      1  0.6142980000000  0.4327290000000  0.4871740000000 1.0
C      1  0.4987130000000  0.5157740000000  0.5481380000000 1.0
C      1  0.5308410000000  0.4571810000000  0.5937200000000 1.0
C      1  0.4901380000000  0.5601430000000  0.5870330000000 1.0
C      1  0.4979650000000  0.5539180000000  0.4082720000000 1.0
C      1  0.5789350000000  0.4783990000000  0.4363670000000 1.0
C      1  0.5021850000000  0.4641730000000  0.5997260000000 1.0
C      1  0.5444470000000  0.4633400000000  0.4057410000000 1.0
C      1  0.4718620000000  0.5763150000000  0.4528160000000 1.0
C      1  0.5991970000000  0.5078650000000  0.4817990000000 1.0
C      1  0.4401550000000  0.4869670000000  0.4150310000000 1.0
C      1  0.4570410000000  0.4134400000000  0.5350510000000 1.0
C      1  0.4136560000000  0.4831710000000  0.4270570000000 1.0
C      1  0.5126880000000  0.5341270000000  0.5293690000000 1.0
C      1  0.4819290000000  0.4643330000000  0.4550190000000 1.0
C      1  0.4150950000000  0.5821920000000  0.5014170000000 1.0
C      1  0.6038190000000  0.5178430000000  0.5106770000000 1.0
C      1  0.4857000000000  0.4074460000000  0.5355910000000 1.0
C      1  0.5356900000000  0.4175060000000  0.4315350000000 1.0
C      1  0.4962030000000  0.4539830000000  0.5532160000000 1.0
C      1  0.5815620000000  0.5420800000000  0.5484690000000 1.0
C      1  0.4148640000000  0.5552180000000  0.4914780000000 1.0
C      1  0.4428660000000  0.5379960000000  0.4481170000000 1.0
C      1  0.5094170000000  0.4958020000000  0.4933380000000 1.0
C      1  0.4486480000000  0.4176220000000  0.4470300000000 1.0
C      1  0.5216900000000  0.4750910000000  0.3968780000000 1.0
C      1  0.5415400000000  0.4359920000000  0.5763670000000 1.0
C      1  0.5854860000000  0.5581490000000  0.4754790000000 1.0
C      1  0.6030820000000  0.5484890000000  0.4549650000000 1.0
C      1  0.5236680000000  0.5465860000000  0.4192480000000 1.0
C      1  0.4904970000000  0.5705890000000  0.4745930000000 1.0
C      1  0.5643690000000  0.4558290000000  0.4255510000000 1.0
C      1  0.4091700000000  0.5205130000000  0.5341690000000 1.0
C      1  0.4585410000000  0.5952030000000  0.5171080000000 1.0
C      1  0.4738000000000  0.6124960000000  0.5334350000000 1.0
C      1  0.5729930000000  0.6276690000000  0.4079000000000 1.0
C      1  0.5636310000000  0.5559250000000  0.5662720000000 1.0
C      1  0.5935100000000  0.5644350000000  0.5017380000000 1.0
C      1  0.5088210000000  0.5185000000000  0.6058090000000 1.0
C      1  0.4224580000000  0.4467510000000  0.5538380000000 1.0
C      1  0.4658160000000  0.5237990000000  0.4578070000000 1.0
C      1  0.3912690000000  0.4181350000000  0.5257470000000 1.0
C      1  0.5102720000000  0.4257290000000  0.4326780000000 1.0
C      1  0.4203620000000  0.4188060000000  0.4547780000000 1.0
C      1  0.4532590000000  0.4608520000000  0.4140240000000 1.0
C      1  0.3951300000000  0.4088380000000  0.5002860000000 1.0
C      1  0.5769870000000  0.5120420000000  0.5516280000000 1.0
C      1  0.4850640000000  0.5107180000000  0.4966590000000 1.0
C      1  0.4507610000000  0.5045730000000  0.5308230000000 1.0
C      1  0.4342540000000  0.4729720000000  0.5577700000000 1.0
C      1  0.5257440000000  0.4173890000000  0.5598730000000 1.0
C      1  0.4296230000000  0.5118010000000  0.4886400000000 1.0
END
