TITL C-612602-9376-1004 5.89956215927107 125000 -264.279805776139 0 0 44 (C1) n - 1
REM
REM in /home/nfs/bkarasulu/CARBON/AIRSS/Generating-Clusters/TERSOFF/Only-C1/FIRE-HFTN
REM
REM
REM
REM
REM
REM ./C.cell (11c1c37f851c82e70ff6c80c92926a4b)
REM AIRSS Version 0.9.1 bugfix July 2018 build 013d7b7c2542+ Fri, 06 Jul 2018 19:26:36 +0100
REM compiler GCC version 9.2.1 20190827 (Red Hat 9.2.1-1)
REM options -cpp -mtune=generic -march=x86-64 -g -O0 -fpre-include=/usr/include/finclude/math-vector-fortran.h
REM seed -1867562355 -976932960 -1227017822 854881394 -796233891 -825882897 698276187 -777050259 -759541533 -1934605480 1892629244 -1038460249 617888320 1976741611 141080913 -2118818754 1116142619 -117838851 -1766187691 1468461703 1044836871 961901136 -1374446649 783921758 1039094548 1520475406 -143681064 867419181 -1875773585 1149282526 -351186472 -188996162 166729056
REM
CELL 1.54180   50.00000   50.00000   50.00000   90.00000   90.00000   90.00000
LATT -1
SFAC C  
C      1  0.5018570000000  0.4964140000000  0.3483180000000 1.0
C      1  0.5110440000000  0.4928050000000  0.5800470000000 1.0
C      1  0.5508070000000  0.4582940000000  0.5958540000000 1.0
C      1  0.4190340000000  0.4674860000000  0.5012130000000 1.0
C      1  0.5339160000000  0.5470070000000  0.6182310000000 1.0
C      1  0.4881720000000  0.5456400000000  0.6369230000000 1.0
C      1  0.5863470000000  0.5372980000000  0.4254880000000 1.0
C      1  0.4002810000000  0.4585810000000  0.4825160000000 1.0
C      1  0.5258480000000  0.5074120000000  0.3508890000000 1.0
C      1  0.4936780000000  0.5149970000000  0.4162390000000 1.0
C      1  0.5501290000000  0.5375280000000  0.5727050000000 1.0
C      1  0.5793220000000  0.5335230000000  0.4002020000000 1.0
C      1  0.4722460000000  0.5105060000000  0.6042440000000 1.0
C      1  0.5470170000000  0.4814880000000  0.6097080000000 1.0
C      1  0.5869220000000  0.5380080000000  0.4519850000000 1.0
C      1  0.4238810000000  0.4650910000000  0.4057130000000 1.0
C      1  0.5694250000000  0.5306300000000  0.5009780000000 1.0
C      1  0.5531100000000  0.5342930000000  0.5464810000000 1.0
C      1  0.5223280000000  0.4749330000000  0.5602860000000 1.0
C      1  0.5090030000000  0.5062100000000  0.4657460000000 1.0
C      1  0.4060750000000  0.4598290000000  0.4552180000000 1.0
C      1  0.5135940000000  0.5536930000000  0.6343080000000 1.0
C      1  0.4780470000000  0.4860200000000  0.3536220000000 1.0
C      1  0.5249210000000  0.4837800000000  0.5340010000000 1.0
C      1  0.5387840000000  0.4546300000000  0.5716410000000 1.0
C      1  0.3528290000000  0.4389610000000  0.4992260000000 1.0
C      1  0.5315930000000  0.5032480000000  0.5150220000000 1.0
C      1  0.5811390000000  0.5357080000000  0.4777550000000 1.0
C      1  0.4134280000000  0.4617880000000  0.4298440000000 1.0
C      1  0.4563630000000  0.4771070000000  0.3660020000000 1.0
C      1  0.4663560000000  0.4905670000000  0.5606690000000 1.0
C      1  0.5662140000000  0.5268930000000  0.3781280000000 1.0
C      1  0.4725240000000  0.5279640000000  0.6243580000000 1.0
C      1  0.5515020000000  0.5228450000000  0.5209670000000 1.0
C      1  0.4381340000000  0.4701220000000  0.3839380000000 1.0
C      1  0.5308150000000  0.5023270000000  0.5989600000000 1.0
C      1  0.4513990000000  0.4833100000000  0.5400440000000 1.0
C      1  0.5479180000000  0.5179190000000  0.3611640000000 1.0
C      1  0.4832090000000  0.4979010000000  0.5817400000000 1.0
C      1  0.3757210000000  0.4484250000000  0.4911250000000 1.0
C      1  0.5011500000000  0.5101730000000  0.4407420000000 1.0
C      1  0.5185050000000  0.5037660000000  0.4903500000000 1.0
C      1  0.5396250000000  0.5292950000000  0.5973390000000 1.0
C      1  0.4357860000000  0.4755880000000  0.5200690000000 1.0
END
