TITL C-612602-9376-135 0.000404421397459951 125000 -346.022715246675 0 0 56 (C1) n - 1
REM
REM in /home/nfs/bkarasulu/CARBON/AIRSS/Generating-Clusters/TERSOFF/Only-C1/FIRE-HFTN
REM
REM
REM
REM
REM
REM ./C.cell (11c1c37f851c82e70ff6c80c92926a4b)
REM AIRSS Version 0.9.1 bugfix July 2018 build 013d7b7c2542+ Fri, 06 Jul 2018 19:26:36 +0100
REM compiler GCC version 9.2.1 20190827 (Red Hat 9.2.1-1)
REM options -cpp -mtune=generic -march=x86-64 -g -O0 -fpre-include=/usr/include/finclude/math-vector-fortran.h
REM seed -403270612 1523518138 1644955684 2018382515 909920201 -1492553072 737748673 1652022940 41826382 -1326335763 1395533338 -1446880363 181025199 -1752543451 -1402616627 -1189724533 305092321 -202656067 -941529557 1882999627 -756990996 1239811988 -1441810761 -1939120961 1796496217 1464229514 1670210156 1777007584 -321530567 1855915337 906314292 -1690020780 -1742418000
REM
CELL 1.54180   50.00000   50.00000   50.00000   90.00000   90.00000   90.00000
LATT -1
SFAC C  
C      1  0.5357100000000  0.4985100000000  0.4482010000000 1.0
C      1  0.4497740000000  0.4989870000000  0.4631520000000 1.0
C      1  0.4970380000000  0.4457940000000  0.5346230000000 1.0
C      1  0.5134710000000  0.5084090000000  0.5433370000000 1.0
C      1  0.4901480000000  0.5210060000000  0.4441640000000 1.0
C      1  0.3845630000000  0.5108780000000  0.5266900000000 1.0
C      1  0.5428850000000  0.4546730000000  0.5307520000000 1.0
C      1  0.4616930000000  0.5181650000000  0.4461890000000 1.0
C      1  0.5158840000000  0.5670990000000  0.4481050000000 1.0
C      1  0.4954940000000  0.4544240000000  0.4650370000000 1.0
C      1  0.5358040000000  0.5776550000000  0.4647590000000 1.0
C      1  0.5992760000000  0.4839550000000  0.5172310000000 1.0
C      1  0.5391440000000  0.4378250000000  0.4561070000000 1.0
C      1  0.4308600000000  0.4642810000000  0.5665780000000 1.0
C      1  0.5300690000000  0.5819890000000  0.4918140000000 1.0
C      1  0.3877620000000  0.5409600000000  0.4836660000000 1.0
C      1  0.4985520000000  0.4820800000000  0.4721610000000 1.0
C      1  0.4514050000000  0.4510960000000  0.5180760000000 1.0
C      1  0.5614780000000  0.4921540000000  0.4580190000000 1.0
C      1  0.5316730000000  0.5298650000000  0.5469980000000 1.0
C      1  0.5570800000000  0.5245560000000  0.5575400000000 1.0
C      1  0.5968930000000  0.4981630000000  0.5396010000000 1.0
C      1  0.5143000000000  0.4435480000000  0.4466910000000 1.0
C      1  0.5881310000000  0.4744700000000  0.4950470000000 1.0
C      1  0.4901960000000  0.4367170000000  0.4863850000000 1.0
C      1  0.4986610000000  0.4827590000000  0.5829420000000 1.0
C      1  0.5360860000000  0.4428760000000  0.5051690000000 1.0
C      1  0.5822440000000  0.5097060000000  0.4508900000000 1.0
C      1  0.5196220000000  0.4605370000000  0.5464180000000 1.0
C      1  0.5071340000000  0.4359910000000  0.5088230000000 1.0
C      1  0.4006580000000  0.5492700000000  0.4619270000000 1.0
C      1  0.5809650000000  0.5131990000000  0.5547170000000 1.0
C      1  0.4089390000000  0.4773250000000  0.5590050000000 1.0
C      1  0.5665820000000  0.4714170000000  0.4773720000000 1.0
C      1  0.5826130000000  0.5605510000000  0.4498910000000 1.0
C      1  0.4583400000000  0.4586750000000  0.5651400000000 1.0
C      1  0.5142250000000  0.4849680000000  0.5596290000000 1.0
C      1  0.4425650000000  0.4932260000000  0.4896520000000 1.0
C      1  0.4692150000000  0.4495950000000  0.5400490000000 1.0
C      1  0.3933880000000  0.4936560000000  0.5449180000000 1.0
C      1  0.5624290000000  0.5768480000000  0.4560230000000 1.0
C      1  0.4474120000000  0.5134850000000  0.5088550000000 1.0
C      1  0.5264170000000  0.5732540000000  0.5166510000000 1.0
C      1  0.4755300000000  0.4691500000000  0.5847890000000 1.0
C      1  0.5900170000000  0.5350190000000  0.4480080000000 1.0
C      1  0.4697780000000  0.5196220000000  0.5224920000000 1.0
C      1  0.3825630000000  0.5272890000000  0.5058720000000 1.0
C      1  0.4440040000000  0.5380810000000  0.4370860000000 1.0
C      1  0.4953560000000  0.5078830000000  0.5213280000000 1.0
C      1  0.5079100000000  0.5001860000000  0.4523530000000 1.0
C      1  0.5009940000000  0.5465690000000  0.4401390000000 1.0
C      1  0.4404660000000  0.4670380000000  0.4995730000000 1.0
C      1  0.5001160000000  0.4918380000000  0.4985970000000 1.0
C      1  0.5263650000000  0.5550560000000  0.5360130000000 1.0
C      1  0.5493790000000  0.4486540000000  0.4803370000000 1.0
C      1  0.4207440000000  0.5490190000000  0.4444190000000 1.0
END
