TITL C-612604-1799-730 -0.0290907085797274 125000 -332.255445690963 0 0 57 (C1) n - 1
REM
REM in /home/nfs/bkarasulu/CARBON/AIRSS/Generating-Clusters/TERSOFF/Only-C1/FIRE-HFTN
REM
REM
REM
REM
REM
REM ./C.cell (11c1c37f851c82e70ff6c80c92926a4b)
REM AIRSS Version 0.9.1 bugfix July 2018 build 013d7b7c2542+ Fri, 06 Jul 2018 19:26:36 +0100
REM compiler GCC version 9.2.1 20190827 (Red Hat 9.2.1-1)
REM options -cpp -mtune=generic -march=x86-64 -g -O0 -fpre-include=/usr/include/finclude/math-vector-fortran.h
REM seed 1742199688 432242244 -884577009 2106349814 -255240481 936691478 -466392379 -1287843865 1451639861 -2138057484 764134601 1520424035 1416047927 -622768810 1236329414 -2100114059 -837640445 1724595221 753307232 1188574994 112131519 -1150662957 -1398714963 1711555802 -1013319161 1183216647 979362182 1668441367 -674066397 -1390468834 1021069466 -1383363570 319755237
REM
CELL 1.54180   50.00000   50.00000   50.00000   90.00000   90.00000   90.00000
LATT -1
SFAC C  
C      1  0.4837020000000  0.4601730000000  0.4631210000000 1.0
C      1  0.5625090000000  0.5322650000000  0.4549450000000 1.0
C      1  0.5180410000000  0.5593020000000  0.4531500000000 1.0
C      1  0.5842390000000  0.4876850000000  0.5320390000000 1.0
C      1  0.5332040000000  0.5730460000000  0.5699200000000 1.0
C      1  0.4982190000000  0.5412320000000  0.5797110000000 1.0
C      1  0.3785780000000  0.4934960000000  0.5201720000000 1.0
C      1  0.5223190000000  0.4467480000000  0.5192500000000 1.0
C      1  0.5029450000000  0.4571270000000  0.5385750000000 1.0
C      1  0.4797780000000  0.5222500000000  0.4333310000000 1.0
C      1  0.5079810000000  0.4763070000000  0.4260160000000 1.0
C      1  0.4765140000000  0.5468170000000  0.5956790000000 1.0
C      1  0.5206960000000  0.4911630000000  0.5699710000000 1.0
C      1  0.3549660000000  0.4956690000000  0.5310050000000 1.0
C      1  0.5401040000000  0.5079450000000  0.5024890000000 1.0
C      1  0.5524550000000  0.4528410000000  0.4606930000000 1.0
C      1  0.5045750000000  0.5270120000000  0.5261820000000 1.0
C      1  0.5084760000000  0.4657670000000  0.5653460000000 1.0
C      1  0.4556100000000  0.4435810000000  0.4954760000000 1.0
C      1  0.4823660000000  0.4718490000000  0.5263090000000 1.0
C      1  0.4863740000000  0.5755420000000  0.4878340000000 1.0
C      1  0.5256850000000  0.4449450000000  0.4646390000000 1.0
C      1  0.4341960000000  0.4615450000000  0.4878090000000 1.0
C      1  0.5273810000000  0.5224000000000  0.4247050000000 1.0
C      1  0.4279570000000  0.4885320000000  0.4971070000000 1.0
C      1  0.5066850000000  0.5358150000000  0.4987990000000 1.0
C      1  0.5501450000000  0.4540690000000  0.5240280000000 1.0
C      1  0.4025430000000  0.4912320000000  0.5091100000000 1.0
C      1  0.4865750000000  0.4855880000000  0.4760160000000 1.0
C      1  0.5690170000000  0.4476050000000  0.5037600000000 1.0
C      1  0.5397280000000  0.4958790000000  0.5493820000000 1.0
C      1  0.5933640000000  0.4940550000000  0.5072670000000 1.0
C      1  0.5383710000000  0.5415350000000  0.4427650000000 1.0
C      1  0.4777640000000  0.5245460000000  0.5344150000000 1.0
C      1  0.4436010000000  0.5131080000000  0.4963130000000 1.0
C      1  0.5589760000000  0.4769160000000  0.5401210000000 1.0
C      1  0.4519760000000  0.5281290000000  0.4733730000000 1.0
C      1  0.5052120000000  0.5053170000000  0.4343900000000 1.0
C      1  0.4543330000000  0.5218080000000  0.5213290000000 1.0
C      1  0.4169550000000  0.4515630000000  0.4678410000000 1.0
C      1  0.5086140000000  0.5626590000000  0.5631300000000 1.0
C      1  0.5763490000000  0.5109450000000  0.4644420000000 1.0
C      1  0.5120810000000  0.4388640000000  0.4921080000000 1.0
C      1  0.5092230000000  0.5147980000000  0.5808740000000 1.0
C      1  0.4908500000000  0.5603050000000  0.4638370000000 1.0
C      1  0.4011800000000  0.4428130000000  0.4490340000000 1.0
C      1  0.4810160000000  0.4854220000000  0.5033670000000 1.0
C      1  0.4822680000000  0.4406450000000  0.4852690000000 1.0
C      1  0.5217630000000  0.5173540000000  0.4828880000000 1.0
C      1  0.5825880000000  0.4887630000000  0.4812700000000 1.0
C      1  0.5068510000000  0.5022480000000  0.4650410000000 1.0
C      1  0.5300980000000  0.5127160000000  0.5292380000000 1.0
C      1  0.5713150000000  0.4620980000000  0.4791970000000 1.0
C      1  0.4888510000000  0.5794150000000  0.5145810000000 1.0
C      1  0.4953660000000  0.5739750000000  0.5403210000000 1.0
C      1  0.4717260000000  0.5391410000000  0.4555900000000 1.0
C      1  0.5057470000000  0.4554310000000  0.4454300000000 1.0
END
