TITL C-612602-9376-1168 198903.826997431 125000 -459.392514908301 0 0 77 (C1) n - 1
REM
REM in /home/nfs/bkarasulu/CARBON/AIRSS/Generating-Clusters/TERSOFF/Only-C1/FIRE-HFTN
REM
REM
REM
REM
REM
REM ./C.cell (11c1c37f851c82e70ff6c80c92926a4b)
REM AIRSS Version 0.9.1 bugfix July 2018 build 013d7b7c2542+ Fri, 06 Jul 2018 19:26:36 +0100
REM compiler GCC version 9.2.1 20190827 (Red Hat 9.2.1-1)
REM options -cpp -mtune=generic -march=x86-64 -g -O0 -fpre-include=/usr/include/finclude/math-vector-fortran.h
REM seed 220969436 -173137870 -1816300302 1209266806 1960049310 158564446 -979416417 -204162751 -1391096081 -1074736357 1295142250 640288736 -484999415 1545342582 -516159728 -1531130787 -1882196045 -1721054367 -957568388 407492047 -1437206519 34968699 -524355439 1914334 1714405513 -151182000 -1249242474 969491370 43635250 -1200402352 -1404989236 1272789588 -336618882
REM
CELL 1.54180   50.00000   50.00000   50.00000   90.00000   90.00000   90.00000
LATT -1
SFAC C  
C      1  0.5424030000000  0.4473290000000  0.4282000000000 1.0
C      1  0.6177260000000  0.5520690000000  0.4854330000000 1.0
C      1  0.5314880000000  0.4738010000000  0.4214620000000 1.0
C      1  0.5552020000000  0.5725600000000  0.4911480000000 1.0
C      1  0.5074480000000  0.4753940000000  0.4370730000000 1.0
C      1  0.4124370000000  0.5195560000000  0.4592430000000 1.0
C      1  0.4709400000000  0.5149590000000  0.5659870000000 1.0
C      1  0.5410380000000  0.5666020000000  0.4672720000000 1.0
C      1  0.5139020000000  0.5089830000000  0.4757730000000 1.0
C      1  0.4606790000000  0.5624120000000  0.5495910000000 1.0
C      1  0.5508890000000  0.4343960000000  0.5367150000000 1.0
C      1  0.5177800000000  0.4298150000000  0.4723510000000 1.0
C      1  0.5329310000000  0.5263530000000  0.4335620000000 1.0
C      1  0.5434620000000  0.4864350000000  0.6101990000000 1.0
C      1  0.4176610000000  0.5838400000000  0.5728730000000 1.0
C      1  0.4511400000000  0.5238220000000  0.5230880000000 1.0
C      1  0.4603730000000  0.4792090000000  0.4288250000000 1.0
C      1  0.5033120000000  0.5318200000000  0.4378990000000 1.0
C      1  0.5002260000000  0.5312600000000  0.4675570000000 1.0
C      1  0.5211440000000  0.4522670000000  0.4913790000000 1.0
C      1  0.4803160000000  0.4891180000000  0.5044750000000 1.0
C      1  0.4970910000000  0.5209410000000  0.5750010000000 1.0
C      1  0.4392670000000  0.4818530000000  0.4737750000000 1.0
C      1  0.5022240000000  0.5336040000000  0.5985520000000 1.0
C      1  0.5501800000000  0.5504600000000  0.5372170000000 1.0
C      1  0.4420070000000  0.4683280000000  0.4486490000000 1.0
C      1  0.4756390000000  0.5770440000000  0.5307080000000 1.0
C      1  0.5369290000000  0.5307840000000  0.5491280000000 1.0
C      1  0.4419260000000  0.4302030000000  0.4792900000000 1.0
C      1  0.4303840000000  0.5380210000000  0.4515360000000 1.0
C      1  0.5954910000000  0.5432570000000  0.4750700000000 1.0
C      1  0.5132190000000  0.4797290000000  0.5163560000000 1.0
C      1  0.5067120000000  0.4563240000000  0.6078990000000 1.0
C      1  0.4523890000000  0.4448370000000  0.5013330000000 1.0
C      1  0.4734980000000  0.5325470000000  0.4779210000000 1.0
C      1  0.4648870000000  0.5048990000000  0.4183340000000 1.0
C      1  0.4087270000000  0.5036010000000  0.5042150000000 1.0
C      1  0.5417500000000  0.4974160000000  0.5085720000000 1.0
C      1  0.4416490000000  0.5752140000000  0.5655250000000 1.0
C      1  0.5571420000000  0.5661690000000  0.5169480000000 1.0
C      1  0.5458770000000  0.4992900000000  0.4248750000000 1.0
C      1  0.5516500000000  0.4519860000000  0.5586650000000 1.0
C      1  0.5373350000000  0.4307960000000  0.4499310000000 1.0
C      1  0.4835770000000  0.4619230000000  0.4321570000000 1.0
C      1  0.5591420000000  0.4837950000000  0.4873310000000 1.0
C      1  0.4699340000000  0.5170420000000  0.5024780000000 1.0
C      1  0.5011240000000  0.4251180000000  0.5451770000000 1.0
C      1  0.4582560000000  0.4722020000000  0.4946510000000 1.0
C      1  0.5265190000000  0.4705970000000  0.5955500000000 1.0
C      1  0.5261180000000  0.4205510000000  0.5359040000000 1.0
C      1  0.5168120000000  0.4847350000000  0.5484620000000 1.0
C      1  0.5706040000000  0.4938010000000  0.4388510000000 1.0
C      1  0.4754740000000  0.4370410000000  0.4449510000000 1.0
C      1  0.4241440000000  0.5163920000000  0.5219200000000 1.0
C      1  0.4749940000000  0.5285620000000  0.4302820000000 1.0
C      1  0.4585200000000  0.4340960000000  0.5260200000000 1.0
C      1  0.4971530000000  0.5870130000000  0.4835020000000 1.0
C      1  0.5169490000000  0.4852510000000  0.4620740000000 1.0
C      1  0.4602820000000  0.5339960000000  0.5476930000000 1.0
C      1  0.5161880000000  0.5798050000000  0.4659720000000 1.0
C      1  0.5171030000000  0.5126450000000  0.5567270000000 1.0
C      1  0.4700480000000  0.4615490000000  0.5629340000000 1.0
C      1  0.4851020000000  0.5857080000000  0.5073130000000 1.0
C      1  0.5363540000000  0.4691960000000  0.4747420000000 1.0
C      1  0.4168380000000  0.4988600000000  0.4778360000000 1.0
C      1  0.5498250000000  0.5426890000000  0.4533200000000 1.0
C      1  0.3923120000000  0.5895840000000  0.5750090000000 1.0
C      1  0.5722160000000  0.5013330000000  0.4664490000000 1.0
C      1  0.5306570000000  0.4682930000000  0.5674800000000 1.0
C      1  0.5725590000000  0.5298430000000  0.4666260000000 1.0
C      1  0.4582340000000  0.5371350000000  0.4533080000000 1.0
C      1  0.4476990000000  0.4396110000000  0.4531580000000 1.0
C      1  0.4765000000000  0.4390080000000  0.5469500000000 1.0
C      1  0.4638580000000  0.4874470000000  0.5670820000000 1.0
C      1  0.5687300000000  0.4409490000000  0.5158390000000 1.0
C      1  0.4923830000000  0.4227800000000  0.4623790000000 1.0
C      1  0.5753230000000  0.4621520000000  0.5002660000000 1.0
END
