TITL C-612606-7351-1105 1.35246158833364 125000 -954.839481624164 0 0 155 (C1) n - 1
REM
REM in /home/nfs/bkarasulu/CARBON/AIRSS/Generating-Clusters/TERSOFF/Only-C1/FIRE-HFTN
REM
REM
REM
REM
REM
REM ./C.cell (11c1c37f851c82e70ff6c80c92926a4b)
REM AIRSS Version 0.9.1 bugfix July 2018 build 013d7b7c2542+ Fri, 06 Jul 2018 19:26:36 +0100
REM compiler GCC version 9.2.1 20190827 (Red Hat 9.2.1-1)
REM options -cpp -mtune=generic -march=x86-64 -g -O0 -fpre-include=/usr/include/finclude/math-vector-fortran.h
REM seed 1482860571 -2043994983 1788384317 -1502593626 -355676143 -1202155262 757986247 1083340313 -588367468 1914793414 -537326511 -1186807534 -798640062 809639232 -1375151157 453268418 -724909131 1935184888 -2102942270 -492361899 16024628 2119691063 -852226074 340557399 1841740920 -652695604 -279487379 -187486338 -1381724933 -914601774 1981856047 1549252285 -1139909498
REM
CELL 1.54180   50.00000   50.00000   50.00000   90.00000   90.00000   90.00000
LATT -1
SFAC C  
C      1  0.5388430000000  0.5394190000000  0.5540240000000 1.0
C      1  0.3631860000000  0.5518760000000  0.5046820000000 1.0
C      1  0.4640750000000  0.6582460000000  0.5075570000000 1.0
C      1  0.5477380000000  0.4784610000000  0.4040720000000 1.0
C      1  0.4723530000000  0.5200180000000  0.4145480000000 1.0
C      1  0.5133030000000  0.5449160000000  0.5124440000000 1.0
C      1  0.4187640000000  0.4480510000000  0.4563730000000 1.0
C      1  0.4835480000000  0.5430680000000  0.5996880000000 1.0
C      1  0.4664020000000  0.4813250000000  0.6142270000000 1.0
C      1  0.6749600000000  0.5024810000000  0.2722010000000 1.0
C      1  0.5263500000000  0.4110470000000  0.5545600000000 1.0
C      1  0.5422850000000  0.5794140000000  0.4906580000000 1.0
C      1  0.5288880000000  0.4714750000000  0.4233860000000 1.0
C      1  0.5867630000000  0.4368840000000  0.4954500000000 1.0
C      1  0.4678130000000  0.4409230000000  0.4922700000000 1.0
C      1  0.5030890000000  0.5026680000000  0.4589450000000 1.0
C      1  0.5564650000000  0.5181170000000  0.5971590000000 1.0
C      1  0.4422840000000  0.3785370000000  0.5421650000000 1.0
C      1  0.4332190000000  0.5619790000000  0.5268010000000 1.0
C      1  0.5052060000000  0.5021800000000  0.5893190000000 1.0
C      1  0.5484930000000  0.4896900000000  0.4632620000000 1.0
C      1  0.5884240000000  0.4965710000000  0.5546430000000 1.0
C      1  0.5989480000000  0.5029420000000  0.4362350000000 1.0
C      1  0.5381180000000  0.5277190000000  0.4426650000000 1.0
C      1  0.6381690000000  0.4943900000000  0.3088780000000 1.0
C      1  0.5677810000000  0.5041910000000  0.5362280000000 1.0
C      1  0.5764560000000  0.5373610000000  0.5082080000000 1.0
C      1  0.5673300000000  0.5417360000000  0.4127160000000 1.0
C      1  0.4101540000000  0.4325240000000  0.5262420000000 1.0
C      1  0.4956410000000  0.5127960000000  0.3985000000000 1.0
C      1  0.5098910000000  0.4578920000000  0.6094410000000 1.0
C      1  0.5552240000000  0.5180430000000  0.4641000000000 1.0
C      1  0.4600450000000  0.5299470000000  0.5585300000000 1.0
C      1  0.5099980000000  0.5448780000000  0.5423620000000 1.0
C      1  0.4790960000000  0.5883240000000  0.4755590000000 1.0
C      1  0.5653990000000  0.5760300000000  0.4475780000000 1.0
C      1  0.5650790000000  0.5391550000000  0.4816680000000 1.0
C      1  0.5069630000000  0.4442020000000  0.5231950000000 1.0
C      1  0.5797630000000  0.4503950000000  0.5423640000000 1.0
C      1  0.4613020000000  0.5269350000000  0.5886350000000 1.0
C      1  0.3896830000000  0.4924220000000  0.4515000000000 1.0
C      1  0.5112290000000  0.5158670000000  0.5044710000000 1.0
C      1  0.6023540000000  0.5242180000000  0.5080460000000 1.0
C      1  0.6196250000000  0.4903120000000  0.3273640000000 1.0
C      1  0.4583030000000  0.5000630000000  0.4305450000000 1.0
C      1  0.3892070000000  0.5819430000000  0.5340830000000 1.0
C      1  0.4315750000000  0.4501850000000  0.5311490000000 1.0
C      1  0.4999080000000  0.4021530000000  0.5628320000000 1.0
C      1  0.4962340000000  0.4402200000000  0.4367860000000 1.0
C      1  0.4625520000000  0.5450410000000  0.4925770000000 1.0
C      1  0.4274370000000  0.6092800000000  0.5415790000000 1.0
C      1  0.4305260000000  0.6352110000000  0.5364570000000 1.0
C      1  0.4607960000000  0.4716020000000  0.4369830000000 1.0
C      1  0.4668610000000  0.5916270000000  0.4493850000000 1.0
C      1  0.6140020000000  0.4998090000000  0.5094030000000 1.0
C      1  0.4916560000000  0.5080320000000  0.4848910000000 1.0
C      1  0.5510310000000  0.4481910000000  0.5416030000000 1.0
C      1  0.4871580000000  0.4591170000000  0.4809270000000 1.0
C      1  0.4987480000000  0.5498450000000  0.4595640000000 1.0
C      1  0.5167090000000  0.4463650000000  0.4207990000000 1.0
C      1  0.5551560000000  0.4219240000000  0.4910510000000 1.0
C      1  0.5150010000000  0.3901870000000  0.5169890000000 1.0
C      1  0.5290250000000  0.5747670000000  0.4138590000000 1.0
C      1  0.4824150000000  0.4595790000000  0.4520850000000 1.0
C      1  0.5083970000000  0.4647570000000  0.5018460000000 1.0
C      1  0.5838480000000  0.5243780000000  0.5939470000000 1.0
C      1  0.4916200000000  0.6151680000000  0.5419440000000 1.0
C      1  0.4207320000000  0.5306270000000  0.4431860000000 1.0
C      1  0.5340410000000  0.4006350000000  0.4956730000000 1.0
C      1  0.4420760000000  0.6547830000000  0.5224630000000 1.0
C      1  0.5873980000000  0.4611940000000  0.4690710000000 1.0
C      1  0.6124520000000  0.4732690000000  0.5143450000000 1.0
C      1  0.4039180000000  0.5011670000000  0.5526940000000 1.0
C      1  0.4172430000000  0.5838890000000  0.5359050000000 1.0
C      1  0.4652860000000  0.5169410000000  0.4898650000000 1.0
C      1  0.5239660000000  0.4854060000000  0.4483830000000 1.0
C      1  0.3988150000000  0.4680780000000  0.4590970000000 1.0
C      1  0.5092050000000  0.5305040000000  0.5955430000000 1.0
C      1  0.4010510000000  0.5206950000000  0.5102130000000 1.0
C      1  0.4631760000000  0.3870540000000  0.5250440000000 1.0
C      1  0.4956250000000  0.4154360000000  0.5896970000000 1.0
C      1  0.5182870000000  0.3962660000000  0.4716470000000 1.0
C      1  0.5191490000000  0.4314270000000  0.6007150000000 1.0
C      1  0.4578450000000  0.4466570000000  0.5185540000000 1.0
C      1  0.5170120000000  0.5733000000000  0.5019110000000 1.0
C      1  0.5529310000000  0.4899400000000  0.5162100000000 1.0
C      1  0.5115110000000  0.5282450000000  0.4500130000000 1.0
C      1  0.5033730000000  0.5715800000000  0.5524740000000 1.0
C      1  0.4718340000000  0.4135930000000  0.4852230000000 1.0
C      1  0.5447170000000  0.4420980000000  0.4736810000000 1.0
C      1  0.4033670000000  0.4083570000000  0.5359070000000 1.0
C      1  0.5050360000000  0.5580610000000  0.4088240000000 1.0
C      1  0.5646640000000  0.4792930000000  0.3836970000000 1.0
C      1  0.4921530000000  0.4025330000000  0.4694930000000 1.0
C      1  0.5599500000000  0.4651290000000  0.4679940000000 1.0
C      1  0.4254610000000  0.4938280000000  0.5937390000000 1.0
C      1  0.5986920000000  0.5152210000000  0.5731970000000 1.0
C      1  0.3785100000000  0.5304550000000  0.4995890000000 1.0
C      1  0.4161820000000  0.4830240000000  0.5693810000000 1.0
C      1  0.4921730000000  0.5953300000000  0.5615220000000 1.0
C      1  0.4751290000000  0.5509940000000  0.4184090000000 1.0
C      1  0.4854040000000  0.6425820000000  0.5030470000000 1.0
C      1  0.4813450000000  0.4450680000000  0.5356380000000 1.0
C      1  0.5210050000000  0.4836640000000  0.6041520000000 1.0
C      1  0.4280700000000  0.4020170000000  0.4853160000000 1.0
C      1  0.4535130000000  0.3966070000000  0.4988460000000 1.0
C      1  0.5297150000000  0.4314980000000  0.5355410000000 1.0
C      1  0.4513730000000  0.5023290000000  0.6014490000000 1.0
C      1  0.5489140000000  0.4898080000000  0.5998200000000 1.0
C      1  0.6567170000000  0.4984690000000  0.2903870000000 1.0
C      1  0.3679540000000  0.5728380000000  0.5207250000000 1.0
C      1  0.6010830000000  0.4862370000000  0.3458520000000 1.0
C      1  0.4366880000000  0.5370880000000  0.5417930000000 1.0
C      1  0.5172570000000  0.5315290000000  0.4003240000000 1.0
C      1  0.4933160000000  0.6178160000000  0.5137950000000 1.0
C      1  0.5181360000000  0.4849840000000  0.5462250000000 1.0
C      1  0.5957110000000  0.4502960000000  0.5187240000000 1.0
C      1  0.4526470000000  0.4536070000000  0.5729070000000 1.0
C      1  0.4396010000000  0.4280520000000  0.4204670000000 1.0
C      1  0.5611900000000  0.5323350000000  0.5339190000000 1.0
C      1  0.5838980000000  0.4698880000000  0.5641530000000 1.0
C      1  0.4802610000000  0.5708940000000  0.6029050000000 1.0
C      1  0.3952200000000  0.5179740000000  0.4436350000000 1.0
C      1  0.4820510000000  0.5932020000000  0.5877040000000 1.0
C      1  0.5894140000000  0.5248870000000  0.4221990000000 1.0
C      1  0.4150850000000  0.5189670000000  0.5345720000000 1.0
C      1  0.6012410000000  0.4805180000000  0.4524460000000 1.0
C      1  0.4998390000000  0.4999800000000  0.5611990000000 1.0
C      1  0.5575740000000  0.5688990000000  0.4211400000000 1.0
C      1  0.4802370000000  0.5597430000000  0.4769370000000 1.0
C      1  0.4206440000000  0.4180510000000  0.4624800000000 1.0
C      1  0.4251300000000  0.5669570000000  0.4747870000000 1.0
C      1  0.5437120000000  0.4209760000000  0.6061500000000 1.0
C      1  0.4738990000000  0.4287390000000  0.6048470000000 1.0
C      1  0.5598610000000  0.5662240000000  0.4734040000000 1.0
C      1  0.5587960000000  0.4731880000000  0.5793330000000 1.0
C      1  0.4308450000000  0.4619150000000  0.5576390000000 1.0
C      1  0.5826150000000  0.4822940000000  0.3644410000000 1.0
C      1  0.4445310000000  0.5045190000000  0.4761440000000 1.0
C      1  0.4402920000000  0.5112200000000  0.4491640000000 1.0
C      1  0.4768470000000  0.4496920000000  0.5624240000000 1.0
C      1  0.5366030000000  0.5349330000000  0.5840210000000 1.0
C      1  0.5226620000000  0.4897600000000  0.5157550000000 1.0
C      1  0.4559640000000  0.5678890000000  0.4348760000000 1.0
C      1  0.4291080000000  0.4078390000000  0.4362300000000 1.0
C      1  0.5421410000000  0.5275080000000  0.4142010000000 1.0
C      1  0.4386700000000  0.4535530000000  0.4343000000000 1.0
C      1  0.4806410000000  0.4566020000000  0.6136710000000 1.0
C      1  0.4306520000000  0.5574010000000  0.4477020000000 1.0
C      1  0.4905480000000  0.3907680000000  0.5358420000000 1.0
C      1  0.4880650000000  0.5241590000000  0.5499440000000 1.0
C      1  0.4969960000000  0.5949770000000  0.4973010000000 1.0
C      1  0.5388820000000  0.4688710000000  0.5583000000000 1.0
C      1  0.4387800000000  0.5592330000000  0.4988270000000 1.0
C      1  0.4168350000000  0.3868790000000  0.5448380000000 1.0
END
