TITL C-612603-7354-26 -1.1489434003808e-06 125000 -147.386863862846 0 0 27 (C1) n - 1
REM
REM in /home/nfs/bkarasulu/CARBON/AIRSS/Generating-Clusters/TERSOFF/Only-C1/FIRE-HFTN
REM
REM
REM
REM
REM
REM ./C.cell (11c1c37f851c82e70ff6c80c92926a4b)
REM AIRSS Version 0.9.1 bugfix July 2018 build 013d7b7c2542+ Fri, 06 Jul 2018 19:26:36 +0100
REM compiler GCC version 9.2.1 20190827 (Red Hat 9.2.1-1)
REM options -cpp -mtune=generic -march=x86-64 -g -O0 -fpre-include=/usr/include/finclude/math-vector-fortran.h
REM seed 1673792783 -1488396465 621195586 -1781655579 692231171 -1764873571 27819249 498717110 -713681645 80507295 -1737448166 652791680 1488730088 1405619032 10427263 -1223251363 1546227123 923492765 -136360884 -910191114 -462585583 -1888826855 -533810761 734960011 -1745277826 -1114691715 724009204 471135587 -271294359 1923355463 -2056673602 -1734858387 -2010211471
REM
CELL 1.54180   50.00000   50.00000   50.00000   90.00000   90.00000   90.00000
LATT -1
SFAC C  
C      1  0.5123030000000  0.5478150000000  0.5083490000000 1.0
C      1  0.4794730000000  0.4525280000000  0.4975870000000 1.0
C      1  0.4988210000000  0.5165460000000  0.5442700000000 1.0
C      1  0.5293580000000  0.5188660000000  0.5450170000000 1.0
C      1  0.5453770000000  0.5195300000000  0.5181820000000 1.0
C      1  0.4812170000000  0.4673790000000  0.5439280000000 1.0
C      1  0.5234140000000  0.5064850000000  0.4612090000000 1.0
C      1  0.4762880000000  0.4960900000000  0.5468670000000 1.0
C      1  0.4649180000000  0.4540810000000  0.5227750000000 1.0
C      1  0.4724130000000  0.5283450000000  0.4970870000000 1.0
C      1  0.4736310000000  0.4583570000000  0.4705760000000 1.0
C      1  0.5271810000000  0.4588070000000  0.4816170000000 1.0
C      1  0.5091540000000  0.4946800000000  0.5058980000000 1.0
C      1  0.4805380000000  0.5304570000000  0.4696860000000 1.0
C      1  0.5392750000000  0.4848450000000  0.4752110000000 1.0
C      1  0.5479490000000  0.5491200000000  0.4500960000000 1.0
C      1  0.4473080000000  0.4958780000000  0.4792880000000 1.0
C      1  0.4520580000000  0.5037790000000  0.5315690000000 1.0
C      1  0.4928940000000  0.5059560000000  0.4591220000000 1.0
C      1  0.5080430000000  0.4581420000000  0.5354740000000 1.0
C      1  0.5379850000000  0.5406180000000  0.4981320000000 1.0
C      1  0.4507710000000  0.5109230000000  0.5037190000000 1.0
C      1  0.5392440000000  0.4964330000000  0.5022690000000 1.0
C      1  0.4704220000000  0.4857580000000  0.4637070000000 1.0
C      1  0.4959050000000  0.5227670000000  0.5142830000000 1.0
C      1  0.5369640000000  0.5329840000000  0.4693400000000 1.0
C      1  0.5070960000000  0.4628300000000  0.5047430000000 1.0
END
