TITL C-612600-6631-562 -1.08475603474626e-05 125000 -218.881995062967 0 0 38 (C1) n - 1
REM
REM in /home/nfs/bkarasulu/CARBON/AIRSS/Generating-Clusters/TERSOFF/Only-C1/FIRE-HFTN
REM
REM
REM
REM
REM
REM ./C.cell (11c1c37f851c82e70ff6c80c92926a4b)
REM AIRSS Version 0.9.1 bugfix July 2018 build 013d7b7c2542+ Fri, 06 Jul 2018 19:26:36 +0100
REM compiler GCC version 9.2.1 20190827 (Red Hat 9.2.1-1)
REM options -cpp -mtune=generic -march=x86-64 -g -O0 -fpre-include=/usr/include/finclude/math-vector-fortran.h
REM seed -132487496 -1806771801 -1017080578 -1354348807 -1085360687 795922568 -912947552 -1353070440 -986959941 1508068000 -342793957 1175581238 1360040874 1237550721 -1939804595 1055389215 861135359 -823847998 -549293118 1051379901 1832289335 -1346454869 -759779344 -308655952 1933062242 1873850742 -368749348 -823431177 -1866275877 -1600545069 -1039523557 -1439956163 1419362044
REM
CELL 1.54180   50.00000   50.00000   50.00000   90.00000   90.00000   90.00000
LATT -1
SFAC C  
C      1  0.4509480000000  0.5094580000000  0.4674890000000 1.0
C      1  0.4923350000000  0.4543400000000  0.4707540000000 1.0
C      1  0.5651190000000  0.4638850000000  0.5444260000000 1.0
C      1  0.5398810000000  0.5154770000000  0.4519260000000 1.0
C      1  0.4362230000000  0.5170940000000  0.4911790000000 1.0
C      1  0.4435820000000  0.4808850000000  0.5314210000000 1.0
C      1  0.5919400000000  0.4609290000000  0.5487930000000 1.0
C      1  0.5258220000000  0.4798700000000  0.5775350000000 1.0
C      1  0.5331460000000  0.5575760000000  0.4829930000000 1.0
C      1  0.5180600000000  0.5277690000000  0.4375690000000 1.0
C      1  0.4538610000000  0.4909260000000  0.5563120000000 1.0
C      1  0.5542340000000  0.4595750000000  0.5188800000000 1.0
C      1  0.5040500000000  0.4824010000000  0.4349960000000 1.0
C      1  0.4917280000000  0.4975800000000  0.5304180000000 1.0
C      1  0.4949400000000  0.4950030000000  0.5026300000000 1.0
C      1  0.4696850000000  0.5181390000000  0.4474990000000 1.0
C      1  0.4908360000000  0.5560140000000  0.5006380000000 1.0
C      1  0.5334190000000  0.4716590000000  0.4750390000000 1.0
C      1  0.5162110000000  0.5559900000000  0.4381910000000 1.0
C      1  0.4558500000000  0.4821180000000  0.4733180000000 1.0
C      1  0.4726660000000  0.5566860000000  0.5214410000000 1.0
C      1  0.5007170000000  0.4890000000000  0.5762730000000 1.0
C      1  0.4822920000000  0.4451270000000  0.5210440000000 1.0
C      1  0.4915640000000  0.5737130000000  0.4775140000000 1.0
C      1  0.4566600000000  0.5600120000000  0.5417390000000 1.0
C      1  0.4953210000000  0.5100950000000  0.4362490000000 1.0
C      1  0.5354350000000  0.5004340000000  0.4757880000000 1.0
C      1  0.5158090000000  0.5400990000000  0.4988840000000 1.0
C      1  0.5161070000000  0.5122350000000  0.4934630000000 1.0
C      1  0.5083820000000  0.4456640000000  0.5127460000000 1.0
C      1  0.4574690000000  0.4564700000000  0.5239300000000 1.0
C      1  0.5479410000000  0.4713010000000  0.5654090000000 1.0
C      1  0.4331540000000  0.5007770000000  0.5132640000000 1.0
C      1  0.5136980000000  0.4636560000000  0.4546690000000 1.0
C      1  0.5325580000000  0.4571350000000  0.5010400000000 1.0
C      1  0.5163710000000  0.5704080000000  0.4624670000000 1.0
C      1  0.4818280000000  0.4950140000000  0.5566300000000 1.0
C      1  0.4801560000000  0.4754860000000  0.4854410000000 1.0
END
