TITL C-612606-7351-815 0.0771523638859663 125000 -96.4944817090529 0 0 18 (C1) n - 1
REM
REM in /home/nfs/bkarasulu/CARBON/AIRSS/Generating-Clusters/TERSOFF/Only-C1/FIRE-HFTN
REM
REM
REM
REM
REM
REM ./C.cell (11c1c37f851c82e70ff6c80c92926a4b)
REM AIRSS Version 0.9.1 bugfix July 2018 build 013d7b7c2542+ Fri, 06 Jul 2018 19:26:36 +0100
REM compiler GCC version 9.2.1 20190827 (Red Hat 9.2.1-1)
REM options -cpp -mtune=generic -march=x86-64 -g -O0 -fpre-include=/usr/include/finclude/math-vector-fortran.h
REM seed 2000325865 307178126 548446944 -1791927260 -945217460 986741469 -1067066460 105395610 175113557 -721582160 2139668078 1084789096 731321837 1200154783 -25841245 2084675133 1136084225 246412546 -398222514 -403104311 483854048 -740264095 484507631 43799475 1753016510 1490516501 -669416691 456913390 1344611042 694656185 1554727078 778773597 1259400245
REM
CELL 1.54180   50.00000   50.00000   50.00000   90.00000   90.00000   90.00000
LATT -1
SFAC C  
C      1  0.4932540000000  0.5461300000000  0.4643320000000 1.0
C      1  0.5110230000000  0.4553800000000  0.5217240000000 1.0
C      1  0.4473880000000  0.6308350000000  0.5109110000000 1.0
C      1  0.5341940000000  0.4099010000000  0.4689780000000 1.0
C      1  0.4812810000000  0.5682460000000  0.4764860000000 1.0
C      1  0.5064380000000  0.4787100000000  0.5070700000000 1.0
C      1  0.4699270000000  0.5892140000000  0.4880200000000 1.0
C      1  0.5018880000000  0.4545520000000  0.5753700000000 1.0
C      1  0.5296220000000  0.4093950000000  0.4959700000000 1.0
C      1  0.5340570000000  0.3866130000000  0.5104960000000 1.0
C      1  0.4585640000000  0.6101970000000  0.4995600000000 1.0
C      1  0.5075980000000  0.5483770000000  0.4123220000000 1.0
C      1  0.5063170000000  0.4550160000000  0.5492520000000 1.0
C      1  0.5006750000000  0.5472930000000  0.4374250000000 1.0
C      1  0.5021220000000  0.5007830000000  0.4930790000000 1.0
C      1  0.4978070000000  0.5228530000000  0.4790830000000 1.0
C      1  0.5203120000000  0.4324170000000  0.5088530000000 1.0
C      1  0.4975330000000  0.4540900000000  0.6010690000000 1.0
END
