TITL C-612603-7354-435 1.39662251818891e-05 125000 -918.59117959914 0 0 149 (C1) n - 1
REM
REM in /home/nfs/bkarasulu/CARBON/AIRSS/Generating-Clusters/TERSOFF/Only-C1/FIRE-HFTN
REM
REM
REM
REM
REM
REM ./C.cell (11c1c37f851c82e70ff6c80c92926a4b)
REM AIRSS Version 0.9.1 bugfix July 2018 build 013d7b7c2542+ Fri, 06 Jul 2018 19:26:36 +0100
REM compiler GCC version 9.2.1 20190827 (Red Hat 9.2.1-1)
REM options -cpp -mtune=generic -march=x86-64 -g -O0 -fpre-include=/usr/include/finclude/math-vector-fortran.h
REM seed 1242952587 -1254101234 -1624754868 2131834096 -428506006 1035828467 932430478 -1945591550 417728993 40939385 -401541922 1622421847 1429818125 -1529612279 1643508816 1336760229 1772773210 70829619 -806552612 1294996774 -1668885754 -1348630111 2128044384 1931297060 612090525 -1384772597 843195605 -1643581375 1062158710 1093812463 -1514592475 -1394773102 1308719543
REM
CELL 1.54180   50.00000   50.00000   50.00000   90.00000   90.00000   90.00000
LATT -1
SFAC C  
C      1  0.4401100000000  0.5978630000000  0.5398170000000 1.0
C      1  0.5613910000000  0.5356380000000  0.4112420000000 1.0
C      1  0.5079100000000  0.5659760000000  0.5544930000000 1.0
C      1  0.4919200000000  0.5117520000000  0.4452130000000 1.0
C      1  0.4093320000000  0.4924840000000  0.4806950000000 1.0
C      1  0.5175640000000  0.4633460000000  0.4352280000000 1.0
C      1  0.5934870000000  0.4357170000000  0.4846970000000 1.0
C      1  0.5386830000000  0.5179590000000  0.5306700000000 1.0
C      1  0.5665860000000  0.4929060000000  0.5629830000000 1.0
C      1  0.4720340000000  0.5317760000000  0.4458410000000 1.0
C      1  0.4486560000000  0.5529060000000  0.4822070000000 1.0
C      1  0.5800100000000  0.5905730000000  0.5084480000000 1.0
C      1  0.4882600000000  0.4151580000000  0.4599330000000 1.0
C      1  0.6003300000000  0.5179480000000  0.5281580000000 1.0
C      1  0.5653320000000  0.4721880000000  0.5826110000000 1.0
C      1  0.3896900000000  0.4745980000000  0.4892750000000 1.0
C      1  0.4848490000000  0.6039110000000  0.5797200000000 1.0
C      1  0.5647500000000  0.5883600000000  0.5306930000000 1.0
C      1  0.5393590000000  0.5350370000000  0.5739490000000 1.0
C      1  0.5272940000000  0.4163280000000  0.4262640000000 1.0
C      1  0.4431640000000  0.4853590000000  0.5399330000000 1.0
C      1  0.5681550000000  0.4282300000000  0.4733260000000 1.0
C      1  0.6017410000000  0.5741330000000  0.5008100000000 1.0
C      1  0.5788350000000  0.4660350000000  0.4441190000000 1.0
C      1  0.3916920000000  0.4099010000000  0.5265120000000 1.0
C      1  0.6156340000000  0.5637280000000  0.5233320000000 1.0
C      1  0.5635940000000  0.5329960000000  0.4401950000000 1.0
C      1  0.5412530000000  0.4030120000000  0.4062460000000 1.0
C      1  0.5010710000000  0.5928050000000  0.5612940000000 1.0
C      1  0.6042150000000  0.5111450000000  0.4994170000000 1.0
C      1  0.5132250000000  0.4504050000000  0.6040670000000 1.0
C      1  0.5356290000000  0.5592970000000  0.5601260000000 1.0
C      1  0.5439600000000  0.5547900000000  0.3987550000000 1.0
C      1  0.4550790000000  0.4709000000000  0.5616040000000 1.0
C      1  0.4338950000000  0.4670430000000  0.4476420000000 1.0
C      1  0.4217460000000  0.4798180000000  0.4249030000000 1.0
C      1  0.4361350000000  0.4114930000000  0.4117600000000 1.0
C      1  0.5846730000000  0.5540540000000  0.5602260000000 1.0
C      1  0.4591370000000  0.6357490000000  0.4407430000000 1.0
C      1  0.5859310000000  0.5175980000000  0.4516120000000 1.0
C      1  0.4842790000000  0.5259080000000  0.5981200000000 1.0
C      1  0.5170980000000  0.4362000000000  0.5172620000000 1.0
C      1  0.4292660000000  0.4702220000000  0.5220380000000 1.0
C      1  0.4799150000000  0.6071000000000  0.5105470000000 1.0
C      1  0.5092600000000  0.4586590000000  0.5024600000000 1.0
C      1  0.4600480000000  0.5282930000000  0.4732040000000 1.0
C      1  0.6013040000000  0.5564360000000  0.4789230000000 1.0
C      1  0.5311850000000  0.5752200000000  0.4132420000000 1.0
C      1  0.5199490000000  0.5813800000000  0.4929900000000 1.0
C      1  0.5360570000000  0.4415040000000  0.4366420000000 1.0
C      1  0.5890100000000  0.4917560000000  0.4368840000000 1.0
C      1  0.4197480000000  0.5369090000000  0.5703780000000 1.0
C      1  0.4278710000000  0.4922540000000  0.5955210000000 1.0
C      1  0.4603490000000  0.3926670000000  0.5172780000000 1.0
C      1  0.4189020000000  0.5168200000000  0.5898630000000 1.0
C      1  0.5410460000000  0.5087750000000  0.5596400000000 1.0
C      1  0.4132280000000  0.3992210000000  0.5408380000000 1.0
C      1  0.5988510000000  0.4836610000000  0.4921000000000 1.0
C      1  0.4522570000000  0.5393510000000  0.4265900000000 1.0
C      1  0.3794100000000  0.4521790000000  0.4991490000000 1.0
C      1  0.4921020000000  0.4632800000000  0.4502740000000 1.0
C      1  0.5225840000000  0.5246380000000  0.3636890000000 1.0
C      1  0.4940090000000  0.4364650000000  0.5584100000000 1.0
C      1  0.5610460000000  0.5696710000000  0.5515380000000 1.0
C      1  0.5139830000000  0.4345520000000  0.5798790000000 1.0
C      1  0.4206870000000  0.5816520000000  0.5524220000000 1.0
C      1  0.4277200000000  0.5473020000000  0.4402550000000 1.0
C      1  0.4476140000000  0.4420410000000  0.4474120000000 1.0
C      1  0.4015410000000  0.5701310000000  0.5343320000000 1.0
C      1  0.4847950000000  0.5465860000000  0.5550090000000 1.0
C      1  0.4525360000000  0.5154020000000  0.3808380000000 1.0
C      1  0.4875780000000  0.5976320000000  0.4335440000000 1.0
C      1  0.5035430000000  0.4060140000000  0.4375540000000 1.0
C      1  0.3994740000000  0.5360780000000  0.4979710000000 1.0
C      1  0.5551300000000  0.3910540000000  0.3877110000000 1.0
C      1  0.4733240000000  0.5249900000000  0.5379380000000 1.0
C      1  0.4324730000000  0.4434850000000  0.5947390000000 1.0
C      1  0.6365290000000  0.4535770000000  0.4990650000000 1.0
C      1  0.4430120000000  0.4903230000000  0.3803320000000 1.0
C      1  0.4968800000000  0.4231150000000  0.5322970000000 1.0
C      1  0.5357010000000  0.5346920000000  0.5101540000000 1.0
C      1  0.5900910000000  0.5490480000000  0.5882420000000 1.0
C      1  0.4348970000000  0.5664300000000  0.4605390000000 1.0
C      1  0.5034530000000  0.6013840000000  0.4991780000000 1.0
C      1  0.5640900000000  0.5090040000000  0.3996510000000 1.0
C      1  0.5380110000000  0.5273950000000  0.4508400000000 1.0
C      1  0.5989270000000  0.5283490000000  0.4757990000000 1.0
C      1  0.5874150000000  0.4957840000000  0.4085300000000 1.0
C      1  0.5624170000000  0.4446760000000  0.5769240000000 1.0
C      1  0.4347710000000  0.4837340000000  0.4711150000000 1.0
C      1  0.5327490000000  0.5475710000000  0.3736790000000 1.0
C      1  0.5108240000000  0.5882850000000  0.4244700000000 1.0
C      1  0.4073120000000  0.5040300000000  0.4297860000000 1.0
C      1  0.4459220000000  0.5141000000000  0.5378190000000 1.0
C      1  0.5410720000000  0.4282010000000  0.5737330000000 1.0
C      1  0.5713260000000  0.4845880000000  0.4848910000000 1.0
C      1  0.5653420000000  0.5071590000000  0.6147440000000 1.0
C      1  0.5294810000000  0.5568320000000  0.4967980000000 1.0
C      1  0.5605760000000  0.4670020000000  0.5259930000000 1.0
C      1  0.4537680000000  0.5667480000000  0.5871910000000 1.0
C      1  0.4590020000000  0.4984510000000  0.4748100000000 1.0
C      1  0.4549170000000  0.5346480000000  0.3992740000000 1.0
C      1  0.4190110000000  0.4034270000000  0.4558330000000 1.0
C      1  0.4632480000000  0.6087490000000  0.4423660000000 1.0
C      1  0.5610800000000  0.4443620000000  0.4502500000000 1.0
C      1  0.4975520000000  0.4043760000000  0.4852100000000 1.0
C      1  0.6104240000000  0.4576380000000  0.4921560000000 1.0
C      1  0.5434220000000  0.4257450000000  0.5147890000000 1.0
C      1  0.4045940000000  0.3855730000000  0.4681850000000 1.0
C      1  0.5245140000000  0.4796410000000  0.4961540000000 1.0
C      1  0.5159550000000  0.4954870000000  0.5701300000000 1.0
C      1  0.5024650000000  0.5066420000000  0.5927490000000 1.0
C      1  0.4820980000000  0.4883980000000  0.4592940000000 1.0
C      1  0.4358610000000  0.3900370000000  0.5271730000000 1.0
C      1  0.4845420000000  0.4055640000000  0.5119570000000 1.0
C      1  0.5887030000000  0.4994550000000  0.5464630000000 1.0
C      1  0.4222910000000  0.5288610000000  0.5426560000000 1.0
C      1  0.4990990000000  0.4844300000000  0.5503710000000 1.0
C      1  0.4088390000000  0.5266200000000  0.4472580000000 1.0
C      1  0.4576420000000  0.5921500000000  0.5185790000000 1.0
C      1  0.6085580000000  0.5654330000000  0.6004600000000 1.0
C      1  0.5187180000000  0.5110510000000  0.4386420000000 1.0
C      1  0.4034140000000  0.5200250000000  0.4751530000000 1.0
C      1  0.5513390000000  0.4807120000000  0.5031810000000 1.0
C      1  0.4341070000000  0.4188230000000  0.4380650000000 1.0
C      1  0.4059970000000  0.5437920000000  0.5242240000000 1.0
C      1  0.5548700000000  0.4816070000000  0.6078920000000 1.0
C      1  0.4304720000000  0.4751750000000  0.3986140000000 1.0
C      1  0.5258640000000  0.3976830000000  0.4832480000000 1.0
C      1  0.4911370000000  0.5037980000000  0.5313120000000 1.0
C      1  0.4226900000000  0.4196480000000  0.5880820000000 1.0
C      1  0.6026400000000  0.5444450000000  0.5393490000000 1.0
C      1  0.5779620000000  0.5287710000000  0.6043460000000 1.0
C      1  0.5311210000000  0.4676360000000  0.6157340000000 1.0
C      1  0.4285010000000  0.5639720000000  0.5741900000000 1.0
C      1  0.5390670000000  0.4942110000000  0.3979500000000 1.0
C      1  0.4730930000000  0.5460950000000  0.5819060000000 1.0
C      1  0.5626220000000  0.4403690000000  0.5285280000000 1.0
C      1  0.5242600000000  0.4998580000000  0.3745000000000 1.0
C      1  0.4818320000000  0.4626550000000  0.5572120000000 1.0
C      1  0.4643640000000  0.5922850000000  0.5929440000000 1.0
C      1  0.4753790000000  0.4401810000000  0.4545710000000 1.0
C      1  0.5485400000000  0.4139360000000  0.4893360000000 1.0
C      1  0.4149430000000  0.4033980000000  0.5684840000000 1.0
C      1  0.5259850000000  0.4881270000000  0.4228750000000 1.0
C      1  0.4399250000000  0.4688200000000  0.5856340000000 1.0
C      1  0.4432300000000  0.5920690000000  0.4529860000000 1.0
C      1  0.3800610000000  0.4290300000000  0.5121890000000 1.0
C      1  0.4539950000000  0.5677150000000  0.5050210000000 1.0
END
