TITL C-612605-9286-225 0.00932419658948603 125000 -1224.75357217645 0 0 198 (C1) n - 1
REM
REM in /home/nfs/bkarasulu/CARBON/AIRSS/Generating-Clusters/TERSOFF/Only-C1/FIRE-HFTN
REM
REM
REM
REM
REM
REM ./C.cell (11c1c37f851c82e70ff6c80c92926a4b)
REM AIRSS Version 0.9.1 bugfix July 2018 build 013d7b7c2542+ Fri, 06 Jul 2018 19:26:36 +0100
REM compiler GCC version 9.2.1 20190827 (Red Hat 9.2.1-1)
REM options -cpp -mtune=generic -march=x86-64 -g -O0 -fpre-include=/usr/include/finclude/math-vector-fortran.h
REM seed -1709304608 -572505696 1653156077 860389021 554713330 -1081993043 1497381490 104673779 425262755 2079175176 169543326 -1636999558 1696176368 -229200609 1822968537 -228947352 -1283247996 -999916232 -1692515532 -942386575 -997922162 -720239116 1742632969 899726436 1218651779 -1420793308 1907112951 665032281 -1279470131 -1385566950 -150082681 -1179255459 267621239
REM
CELL 1.54180   50.00000   50.00000   50.00000   90.00000   90.00000   90.00000
LATT -1
SFAC C  
C      1  0.3468800000000  0.4661660000000  0.5529970000000 1.0
C      1  0.3821810000000  0.5273200000000  0.5124350000000 1.0
C      1  0.4072330000000  0.4401540000000  0.6067150000000 1.0
C      1  0.6913530000000  0.5853640000000  0.5476820000000 1.0
C      1  0.5017430000000  0.5975080000000  0.4339800000000 1.0
C      1  0.5496810000000  0.4758570000000  0.5699800000000 1.0
C      1  0.6759130000000  0.6009660000000  0.5298520000000 1.0
C      1  0.6153240000000  0.5782220000000  0.4978030000000 1.0
C      1  0.4879220000000  0.5292110000000  0.4520560000000 1.0
C      1  0.4736410000000  0.5587990000000  0.4851360000000 1.0
C      1  0.4227730000000  0.4564470000000  0.6216060000000 1.0
C      1  0.5928410000000  0.5450930000000  0.4289930000000 1.0
C      1  0.5800230000000  0.5377330000000  0.5475120000000 1.0
C      1  0.4874760000000  0.4406240000000  0.4965430000000 1.0
C      1  0.5769550000000  0.4447560000000  0.3975200000000 1.0
C      1  0.3721710000000  0.5436340000000  0.4375820000000 1.0
C      1  0.5272580000000  0.3966370000000  0.5378730000000 1.0
C      1  0.4997920000000  0.5611490000000  0.5404490000000 1.0
C      1  0.3894920000000  0.4642330000000  0.4983780000000 1.0
C      1  0.5516870000000  0.5356600000000  0.5070790000000 1.0
C      1  0.6041590000000  0.5241580000000  0.5022100000000 1.0
C      1  0.3614410000000  0.4958490000000  0.4401620000000 1.0
C      1  0.6543800000000  0.5589430000000  0.5754010000000 1.0
C      1  0.5607080000000  0.4885030000000  0.6247060000000 1.0
C      1  0.4075800000000  0.4865010000000  0.4975600000000 1.0
C      1  0.6009270000000  0.4413490000000  0.4841030000000 1.0
C      1  0.4613330000000  0.5652670000000  0.4358950000000 1.0
C      1  0.5215890000000  0.5349840000000  0.6018480000000 1.0
C      1  0.4913250000000  0.5367510000000  0.5515760000000 1.0
C      1  0.4365810000000  0.4866120000000  0.4973520000000 1.0
C      1  0.4978280000000  0.4020690000000  0.4256520000000 1.0
C      1  0.7186270000000  0.5863750000000  0.5475030000000 1.0
C      1  0.5514180000000  0.4495400000000  0.4450230000000 1.0
C      1  0.3956760000000  0.5599090000000  0.4392840000000 1.0
C      1  0.4452430000000  0.5585870000000  0.5574650000000 1.0
C      1  0.4023340000000  0.5610590000000  0.5338060000000 1.0
C      1  0.3836090000000  0.5185190000000  0.5415410000000 1.0
C      1  0.4404770000000  0.5418750000000  0.5111560000000 1.0
C      1  0.4761520000000  0.4722880000000  0.3922740000000 1.0
C      1  0.4373040000000  0.4986330000000  0.5469950000000 1.0
C      1  0.4641140000000  0.5371380000000  0.5602030000000 1.0
C      1  0.5465120000000  0.4046930000000  0.4140820000000 1.0
C      1  0.5532480000000  0.5553060000000  0.4645190000000 1.0
C      1  0.5976620000000  0.5402730000000  0.5250250000000 1.0
C      1  0.5028030000000  0.4893430000000  0.3546510000000 1.0
C      1  0.3869450000000  0.5567070000000  0.5096530000000 1.0
C      1  0.4057790000000  0.4036580000000  0.5151650000000 1.0
C      1  0.4916590000000  0.4900720000000  0.5072550000000 1.0
C      1  0.5022170000000  0.5235320000000  0.6167030000000 1.0
C      1  0.5347820000000  0.5630520000000  0.4452390000000 1.0
C      1  0.5302160000000  0.4871810000000  0.4626950000000 1.0
C      1  0.6487540000000  0.6049880000000  0.5240180000000 1.0
C      1  0.4681310000000  0.5373240000000  0.5047230000000 1.0
C      1  0.5973270000000  0.4716500000000  0.5268040000000 1.0
C      1  0.5662850000000  0.4291240000000  0.5203010000000 1.0
C      1  0.4505670000000  0.5134360000000  0.5668630000000 1.0
C      1  0.4635660000000  0.5450560000000  0.4579160000000 1.0
C      1  0.4919720000000  0.4869040000000  0.5537250000000 1.0
C      1  0.5290130000000  0.5135010000000  0.4718380000000 1.0
C      1  0.4884530000000  0.4473600000000  0.4033520000000 1.0
C      1  0.6059910000000  0.4547010000000  0.5493410000000 1.0
C      1  0.4804470000000  0.4457880000000  0.5242450000000 1.0
C      1  0.5547820000000  0.5116000000000  0.5231940000000 1.0
C      1  0.5544610000000  0.4742210000000  0.4579730000000 1.0
C      1  0.3512880000000  0.6154880000000  0.4894850000000 1.0
C      1  0.3906690000000  0.4196000000000  0.5604620000000 1.0
C      1  0.5952020000000  0.4240800000000  0.5863740000000 1.0
C      1  0.4864470000000  0.5159780000000  0.4977600000000 1.0
C      1  0.4369050000000  0.4391590000000  0.5073530000000 1.0
C      1  0.6095910000000  0.5658240000000  0.5238960000000 1.0
C      1  0.4921300000000  0.5782940000000  0.4948370000000 1.0
C      1  0.3870830000000  0.5747940000000  0.4870780000000 1.0
C      1  0.4115100000000  0.5609930000000  0.4158750000000 1.0
C      1  0.5460350000000  0.5078260000000  0.4013070000000 1.0
C      1  0.6364010000000  0.5974050000000  0.4994260000000 1.0
C      1  0.4030120000000  0.5508080000000  0.5803460000000 1.0
C      1  0.5059180000000  0.4783780000000  0.4502110000000 1.0
C      1  0.4238260000000  0.5320140000000  0.4895820000000 1.0
C      1  0.3916860000000  0.5434240000000  0.5554800000000 1.0
C      1  0.5234970000000  0.5243640000000  0.4060630000000 1.0
C      1  0.4872330000000  0.3768840000000  0.4210530000000 1.0
C      1  0.4463130000000  0.4973610000000  0.4719410000000 1.0
C      1  0.4039360000000  0.5747530000000  0.4629810000000 1.0
C      1  0.5408380000000  0.5415060000000  0.5841310000000 1.0
C      1  0.3964240000000  0.4269250000000  0.5858160000000 1.0
C      1  0.5062190000000  0.5119050000000  0.5476940000000 1.0
C      1  0.4161860000000  0.4818130000000  0.5562190000000 1.0
C      1  0.5712530000000  0.4906060000000  0.5811900000000 1.0
C      1  0.4763670000000  0.4758880000000  0.5288870000000 1.0
C      1  0.5188620000000  0.4833580000000  0.5106810000000 1.0
C      1  0.4915430000000  0.6035890000000  0.4811990000000 1.0
C      1  0.5743190000000  0.4686880000000  0.6395220000000 1.0
C      1  0.4861070000000  0.4213040000000  0.5387930000000 1.0
C      1  0.4990520000000  0.4717200000000  0.5769840000000 1.0
C      1  0.5272900000000  0.5718130000000  0.4019420000000 1.0
C      1  0.5563480000000  0.5770880000000  0.4001690000000 1.0
C      1  0.4465970000000  0.5076900000000  0.5937090000000 1.0
C      1  0.5864420000000  0.4457630000000  0.6326390000000 1.0
C      1  0.4575180000000  0.4817540000000  0.4521190000000 1.0
C      1  0.4794700000000  0.4247640000000  0.4204510000000 1.0
C      1  0.5352560000000  0.4075360000000  0.4619920000000 1.0
C      1  0.5579030000000  0.4258830000000  0.4596700000000 1.0
C      1  0.4813790000000  0.5084650000000  0.6250480000000 1.0
C      1  0.5182170000000  0.4117890000000  0.6073280000000 1.0
C      1  0.6773290000000  0.5687050000000  0.5656590000000 1.0
C      1  0.5218580000000  0.4089510000000  0.4879370000000 1.0
C      1  0.5488540000000  0.4501410000000  0.5243100000000 1.0
C      1  0.4544700000000  0.5906390000000  0.4481980000000 1.0
C      1  0.5833840000000  0.4254950000000  0.4713830000000 1.0
C      1  0.3620320000000  0.4742720000000  0.4556160000000 1.0
C      1  0.3719560000000  0.4689360000000  0.5425940000000 1.0
C      1  0.3732170000000  0.5172380000000  0.4264090000000 1.0
C      1  0.3729830000000  0.4610850000000  0.4759500000000 1.0
C      1  0.4825220000000  0.3969660000000  0.5209520000000 1.0
C      1  0.5603810000000  0.5424610000000  0.5655570000000 1.0
C      1  0.6005580000000  0.5710850000000  0.4738540000000 1.0
C      1  0.4748900000000  0.4440740000000  0.4723330000000 1.0
C      1  0.4563190000000  0.4972890000000  0.6178130000000 1.0
C      1  0.4508030000000  0.4820670000000  0.4011280000000 1.0
C      1  0.6261680000000  0.5595860000000  0.5720550000000 1.0
C      1  0.4493530000000  0.4878080000000  0.5235780000000 1.0
C      1  0.4779770000000  0.5627230000000  0.4115860000000 1.0
C      1  0.4560550000000  0.3862890000000  0.5212370000000 1.0
C      1  0.4527900000000  0.4289320000000  0.4626020000000 1.0
C      1  0.5364910000000  0.4501870000000  0.4212310000000 1.0
C      1  0.4086930000000  0.5031360000000  0.3891300000000 1.0
C      1  0.5897570000000  0.5186140000000  0.4177290000000 1.0
C      1  0.3908030000000  0.4231850000000  0.5318830000000 1.0
C      1  0.5150890000000  0.4364890000000  0.4941770000000 1.0
C      1  0.5550040000000  0.4696270000000  0.5434130000000 1.0
C      1  0.4477820000000  0.5308190000000  0.3919140000000 1.0
C      1  0.4448390000000  0.4771930000000  0.4279360000000 1.0
C      1  0.5278060000000  0.5040050000000  0.5293390000000 1.0
C      1  0.4409380000000  0.5256170000000  0.4670650000000 1.0
C      1  0.4320430000000  0.4262370000000  0.4818870000000 1.0
C      1  0.5490340000000  0.5316690000000  0.4791450000000 1.0
C      1  0.4290270000000  0.3888950000000  0.5246360000000 1.0
C      1  0.5732850000000  0.4888260000000  0.5300320000000 1.0
C      1  0.5787210000000  0.4854810000000  0.4623670000000 1.0
C      1  0.5282060000000  0.5486110000000  0.4205570000000 1.0
C      1  0.4811390000000  0.4677610000000  0.4588530000000 1.0
C      1  0.3870520000000  0.5109150000000  0.4027650000000 1.0
C      1  0.5352130000000  0.6106570000000  0.4658570000000 1.0
C      1  0.5953340000000  0.5255330000000  0.6036600000000 1.0
C      1  0.4513980000000  0.4519530000000  0.5774960000000 1.0
C      1  0.6311300000000  0.6016690000000  0.5463550000000 1.0
C      1  0.5752810000000  0.4142390000000  0.5424490000000 1.0
C      1  0.5024900000000  0.5218070000000  0.4746330000000 1.0
C      1  0.5784150000000  0.5660820000000  0.4135970000000 1.0
C      1  0.5377050000000  0.5598210000000  0.5140220000000 1.0
C      1  0.4925200000000  0.4933770000000  0.3798450000000 1.0
C      1  0.5727090000000  0.4990390000000  0.4056330000000 1.0
C      1  0.4335450000000  0.4424390000000  0.5337990000000 1.0
C      1  0.5255150000000  0.4025320000000  0.4344460000000 1.0
C      1  0.5795020000000  0.4717920000000  0.3996790000000 1.0
C      1  0.4769080000000  0.4561560000000  0.5857010000000 1.0
C      1  0.4282500000000  0.5904280000000  0.4598870000000 1.0
C      1  0.4540260000000  0.4230000000000  0.4344640000000 1.0
C      1  0.5654360000000  0.4203810000000  0.4020020000000 1.0
C      1  0.4314790000000  0.4154570000000  0.4208070000000 1.0
C      1  0.5092200000000  0.4131380000000  0.5545240000000 1.0
C      1  0.4092640000000  0.4097990000000  0.4870410000000 1.0
C      1  0.5263610000000  0.4741680000000  0.5872580000000 1.0
C      1  0.4009830000000  0.5144930000000  0.4955620000000 1.0
C      1  0.4285430000000  0.5509320000000  0.3978930000000 1.0
C      1  0.5109610000000  0.5696680000000  0.5159880000000 1.0
C      1  0.4752540000000  0.5378650000000  0.3968890000000 1.0
C      1  0.6183860000000  0.5763800000000  0.5494080000000 1.0
C      1  0.4999490000000  0.5821200000000  0.4094220000000 1.0
C      1  0.5125090000000  0.4146300000000  0.5820480000000 1.0
C      1  0.6093300000000  0.5259180000000  0.4753800000000 1.0
C      1  0.5293150000000  0.4573600000000  0.5063770000000 1.0
C      1  0.4310870000000  0.5586280000000  0.5321300000000 1.0
C      1  0.5932970000000  0.4298480000000  0.6123260000000 1.0
C      1  0.5169160000000  0.4484510000000  0.4031620000000 1.0
C      1  0.5344280000000  0.4808610000000  0.6143230000000 1.0
C      1  0.5157020000000  0.6186990000000  0.4831990000000 1.0
C      1  0.4972680000000  0.5191160000000  0.3933780000000 1.0
C      1  0.5122110000000  0.3929010000000  0.5115140000000 1.0
C      1  0.4802620000000  0.6029850000000  0.4538830000000 1.0
C      1  0.6049160000000  0.4613820000000  0.5015220000000 1.0
C      1  0.4369390000000  0.5043130000000  0.3899350000000 1.0
C      1  0.6288710000000  0.4629290000000  0.5625700000000 1.0
C      1  0.5271580000000  0.5912800000000  0.4466950000000 1.0
C      1  0.5043980000000  0.4881970000000  0.4249150000000 1.0
C      1  0.3685600000000  0.5959960000000  0.4885560000000 1.0
C      1  0.5771980000000  0.5036320000000  0.6056480000000 1.0
C      1  0.3894460000000  0.4906680000000  0.5495810000000 1.0
C      1  0.5546210000000  0.3944910000000  0.5461590000000 1.0
C      1  0.3479050000000  0.5538460000000  0.4453010000000 1.0
C      1  0.6099240000000  0.5440010000000  0.5899090000000 1.0
C      1  0.3829430000000  0.4505200000000  0.5229790000000 1.0
C      1  0.4303430000000  0.4559520000000  0.5585360000000 1.0
C      1  0.6052660000000  0.5474710000000  0.4563900000000 1.0
C      1  0.5932370000000  0.4297330000000  0.5588280000000 1.0
C      1  0.4412090000000  0.4753260000000  0.6275640000000 1.0
C      1  0.5724320000000  0.5744480000000  0.4730530000000 1.0
C      1  0.4279370000000  0.5622980000000  0.5801530000000 1.0
END
