TITL C-612605-9286-776 -1.07143424145518e-05 125000 -190.9283492924 0 0 33 (C1) n - 1
REM
REM in /home/nfs/bkarasulu/CARBON/AIRSS/Generating-Clusters/TERSOFF/Only-C1/FIRE-HFTN
REM
REM
REM
REM
REM
REM ./C.cell (11c1c37f851c82e70ff6c80c92926a4b)
REM AIRSS Version 0.9.1 bugfix July 2018 build 013d7b7c2542+ Fri, 06 Jul 2018 19:26:36 +0100
REM compiler GCC version 9.2.1 20190827 (Red Hat 9.2.1-1)
REM options -cpp -mtune=generic -march=x86-64 -g -O0 -fpre-include=/usr/include/finclude/math-vector-fortran.h
REM seed -737699291 594332041 -1135031328 -1426877167 -1751253479 -530023413 1674962284 -1109425373 724343912 -447688888 1186647968 98512362 -369382077 1883835111 -1506601358 776249992 991289642 536002622 383073288 -1961072140 -736818668 -1505670274 -8890669 1951425310 -219518594 1312157926 63959016 2011783967 837642523 -636483881 1525768851 1829269142 1162980924
REM
CELL 1.54180   50.00000   50.00000   50.00000   90.00000   90.00000   90.00000
LATT -1
SFAC C  
C      1  0.5077450000000  0.4563180000000  0.4534540000000 1.0
C      1  0.5008530000000  0.4376350000000  0.5222290000000 1.0
C      1  0.5541190000000  0.4449310000000  0.5071310000000 1.0
C      1  0.4796510000000  0.4595080000000  0.4621970000000 1.0
C      1  0.4901950000000  0.5243970000000  0.4702380000000 1.0
C      1  0.4642350000000  0.4758240000000  0.5102800000000 1.0
C      1  0.5419780000000  0.4567480000000  0.5306190000000 1.0
C      1  0.5232220000000  0.4792610000000  0.4455220000000 1.0
C      1  0.5536960000000  0.5001070000000  0.4817560000000 1.0
C      1  0.4813570000000  0.4832020000000  0.5311210000000 1.0
C      1  0.5024370000000  0.5082090000000  0.4895270000000 1.0
C      1  0.4386500000000  0.4859930000000  0.4699730000000 1.0
C      1  0.4695390000000  0.5425100000000  0.4775000000000 1.0
C      1  0.5250870000000  0.4361370000000  0.4646550000000 1.0
C      1  0.5514280000000  0.4987260000000  0.5087490000000 1.0
C      1  0.4941560000000  0.5463670000000  0.5204390000000 1.0
C      1  0.4643850000000  0.5829930000000  0.5067610000000 1.0
C      1  0.4892500000000  0.5870390000000  0.5463560000000 1.0
C      1  0.5041240000000  0.5203210000000  0.5159490000000 1.0
C      1  0.4437020000000  0.5355730000000  0.4689110000000 1.0
C      1  0.5209870000000  0.4401810000000  0.5404220000000 1.0
C      1  0.5020260000000  0.5618720000000  0.5433740000000 1.0
C      1  0.4752480000000  0.5575690000000  0.5009260000000 1.0
C      1  0.5080030000000  0.4966910000000  0.5330270000000 1.0
C      1  0.5011110000000  0.4548320000000  0.5011140000000 1.0
C      1  0.5448600000000  0.4353440000000  0.4833780000000 1.0
C      1  0.5055060000000  0.4798250000000  0.4906700000000 1.0
C      1  0.4600460000000  0.4711910000000  0.4812480000000 1.0
C      1  0.5428440000000  0.4935000000000  0.4578640000000 1.0
C      1  0.4712530000000  0.5971550000000  0.5288140000000 1.0
C      1  0.5355790000000  0.4852080000000  0.5288730000000 1.0
C      1  0.5208190000000  0.5532180000000  0.5611870000000 1.0
C      1  0.4319120000000  0.5116160000000  0.4657370000000 1.0
END
