TITL C-612604-1799-1316 0.00315649240077785 125000 -512.481243711575 0 0 85 (C1) n - 1
REM
REM in /home/nfs/bkarasulu/CARBON/AIRSS/Generating-Clusters/TERSOFF/Only-C1/FIRE-HFTN
REM
REM
REM
REM
REM
REM ./C.cell (11c1c37f851c82e70ff6c80c92926a4b)
REM AIRSS Version 0.9.1 bugfix July 2018 build 013d7b7c2542+ Fri, 06 Jul 2018 19:26:36 +0100
REM compiler GCC version 9.2.1 20190827 (Red Hat 9.2.1-1)
REM options -cpp -mtune=generic -march=x86-64 -g -O0 -fpre-include=/usr/include/finclude/math-vector-fortran.h
REM seed 1984516672 -1403143628 -33072649 1900752131 194564150 -66544248 2046684879 -1621086562 1776407125 1238287833 -1134536612 167227359 -756348280 -244859597 1089494042 -1867767546 613050658 967685042 -1310019456 -1717772835 -7223658 -944414754 -341904055 376108510 1451112083 -397435259 -1748752733 2098700151 619331315 -1710370253 1288587551 955000179 1690021285
REM
CELL 1.54180   50.00000   50.00000   50.00000   90.00000   90.00000   90.00000
LATT -1
SFAC C  
C      1  0.5188220000000  0.5103500000000  0.4175950000000 1.0
C      1  0.5303770000000  0.4077790000000  0.4749260000000 1.0
C      1  0.5405180000000  0.4336580000000  0.4787500000000 1.0
C      1  0.4821500000000  0.5896560000000  0.5005800000000 1.0
C      1  0.5892220000000  0.5302390000000  0.4874950000000 1.0
C      1  0.4917950000000  0.5219290000000  0.5284060000000 1.0
C      1  0.5542330000000  0.4402520000000  0.5034600000000 1.0
C      1  0.4956170000000  0.4420970000000  0.5835240000000 1.0
C      1  0.5406700000000  0.5130530000000  0.5194540000000 1.0
C      1  0.4768290000000  0.4811770000000  0.5624930000000 1.0
C      1  0.4682430000000  0.5981650000000  0.4775930000000 1.0
C      1  0.4285150000000  0.5328040000000  0.4519870000000 1.0
C      1  0.4948820000000  0.5114120000000  0.4997920000000 1.0
C      1  0.4133760000000  0.4904360000000  0.4803970000000 1.0
C      1  0.5208810000000  0.6064760000000  0.4367550000000 1.0
C      1  0.4433080000000  0.3959810000000  0.5089010000000 1.0
C      1  0.5626350000000  0.5268070000000  0.5574280000000 1.0
C      1  0.4516080000000  0.4403750000000  0.5584420000000 1.0
C      1  0.4266210000000  0.5661640000000  0.5792520000000 1.0
C      1  0.5060840000000  0.4456500000000  0.4221700000000 1.0
C      1  0.4775710000000  0.5472960000000  0.4335620000000 1.0
C      1  0.4680340000000  0.5123390000000  0.4892740000000 1.0
C      1  0.4715070000000  0.4868970000000  0.4473060000000 1.0
C      1  0.5368010000000  0.5221100000000  0.5471450000000 1.0
C      1  0.4298600000000  0.5062680000000  0.4634190000000 1.0
C      1  0.4842530000000  0.4444560000000  0.5056380000000 1.0
C      1  0.4506580000000  0.5223200000000  0.5098260000000 1.0
C      1  0.4556780000000  0.4982230000000  0.5523180000000 1.0
C      1  0.5202980000000  0.4236760000000  0.5318200000000 1.0
C      1  0.5070640000000  0.5770420000000  0.4984450000000 1.0
C      1  0.4880460000000  0.3802930000000  0.4873820000000 1.0
C      1  0.4636520000000  0.3827530000000  0.4978520000000 1.0
C      1  0.5033420000000  0.4874780000000  0.5539270000000 1.0
C      1  0.5044940000000  0.4464310000000  0.5248200000000 1.0
C      1  0.4243380000000  0.5760240000000  0.4797620000000 1.0
C      1  0.4151500000000  0.5538140000000  0.4651820000000 1.0
C      1  0.4319230000000  0.4169340000000  0.5208490000000 1.0
C      1  0.5887560000000  0.4852120000000  0.4721640000000 1.0
C      1  0.4236760000000  0.4662340000000  0.5278930000000 1.0
C      1  0.4632040000000  0.5201590000000  0.5355020000000 1.0
C      1  0.5141840000000  0.4970910000000  0.4844010000000 1.0
C      1  0.5476040000000  0.4407500000000  0.5755220000000 1.0
C      1  0.4336470000000  0.5740010000000  0.5554120000000 1.0
C      1  0.5522500000000  0.5303430000000  0.4454720000000 1.0
C      1  0.4515930000000  0.5407910000000  0.4366250000000 1.0
C      1  0.5897770000000  0.4887090000000  0.5451800000000 1.0
C      1  0.5348650000000  0.4877320000000  0.4252210000000 1.0
C      1  0.4247400000000  0.5765810000000  0.5078900000000 1.0
C      1  0.4840860000000  0.4341780000000  0.4325080000000 1.0
C      1  0.5701970000000  0.5402120000000  0.4667370000000 1.0
C      1  0.4728110000000  0.4390830000000  0.4821970000000 1.0
C      1  0.5624020000000  0.4407830000000  0.5512320000000 1.0
C      1  0.5759870000000  0.4645340000000  0.5391350000000 1.0
C      1  0.4685250000000  0.5914750000000  0.5257260000000 1.0
C      1  0.5262210000000  0.4612060000000  0.4340630000000 1.0
C      1  0.5289560000000  0.6310850000000  0.4397080000000 1.0
C      1  0.4936000000000  0.6160610000000  0.5668000000000 1.0
C      1  0.5122480000000  0.5814780000000  0.4351750000000 1.0
C      1  0.5153100000000  0.4717870000000  0.5329260000000 1.0
C      1  0.5378190000000  0.5348080000000  0.5017650000000 1.0
C      1  0.4731200000000  0.4539700000000  0.5708180000000 1.0
C      1  0.5355620000000  0.4808320000000  0.4750440000000 1.0
C      1  0.4435780000000  0.5931680000000  0.4680360000000 1.0
C      1  0.5224570000000  0.4399040000000  0.5853930000000 1.0
C      1  0.4421610000000  0.5807470000000  0.5296490000000 1.0
C      1  0.5603650000000  0.4668460000000  0.5141970000000 1.0
C      1  0.5095090000000  0.5154550000000  0.5505410000000 1.0
C      1  0.5893860000000  0.5310810000000  0.5164530000000 1.0
C      1  0.6033650000000  0.5070840000000  0.4784020000000 1.0
C      1  0.4139050000000  0.4745310000000  0.5024200000000 1.0
C      1  0.5619120000000  0.4878240000000  0.4650470000000 1.0
C      1  0.5314460000000  0.4553620000000  0.4623570000000 1.0
C      1  0.5257200000000  0.5349150000000  0.4320200000000 1.0
C      1  0.4576130000000  0.4998720000000  0.4666400000000 1.0
C      1  0.4812720000000  0.6045850000000  0.5469150000000 1.0
C      1  0.5382200000000  0.4842320000000  0.5190630000000 1.0
C      1  0.5259830000000  0.5583590000000  0.4971800000000 1.0
C      1  0.5485830000000  0.4261640000000  0.5289070000000 1.0
C      1  0.4305620000000  0.4867560000000  0.5463610000000 1.0
C      1  0.5563190000000  0.5012010000000  0.4406860000000 1.0
C      1  0.4339800000000  0.4404760000000  0.5358440000000 1.0
C      1  0.5116960000000  0.3891630000000  0.4788510000000 1.0
C      1  0.5051600000000  0.5544700000000  0.4341480000000 1.0
C      1  0.4718020000000  0.4328670000000  0.4562610000000 1.0
C      1  0.5848100000000  0.5170270000000  0.5415860000000 1.0
END
