TITL C-612602-9376-273 1967.01862445331 125000 -690.91709387854 0 0 114 (C1) n - 1
REM
REM in /home/nfs/bkarasulu/CARBON/AIRSS/Generating-Clusters/TERSOFF/Only-C1/FIRE-HFTN
REM
REM
REM
REM
REM
REM ./C.cell (11c1c37f851c82e70ff6c80c92926a4b)
REM AIRSS Version 0.9.1 bugfix July 2018 build 013d7b7c2542+ Fri, 06 Jul 2018 19:26:36 +0100
REM compiler GCC version 9.2.1 20190827 (Red Hat 9.2.1-1)
REM options -cpp -mtune=generic -march=x86-64 -g -O0 -fpre-include=/usr/include/finclude/math-vector-fortran.h
REM seed 1489330802 1699268292 1246925634 1314792827 -301493895 1885584110 -1780408766 -447433147 847527453 472474767 919132010 1724418708 853108438 -1071706653 1452705808 -2052829863 2179750 660333962 -1886887563 517571397 -200006902 1809374623 1366334855 1482459395 329713087 1591699915 -228858865 -1808195789 1271840289 -888145990 -1261350944 118815452 1039563761
REM
CELL 1.54180   50.00000   50.00000   50.00000   90.00000   90.00000   90.00000
LATT -1
SFAC C  
C      1  0.5187000000000  0.4747550000000  0.4374450000000 1.0
C      1  0.4830190000000  0.5271580000000  0.4157860000000 1.0
C      1  0.5156090000000  0.4660440000000  0.5503970000000 1.0
C      1  0.4320900000000  0.5813780000000  0.5230550000000 1.0
C      1  0.4295620000000  0.4814770000000  0.5894280000000 1.0
C      1  0.5808080000000  0.5164600000000  0.5429380000000 1.0
C      1  0.4253380000000  0.5132450000000  0.4558010000000 1.0
C      1  0.4172460000000  0.5730360000000  0.5018580000000 1.0
C      1  0.5916660000000  0.4748390000000  0.4646990000000 1.0
C      1  0.5194470000000  0.5061830000000  0.5260570000000 1.0
C      1  0.5631720000000  0.4794990000000  0.4263740000000 1.0
C      1  0.5395060000000  0.5640740000000  0.4754160000000 1.0
C      1  0.4655830000000  0.4459440000000  0.5906040000000 1.0
C      1  0.5017660000000  0.4387470000000  0.5049100000000 1.0
C      1  0.5100080000000  0.5389260000000  0.4546980000000 1.0
C      1  0.4680460000000  0.5820370000000  0.4739350000000 1.0
C      1  0.4576620000000  0.5583510000000  0.5612870000000 1.0
C      1  0.5625660000000  0.5550670000000  0.4617690000000 1.0
C      1  0.5786210000000  0.4629810000000  0.5209010000000 1.0
C      1  0.4648970000000  0.4461600000000  0.4388260000000 1.0
C      1  0.5079890000000  0.5218340000000  0.3995170000000 1.0
C      1  0.4321090000000  0.5403540000000  0.4671530000000 1.0
C      1  0.4640660000000  0.4188050000000  0.5797120000000 1.0
C      1  0.5323990000000  0.5434000000000  0.4154600000000 1.0
C      1  0.5139910000000  0.5588040000000  0.4335950000000 1.0
C      1  0.5298560000000  0.5901630000000  0.4790260000000 1.0
C      1  0.5527010000000  0.4446390000000  0.5637040000000 1.0
C      1  0.5728150000000  0.5124580000000  0.4812370000000 1.0
C      1  0.5279090000000  0.5574310000000  0.5833760000000 1.0
C      1  0.5770770000000  0.5511390000000  0.5111330000000 1.0
C      1  0.5598130000000  0.5356340000000  0.5527240000000 1.0
C      1  0.5802200000000  0.4615820000000  0.4406380000000 1.0
C      1  0.5000850000000  0.4951110000000  0.3864380000000 1.0
C      1  0.4886900000000  0.4914040000000  0.5871270000000 1.0
C      1  0.4836670000000  0.5372680000000  0.4715610000000 1.0
C      1  0.4712780000000  0.4946580000000  0.4876480000000 1.0
C      1  0.5755740000000  0.5410530000000  0.4841070000000 1.0
C      1  0.4668140000000  0.4673700000000  0.4835730000000 1.0
C      1  0.5145780000000  0.4445770000000  0.5967420000000 1.0
C      1  0.4808240000000  0.5460980000000  0.5734500000000 1.0
C      1  0.4582020000000  0.5544880000000  0.4691190000000 1.0
C      1  0.4173030000000  0.4913540000000  0.4745150000000 1.0
C      1  0.5227610000000  0.4581950000000  0.4588540000000 1.0
C      1  0.4866350000000  0.5370570000000  0.5022690000000 1.0
C      1  0.5486560000000  0.5140090000000  0.5932930000000 1.0
C      1  0.4291540000000  0.5030100000000  0.4291560000000 1.0
C      1  0.4154780000000  0.4527390000000  0.5352810000000 1.0
C      1  0.5884410000000  0.5029820000000  0.4598500000000 1.0
C      1  0.4849310000000  0.4751370000000  0.4032200000000 1.0
C      1  0.4436140000000  0.4167650000000  0.5608590000000 1.0
C      1  0.5290200000000  0.4139560000000  0.4743590000000 1.0
C      1  0.4873540000000  0.3993020000000  0.5294470000000 1.0
C      1  0.4510770000000  0.4556460000000  0.4629380000000 1.0
C      1  0.4209060000000  0.4795520000000  0.5257530000000 1.0
C      1  0.5961230000000  0.5347130000000  0.5263950000000 1.0
C      1  0.5524810000000  0.4186090000000  0.4908180000000 1.0
C      1  0.5395710000000  0.4934960000000  0.4346880000000 1.0
C      1  0.4901420000000  0.5174260000000  0.5721250000000 1.0
C      1  0.4783610000000  0.5906910000000  0.4479920000000 1.0
C      1  0.5332500000000  0.5157820000000  0.5028840000000 1.0
C      1  0.3967490000000  0.4369850000000  0.5217970000000 1.0
C      1  0.5046500000000  0.5784840000000  0.5455010000000 1.0
C      1  0.5463000000000  0.4888430000000  0.5848040000000 1.0
C      1  0.4874380000000  0.4270840000000  0.4431520000000 1.0
C      1  0.5299100000000  0.5426730000000  0.4928890000000 1.0
C      1  0.4846170000000  0.4021840000000  0.4313520000000 1.0
C      1  0.4122620000000  0.4970860000000  0.5024320000000 1.0
C      1  0.5006220000000  0.4418410000000  0.5507250000000 1.0
C      1  0.5086190000000  0.6019310000000  0.4907390000000 1.0
C      1  0.5371650000000  0.4316260000000  0.5853290000000 1.0
C      1  0.5644500000000  0.4407320000000  0.5365270000000 1.0
C      1  0.5536710000000  0.5561090000000  0.5314120000000 1.0
C      1  0.4142330000000  0.5477310000000  0.4887800000000 1.0
C      1  0.5475810000000  0.5376530000000  0.5783310000000 1.0
C      1  0.4949980000000  0.4253310000000  0.5286130000000 1.0
C      1  0.4805420000000  0.5066090000000  0.4364400000000 1.0
C      1  0.5124020000000  0.4316240000000  0.4583990000000 1.0
C      1  0.4242220000000  0.4650000000000  0.4652670000000 1.0
C      1  0.5544090000000  0.4198390000000  0.5192720000000 1.0
C      1  0.4598790000000  0.4623870000000  0.4129500000000 1.0
C      1  0.5328760000000  0.4718620000000  0.4821900000000 1.0
C      1  0.4388210000000  0.4938560000000  0.5435500000000 1.0
C      1  0.5154880000000  0.4787940000000  0.5258490000000 1.0
C      1  0.4527020000000  0.5145930000000  0.5304290000000 1.0
C      1  0.4897000000000  0.5735460000000  0.4282480000000 1.0
C      1  0.4119870000000  0.5260740000000  0.5078690000000 1.0
C      1  0.5846310000000  0.4583390000000  0.4906670000000 1.0
C      1  0.4379490000000  0.4814060000000  0.4149070000000 1.0
C      1  0.4552320000000  0.5767560000000  0.5389320000000 1.0
C      1  0.5032160000000  0.5650380000000  0.5715070000000 1.0
C      1  0.3799720000000  0.4225350000000  0.5080540000000 1.0
C      1  0.4753470000000  0.5098130000000  0.4637080000000 1.0
C      1  0.5812530000000  0.4888010000000  0.5346350000000 1.0
C      1  0.5078570000000  0.5171960000000  0.5491170000000 1.0
C      1  0.5286240000000  0.5163880000000  0.4496880000000 1.0
C      1  0.4828460000000  0.5916520000000  0.4984540000000 1.0
C      1  0.5483160000000  0.4970900000000  0.4876010000000 1.0
C      1  0.5095650000000  0.5516130000000  0.5101730000000 1.0
C      1  0.5253510000000  0.5658400000000  0.5299260000000 1.0
C      1  0.4806650000000  0.5857270000000  0.5281560000000 1.0
C      1  0.4290000000000  0.4418740000000  0.5585380000000 1.0
C      1  0.4393340000000  0.4563580000000  0.5827180000000 1.0
C      1  0.4303200000000  0.4996740000000  0.5698440000000 1.0
C      1  0.5165570000000  0.4627510000000  0.5035350000000 1.0
C      1  0.5397370000000  0.4705290000000  0.5650650000000 1.0
C      1  0.4899490000000  0.4615780000000  0.5938640000000 1.0
C      1  0.4944750000000  0.4834290000000  0.4289210000000 1.0
C      1  0.4316380000000  0.5334800000000  0.5272900000000 1.0
C      1  0.5757610000000  0.4348180000000  0.4494940000000 1.0
C      1  0.4721090000000  0.5129980000000  0.5103080000000 1.0
C      1  0.5626290000000  0.5416360000000  0.4347220000000 1.0
C      1  0.5832830000000  0.5201990000000  0.4362890000000 1.0
C      1  0.4732650000000  0.5538820000000  0.4149910000000 1.0
C      1  0.5735990000000  0.4330710000000  0.4781360000000 1.0
END
