TITL C-612604-1799-681 104.474538699376 125000 -845.736685194306 0 0 138 (C1) n - 1
REM
REM in /home/nfs/bkarasulu/CARBON/AIRSS/Generating-Clusters/TERSOFF/Only-C1/FIRE-HFTN
REM
REM
REM
REM
REM
REM ./C.cell (11c1c37f851c82e70ff6c80c92926a4b)
REM AIRSS Version 0.9.1 bugfix July 2018 build 013d7b7c2542+ Fri, 06 Jul 2018 19:26:36 +0100
REM compiler GCC version 9.2.1 20190827 (Red Hat 9.2.1-1)
REM options -cpp -mtune=generic -march=x86-64 -g -O0 -fpre-include=/usr/include/finclude/math-vector-fortran.h
REM seed 1838339451 2142436689 1973166717 -328750170 -1198789423 -1578146286 1140508415 -1574367305 789598757 1545426561 -1905822932 1203274541 -384009053 1061266063 1377132097 291373188 111155785 -1620521219 -1597503308 791143894 -1825956177 297063388 -248107850 -1769812263 -807343859 -616133887 1862348282 -438782516 1810325193 320369215 1352202984 1983951145 293965810
REM
CELL 1.54180   50.00000   50.00000   50.00000   90.00000   90.00000   90.00000
LATT -1
SFAC C  
C      1  0.5818580000000  0.4451950000000  0.5226550000000 1.0
C      1  0.4763640000000  0.5929570000000  0.5685600000000 1.0
C      1  0.4334780000000  0.5353550000000  0.5609000000000 1.0
C      1  0.5511460000000  0.4403820000000  0.5589020000000 1.0
C      1  0.5071770000000  0.5007580000000  0.4554350000000 1.0
C      1  0.4851220000000  0.5791360000000  0.5215690000000 1.0
C      1  0.4213160000000  0.4607280000000  0.5755650000000 1.0
C      1  0.4999410000000  0.4517720000000  0.4126410000000 1.0
C      1  0.5516460000000  0.5849300000000  0.5360070000000 1.0
C      1  0.4131590000000  0.5222840000000  0.5452660000000 1.0
C      1  0.5072310000000  0.5936250000000  0.5090330000000 1.0
C      1  0.4777420000000  0.4871680000000  0.5332620000000 1.0
C      1  0.5776070000000  0.5242180000000  0.5658450000000 1.0
C      1  0.5918690000000  0.4995420000000  0.5584030000000 1.0
C      1  0.4048050000000  0.5338300000000  0.4999760000000 1.0
C      1  0.4124800000000  0.5077490000000  0.4555350000000 1.0
C      1  0.4306250000000  0.4617090000000  0.4787870000000 1.0
C      1  0.4840680000000  0.4864100000000  0.4454740000000 1.0
C      1  0.5185320000000  0.5446920000000  0.4433490000000 1.0
C      1  0.4613990000000  0.5228610000000  0.4092540000000 1.0
C      1  0.5805920000000  0.4754680000000  0.4448460000000 1.0
C      1  0.4704150000000  0.4687040000000  0.5548750000000 1.0
C      1  0.4684370000000  0.5779720000000  0.5469140000000 1.0
C      1  0.6034690000000  0.4602940000000  0.5121610000000 1.0
C      1  0.5120590000000  0.4961180000000  0.5630940000000 1.0
C      1  0.4644960000000  0.4739500000000  0.5850640000000 1.0
C      1  0.4621650000000  0.6034200000000  0.4424590000000 1.0
C      1  0.5437970000000  0.5858180000000  0.4628820000000 1.0
C      1  0.5290900000000  0.4528220000000  0.5461420000000 1.0
C      1  0.4985130000000  0.5299870000000  0.4601190000000 1.0
C      1  0.5328360000000  0.4618920000000  0.4997890000000 1.0
C      1  0.4868090000000  0.4522070000000  0.4845920000000 1.0
C      1  0.4667730000000  0.3571620000000  0.4825160000000 1.0
C      1  0.4559900000000  0.5553220000000  0.4485470000000 1.0
C      1  0.5243770000000  0.4029630000000  0.4913490000000 1.0
C      1  0.5715130000000  0.5233230000000  0.4515640000000 1.0
C      1  0.5003190000000  0.3888270000000  0.4950790000000 1.0
C      1  0.4972570000000  0.5401050000000  0.4877300000000 1.0
C      1  0.4272040000000  0.4759110000000  0.4201080000000 1.0
C      1  0.4495920000000  0.5711450000000  0.4898960000000 1.0
C      1  0.5013290000000  0.5723510000000  0.4365780000000 1.0
C      1  0.5487630000000  0.5372150000000  0.4631590000000 1.0
C      1  0.5634800000000  0.4519550000000  0.4528080000000 1.0
C      1  0.6194090000000  0.5480480000000  0.5111580000000 1.0
C      1  0.4898120000000  0.5074480000000  0.5508180000000 1.0
C      1  0.5638870000000  0.5657240000000  0.4185130000000 1.0
C      1  0.4432530000000  0.5167730000000  0.5818990000000 1.0
C      1  0.4681980000000  0.5070630000000  0.4331310000000 1.0
C      1  0.4840730000000  0.5380760000000  0.3994720000000 1.0
C      1  0.5180610000000  0.4426240000000  0.4333530000000 1.0
C      1  0.3979830000000  0.4602030000000  0.5601480000000 1.0
C      1  0.5767380000000  0.4892910000000  0.4183890000000 1.0
C      1  0.5561090000000  0.5388750000000  0.4116210000000 1.0
C      1  0.5355230000000  0.4192640000000  0.5125930000000 1.0
C      1  0.5295470000000  0.4703420000000  0.5954880000000 1.0
C      1  0.4361950000000  0.5881520000000  0.5080410000000 1.0
C      1  0.4707480000000  0.4495650000000  0.4155470000000 1.0
C      1  0.6074760000000  0.5056320000000  0.5348720000000 1.0
C      1  0.4447510000000  0.4547250000000  0.4284550000000 1.0
C      1  0.5122710000000  0.5463180000000  0.5907880000000 1.0
C      1  0.4637840000000  0.4452730000000  0.5940720000000 1.0
C      1  0.5467800000000  0.5742990000000  0.4899480000000 1.0
C      1  0.5526850000000  0.4932100000000  0.4771160000000 1.0
C      1  0.5224340000000  0.4165960000000  0.4434910000000 1.0
C      1  0.3872900000000  0.4900120000000  0.5211290000000 1.0
C      1  0.4974610000000  0.4914910000000  0.5094040000000 1.0
C      1  0.4344690000000  0.5588190000000  0.4676020000000 1.0
C      1  0.5506650000000  0.4834420000000  0.5028160000000 1.0
C      1  0.4819980000000  0.4937170000000  0.5983790000000 1.0
C      1  0.5304710000000  0.5371780000000  0.5707740000000 1.0
C      1  0.5360290000000  0.4615850000000  0.4454780000000 1.0
C      1  0.4524870000000  0.4877060000000  0.5169760000000 1.0
C      1  0.5758530000000  0.4515260000000  0.5510360000000 1.0
C      1  0.5063070000000  0.4680000000000  0.4968760000000 1.0
C      1  0.5610280000000  0.4301580000000  0.4729640000000 1.0
C      1  0.4680230000000  0.5280750000000  0.4549660000000 1.0
C      1  0.5158610000000  0.5916330000000  0.4573840000000 1.0
C      1  0.5083180000000  0.5221860000000  0.3988170000000 1.0
C      1  0.4015500000000  0.5139780000000  0.5206380000000 1.0
C      1  0.4700360000000  0.4427740000000  0.5067150000000 1.0
C      1  0.5857660000000  0.5456770000000  0.5482880000000 1.0
C      1  0.5334480000000  0.5268190000000  0.5177320000000 1.0
C      1  0.4385100000000  0.4461800000000  0.4555410000000 1.0
C      1  0.4537720000000  0.5144610000000  0.5074340000000 1.0
C      1  0.4787690000000  0.4239430000000  0.5564710000000 1.0
C      1  0.4868230000000  0.5415910000000  0.5987510000000 1.0
C      1  0.4360600000000  0.4861360000000  0.5820080000000 1.0
C      1  0.5770440000000  0.4978260000000  0.4638610000000 1.0
C      1  0.5547470000000  0.4841370000000  0.5852830000000 1.0
C      1  0.5026400000000  0.6017270000000  0.4812590000000 1.0
C      1  0.4223210000000  0.5311950000000  0.4741280000000 1.0
C      1  0.5717290000000  0.5698200000000  0.5457080000000 1.0
C      1  0.5523950000000  0.5189620000000  0.5776030000000 1.0
C      1  0.5164090000000  0.4340050000000  0.5288160000000 1.0
C      1  0.5065210000000  0.4957950000000  0.3899300000000 1.0
C      1  0.4413950000000  0.5626490000000  0.5488960000000 1.0
C      1  0.5138910000000  0.4689970000000  0.3937700000000 1.0
C      1  0.5311340000000  0.4867690000000  0.4584830000000 1.0
C      1  0.4502580000000  0.5185560000000  0.4800070000000 1.0
C      1  0.4387420000000  0.4363570000000  0.5787480000000 1.0
C      1  0.4689830000000  0.5198290000000  0.5965410000000 1.0
C      1  0.4197010000000  0.5031370000000  0.4270440000000 1.0
C      1  0.4890860000000  0.4336130000000  0.5831090000000 1.0
C      1  0.5088980000000  0.4903390000000  0.5907550000000 1.0
C      1  0.5630190000000  0.4306250000000  0.5043800000000 1.0
C      1  0.5299430000000  0.4824660000000  0.5456410000000 1.0
C      1  0.4794900000000  0.4625210000000  0.4596260000000 1.0
C      1  0.5198630000000  0.5399300000000  0.5430160000000 1.0
C      1  0.4125690000000  0.4829790000000  0.4715470000000 1.0
C      1  0.5725580000000  0.5181500000000  0.4225540000000 1.0
C      1  0.6136550000000  0.4846590000000  0.5174160000000 1.0
C      1  0.4743500000000  0.3778950000000  0.4989050000000 1.0
C      1  0.4678870000000  0.5357390000000  0.5216410000000 1.0
C      1  0.5376790000000  0.4114030000000  0.4669930000000 1.0
C      1  0.4874880000000  0.4317180000000  0.5298310000000 1.0
C      1  0.5649790000000  0.4748560000000  0.3972200000000 1.0
C      1  0.4555760000000  0.3868250000000  0.5183210000000 1.0
C      1  0.5442830000000  0.4989240000000  0.5255310000000 1.0
C      1  0.5146090000000  0.4444090000000  0.5930700000000 1.0
C      1  0.4754330000000  0.5572600000000  0.5017820000000 1.0
C      1  0.5475360000000  0.5458050000000  0.4902980000000 1.0
C      1  0.3857770000000  0.4695500000000  0.5383290000000 1.0
C      1  0.4021690000000  0.5589680000000  0.5143180000000 1.0
C      1  0.4326170000000  0.5223760000000  0.4096700000000 1.0
C      1  0.5281640000000  0.5336290000000  0.4159990000000 1.0
C      1  0.5780730000000  0.4760660000000  0.5672570000000 1.0
C      1  0.4722870000000  0.5780450000000  0.4443830000000 1.0
C      1  0.4900250000000  0.5335490000000  0.5409830000000 1.0
C      1  0.4499210000000  0.4180540000000  0.5582840000000 1.0
C      1  0.5079460000000  0.5180560000000  0.5033930000000 1.0
C      1  0.5351950000000  0.5868150000000  0.5132220000000 1.0
C      1  0.5415780000000  0.4644580000000  0.3888800000000 1.0
C      1  0.4465310000000  0.4620550000000  0.5039950000000 1.0
C      1  0.4941730000000  0.5650810000000  0.4065420000000 1.0
C      1  0.4225370000000  0.5734540000000  0.5284310000000 1.0
C      1  0.4426760000000  0.3991430000000  0.5386680000000 1.0
C      1  0.5605210000000  0.5817980000000  0.4402110000000 1.0
C      1  0.6054500000000  0.5342050000000  0.5299450000000 1.0
END
