TITL C-612600-6631-987 0.000360767495388578 125000 -459.086726546496 0 0 75 (C1) n - 1
REM
REM in /home/nfs/bkarasulu/CARBON/AIRSS/Generating-Clusters/TERSOFF/Only-C1/FIRE-HFTN
REM
REM
REM
REM
REM
REM ./C.cell (11c1c37f851c82e70ff6c80c92926a4b)
REM AIRSS Version 0.9.1 bugfix July 2018 build 013d7b7c2542+ Fri, 06 Jul 2018 19:26:36 +0100
REM compiler GCC version 9.2.1 20190827 (Red Hat 9.2.1-1)
REM options -cpp -mtune=generic -march=x86-64 -g -O0 -fpre-include=/usr/include/finclude/math-vector-fortran.h
REM seed -1562507150 1719134127 1168397998 -819168773 -2066820777 -1014816167 567880868 -745508982 1547212291 52827609 -2004827103 390530504 1776428778 1263279199 -117335842 920506600 -888357472 1060803407 462959425 281277237 1101475925 -940149037 2107481820 1818053030 -1898341712 -1191999384 -871241254 1971267914 -1847669868 651833446 -704269570 -477984347 -2137833496
REM
CELL 1.54180   50.00000   50.00000   50.00000   90.00000   90.00000   90.00000
LATT -1
SFAC C  
C      1  0.5017870000000  0.6123180000000  0.4980080000000 1.0
C      1  0.5579290000000  0.4176160000000  0.4709870000000 1.0
C      1  0.5065040000000  0.5033470000000  0.4738010000000 1.0
C      1  0.4297950000000  0.4546880000000  0.5431500000000 1.0
C      1  0.5210130000000  0.5259080000000  0.5358910000000 1.0
C      1  0.4341870000000  0.5563210000000  0.4920900000000 1.0
C      1  0.5018020000000  0.5452600000000  0.4950550000000 1.0
C      1  0.4110390000000  0.5227370000000  0.5225240000000 1.0
C      1  0.4532740000000  0.6047320000000  0.4843090000000 1.0
C      1  0.5487530000000  0.4145710000000  0.4975160000000 1.0
C      1  0.4803450000000  0.4911820000000  0.4296160000000 1.0
C      1  0.4571850000000  0.4453160000000  0.4775160000000 1.0
C      1  0.4784040000000  0.5736590000000  0.5658880000000 1.0
C      1  0.5417250000000  0.4540010000000  0.5527320000000 1.0
C      1  0.5438310000000  0.4597900000000  0.4150340000000 1.0
C      1  0.5152360000000  0.5438880000000  0.4338260000000 1.0
C      1  0.5047120000000  0.4841710000000  0.5683570000000 1.0
C      1  0.4774590000000  0.6153390000000  0.4876360000000 1.0
C      1  0.5638180000000  0.4349820000000  0.4514280000000 1.0
C      1  0.5542530000000  0.5088560000000  0.4396840000000 1.0
C      1  0.5611720000000  0.4846130000000  0.4534020000000 1.0
C      1  0.5199050000000  0.5764920000000  0.5341780000000 1.0
C      1  0.4768040000000  0.4263540000000  0.4766580000000 1.0
C      1  0.5193070000000  0.4652060000000  0.4060980000000 1.0
C      1  0.4798330000000  0.5452480000000  0.4746470000000 1.0
C      1  0.4909630000000  0.5369220000000  0.4478660000000 1.0
C      1  0.5242270000000  0.4307000000000  0.5528350000000 1.0
C      1  0.4708190000000  0.5123840000000  0.5264930000000 1.0
C      1  0.5645370000000  0.4455580000000  0.5375080000000 1.0
C      1  0.5109610000000  0.5494600000000  0.5221620000000 1.0
C      1  0.5121440000000  0.4245400000000  0.5280100000000 1.0
C      1  0.4409370000000  0.5103900000000  0.4755450000000 1.0
C      1  0.5591970000000  0.4597050000000  0.4385400000000 1.0
C      1  0.5208860000000  0.5266770000000  0.4825820000000 1.0
C      1  0.5482850000000  0.5728640000000  0.5434520000000 1.0
C      1  0.4367020000000  0.5031170000000  0.4485190000000 1.0
C      1  0.4242620000000  0.4977770000000  0.5218230000000 1.0
C      1  0.5650230000000  0.4265250000000  0.5179920000000 1.0
C      1  0.5642510000000  0.5074390000000  0.5243620000000 1.0
C      1  0.4351020000000  0.4610080000000  0.4874930000000 1.0
C      1  0.6022940000000  0.4831180000000  0.5059330000000 1.0
C      1  0.4341450000000  0.4896450000000  0.4949420000000 1.0
C      1  0.4784450000000  0.4879090000000  0.5155800000000 1.0
C      1  0.5204740000000  0.4109530000000  0.5035520000000 1.0
C      1  0.4516630000000  0.4907550000000  0.5656160000000 1.0
C      1  0.4566330000000  0.4459940000000  0.5404050000000 1.0
C      1  0.4627100000000  0.5534980000000  0.5581460000000 1.0
C      1  0.4137230000000  0.4458540000000  0.4989820000000 1.0
C      1  0.5128720000000  0.4632000000000  0.4983460000000 1.0
C      1  0.4312560000000  0.4833760000000  0.5462810000000 1.0
C      1  0.5758520000000  0.4901840000000  0.5041660000000 1.0
C      1  0.5683680000000  0.5553190000000  0.5399220000000 1.0
C      1  0.5392620000000  0.5036740000000  0.5388990000000 1.0
C      1  0.4150530000000  0.5462240000000  0.5101060000000 1.0
C      1  0.4374510000000  0.5834980000000  0.4867870000000 1.0
C      1  0.4957360000000  0.4760060000000  0.4120920000000 1.0
C      1  0.4625080000000  0.5328310000000  0.5414070000000 1.0
C      1  0.4765310000000  0.4608720000000  0.5273740000000 1.0
C      1  0.5468660000000  0.5366160000000  0.4796320000000 1.0
C      1  0.4924110000000  0.5073050000000  0.4492830000000 1.0
C      1  0.4522730000000  0.5371320000000  0.4806530000000 1.0
C      1  0.4995600000000  0.4476430000000  0.5179380000000 1.0
C      1  0.5383420000000  0.5292660000000  0.4312410000000 1.0
C      1  0.4781060000000  0.4884000000000  0.5723700000000 1.0
C      1  0.4522930000000  0.4924660000000  0.4294200000000 1.0
C      1  0.5177240000000  0.5979880000000  0.5137830000000 1.0
C      1  0.5720310000000  0.5351420000000  0.5207350000000 1.0
C      1  0.5600560000000  0.4809400000000  0.4821380000000 1.0
C      1  0.4990580000000  0.4120130000000  0.4838320000000 1.0
C      1  0.5020350000000  0.5827720000000  0.5572590000000 1.0
C      1  0.4973680000000  0.4864480000000  0.4937530000000 1.0
C      1  0.5687510000000  0.5430860000000  0.4937450000000 1.0
C      1  0.4107610000000  0.4432060000000  0.5258440000000 1.0
C      1  0.5389280000000  0.4642760000000  0.4900330000000 1.0
C      1  0.5300930000000  0.4807280000000  0.5545940000000 1.0
END
