TITL C-612601-4209-773 2.92985608657335 125000 -264.990907796875 0 0 45 (C1) n - 1
REM
REM in /home/nfs/bkarasulu/CARBON/AIRSS/Generating-Clusters/TERSOFF/Only-C1/FIRE-HFTN
REM
REM
REM
REM
REM
REM ./C.cell (11c1c37f851c82e70ff6c80c92926a4b)
REM AIRSS Version 0.9.1 bugfix July 2018 build 013d7b7c2542+ Fri, 06 Jul 2018 19:26:36 +0100
REM compiler GCC version 9.2.1 20190827 (Red Hat 9.2.1-1)
REM options -cpp -mtune=generic -march=x86-64 -g -O0 -fpre-include=/usr/include/finclude/math-vector-fortran.h
REM seed -1084712418 -1660523633 -1328679986 -303215779 -1847451273 1528735738 39676250 1589230823 865725350 477156330 -958647865 -820327402 630998256 -1352572738 1605406914 -1792969189 -1889071720 151072474 274125769 739404915 -97891595 -1635851838 -137136757 485175999 771598334 -650628656 1427940176 -1541761130 1656444648 1289101688 -335429683 157761911 1715199927
REM
CELL 1.54180   50.00000   50.00000   50.00000   90.00000   90.00000   90.00000
LATT -1
SFAC C  
C      1  0.4335590000000  0.4854580000000  0.4052210000000 1.0
C      1  0.4680640000000  0.5249120000000  0.4132370000000 1.0
C      1  0.5026980000000  0.4086630000000  0.5229790000000 1.0
C      1  0.6513560000000  0.5381210000000  0.6747210000000 1.0
C      1  0.5196430000000  0.5221200000000  0.4033720000000 1.0
C      1  0.4930490000000  0.5218350000000  0.4006470000000 1.0
C      1  0.6318800000000  0.5366320000000  0.6568030000000 1.0
C      1  0.4429610000000  0.4194310000000  0.4418690000000 1.0
C      1  0.4544730000000  0.5147700000000  0.5061480000000 1.0
C      1  0.5929390000000  0.5336560000000  0.6209750000000 1.0
C      1  0.5335560000000  0.5291110000000  0.5662680000000 1.0
C      1  0.5471960000000  0.5210570000000  0.4930690000000 1.0
C      1  0.5078430000000  0.4976690000000  0.5091050000000 1.0
C      1  0.5488630000000  0.5327880000000  0.4692470000000 1.0
C      1  0.4847190000000  0.5127450000000  0.5036160000000 1.0
C      1  0.5044840000000  0.4697620000000  0.5105150000000 1.0
C      1  0.5382850000000  0.5181110000000  0.5409390000000 1.0
C      1  0.5359980000000  0.5423230000000  0.4463980000000 1.0
C      1  0.4112640000000  0.4409810000000  0.3995520000000 1.0
C      1  0.4241490000000  0.4040620000000  0.4270270000000 1.0
C      1  0.4663310000000  0.5411960000000  0.4366960000000 1.0
C      1  0.4487660000000  0.5308960000000  0.5304300000000 1.0
C      1  0.4573820000000  0.4622930000000  0.5116080000000 1.0
C      1  0.4455720000000  0.4862680000000  0.5096700000000 1.0
C      1  0.5136330000000  0.5593370000000  0.4489740000000 1.0
C      1  0.4467640000000  0.5084820000000  0.4056660000000 1.0
C      1  0.4820090000000  0.5427510000000  0.5675470000000 1.0
C      1  0.4875380000000  0.5585470000000  0.4431460000000 1.0
C      1  0.4442090000000  0.4465480000000  0.4331770000000 1.0
C      1  0.5381330000000  0.5295660000000  0.4213530000000 1.0
C      1  0.6124100000000  0.5351440000000  0.6388890000000 1.0
C      1  0.4870280000000  0.4234070000000  0.5061370000000 1.0
C      1  0.5540070000000  0.5306790000000  0.5851550000000 1.0
C      1  0.4476560000000  0.5355530000000  0.4568140000000 1.0
C      1  0.4432790000000  0.5267560000000  0.4815540000000 1.0
C      1  0.4091890000000  0.4148280000000  0.4069470000000 1.0
C      1  0.5078320000000  0.5385050000000  0.5722030000000 1.0
C      1  0.5734680000000  0.5321670000000  0.6030610000000 1.0
C      1  0.4739220000000  0.4115190000000  0.4844180000000 1.0
C      1  0.4832590000000  0.4511750000000  0.5102210000000 1.0
C      1  0.6705110000000  0.5395850000000  0.6923450000000 1.0
C      1  0.4293700000000  0.4589250000000  0.4122000000000 1.0
C      1  0.4584370000000  0.4101070000000  0.4629260000000 1.0
C      1  0.5322060000000  0.5111680000000  0.5145450000000 1.0
C      1  0.4601110000000  0.5403940000000  0.5526110000000 1.0
END
