TITL C-612602-9376-1126 82.3820990894943 125000 -937.244526171808 0 0 153 (C1) n - 1
REM
REM in /home/nfs/bkarasulu/CARBON/AIRSS/Generating-Clusters/TERSOFF/Only-C1/FIRE-HFTN
REM
REM
REM
REM
REM
REM ./C.cell (11c1c37f851c82e70ff6c80c92926a4b)
REM AIRSS Version 0.9.1 bugfix July 2018 build 013d7b7c2542+ Fri, 06 Jul 2018 19:26:36 +0100
REM compiler GCC version 9.2.1 20190827 (Red Hat 9.2.1-1)
REM options -cpp -mtune=generic -march=x86-64 -g -O0 -fpre-include=/usr/include/finclude/math-vector-fortran.h
REM seed -1421415375 -1077097211 -1152930369 2005154102 -1966343692 -1360045192 -351746904 2067232886 -1936445651 257104862 -1539090274 -1465897926 -1220664001 -231023990 24040931 -1077694862 1922514281 -1075309908 288252625 1989410244 -191708919 451691018 -117074705 -229978390 -1831127827 1629654265 1025577738 -1756572541 -515697812 1854393364 -1922918148 1668427941 -703406693
REM
CELL 1.54180   50.00000   50.00000   50.00000   90.00000   90.00000   90.00000
LATT -1
SFAC C  
C      1  0.5286050000000  0.5071680000000  0.3887080000000 1.0
C      1  0.4766320000000  0.4367760000000  0.4870680000000 1.0
C      1  0.5202090000000  0.5141650000000  0.4965230000000 1.0
C      1  0.3908520000000  0.5706810000000  0.5180080000000 1.0
C      1  0.4442850000000  0.4675020000000  0.4921830000000 1.0
C      1  0.4820300000000  0.4565110000000  0.5672740000000 1.0
C      1  0.4744070000000  0.5304580000000  0.4872620000000 1.0
C      1  0.5053390000000  0.4458820000000  0.6043370000000 1.0
C      1  0.4965070000000  0.4512470000000  0.5065440000000 1.0
C      1  0.5708980000000  0.4244080000000  0.5318960000000 1.0
C      1  0.5578050000000  0.5607120000000  0.4218590000000 1.0
C      1  0.3869110000000  0.4961180000000  0.5431540000000 1.0
C      1  0.4469860000000  0.4423950000000  0.5449730000000 1.0
C      1  0.4807990000000  0.4049100000000  0.5349700000000 1.0
C      1  0.5301360000000  0.4596140000000  0.6097930000000 1.0
C      1  0.4673820000000  0.5864740000000  0.4121690000000 1.0
C      1  0.4823780000000  0.5283020000000  0.4280680000000 1.0
C      1  0.4530450000000  0.5625220000000  0.4174790000000 1.0
C      1  0.4813050000000  0.4844770000000  0.5665900000000 1.0
C      1  0.4827470000000  0.5938130000000  0.5763860000000 1.0
C      1  0.4635180000000  0.5109800000000  0.4400290000000 1.0
C      1  0.4529220000000  0.4549780000000  0.6009030000000 1.0
C      1  0.5229410000000  0.5107430000000  0.4701080000000 1.0
C      1  0.3939360000000  0.5280550000000  0.4938980000000 1.0
C      1  0.5548510000000  0.4524830000000  0.4227400000000 1.0
C      1  0.3901910000000  0.5255490000000  0.5431190000000 1.0
C      1  0.6109550000000  0.4614070000000  0.5260010000000 1.0
C      1  0.6316450000000  0.5051910000000  0.5333890000000 1.0
C      1  0.4566310000000  0.4189650000000  0.5303370000000 1.0
C      1  0.4383450000000  0.5575650000000  0.4428620000000 1.0
C      1  0.5638630000000  0.4809480000000  0.4946760000000 1.0
C      1  0.4475440000000  0.5046790000000  0.5888420000000 1.0
C      1  0.5383680000000  0.5774140000000  0.5184000000000 1.0
C      1  0.5473700000000  0.4591010000000  0.5036060000000 1.0
C      1  0.5940120000000  0.4976520000000  0.5620340000000 1.0
C      1  0.5620650000000  0.4978650000000  0.4451520000000 1.0
C      1  0.5146620000000  0.4614650000000  0.4626500000000 1.0
C      1  0.4355640000000  0.5102730000000  0.5119450000000 1.0
C      1  0.5416260000000  0.5320920000000  0.5854430000000 1.0
C      1  0.5544680000000  0.4470400000000  0.5285700000000 1.0
C      1  0.5736240000000  0.4890350000000  0.5796000000000 1.0
C      1  0.4490260000000  0.5682120000000  0.4676220000000 1.0
C      1  0.5140400000000  0.5147230000000  0.5412150000000 1.0
C      1  0.5724930000000  0.4806990000000  0.4673470000000 1.0
C      1  0.5163410000000  0.5386820000000  0.5986940000000 1.0
C      1  0.5063910000000  0.5391930000000  0.4381800000000 1.0
C      1  0.5823870000000  0.4603180000000  0.4267300000000 1.0
C      1  0.4996800000000  0.6115180000000  0.5654450000000 1.0
C      1  0.4194080000000  0.4156560000000  0.4713290000000 1.0
C      1  0.5027370000000  0.6058690000000  0.4383850000000 1.0
C      1  0.4527460000000  0.5526140000000  0.5839720000000 1.0
C      1  0.5096210000000  0.4093970000000  0.5337610000000 1.0
C      1  0.4946960000000  0.5767220000000  0.4763270000000 1.0
C      1  0.4547370000000  0.4967140000000  0.5616320000000 1.0
C      1  0.4700980000000  0.4959630000000  0.3796410000000 1.0
C      1  0.5941450000000  0.4238550000000  0.4923530000000 1.0
C      1  0.4215460000000  0.4709700000000  0.4733680000000 1.0
C      1  0.6274080000000  0.5295130000000  0.5483160000000 1.0
C      1  0.4577190000000  0.5602640000000  0.5255860000000 1.0
C      1  0.4933910000000  0.5173050000000  0.5031000000000 1.0
C      1  0.5227640000000  0.4012160000000  0.5069230000000 1.0
C      1  0.5021550000000  0.4387890000000  0.5761800000000 1.0
C      1  0.5254750000000  0.4849100000000  0.4064230000000 1.0
C      1  0.5620030000000  0.5024690000000  0.5134290000000 1.0
C      1  0.4003420000000  0.4558600000000  0.5106910000000 1.0
C      1  0.4662470000000  0.4529150000000  0.4378170000000 1.0
C      1  0.4919970000000  0.5240280000000  0.5964770000000 1.0
C      1  0.5484160000000  0.5491950000000  0.5630000000000 1.0
C      1  0.4389390000000  0.4062520000000  0.4543040000000 1.0
C      1  0.4756910000000  0.4279510000000  0.4279910000000 1.0
C      1  0.4397190000000  0.5808540000000  0.5154170000000 1.0
C      1  0.5741410000000  0.4619670000000  0.5892040000000 1.0
C      1  0.5056630000000  0.4629940000000  0.4008300000000 1.0
C      1  0.4078020000000  0.5043860000000  0.5009230000000 1.0
C      1  0.5004390000000  0.4305060000000  0.4135770000000 1.0
C      1  0.4631430000000  0.5287860000000  0.5961220000000 1.0
C      1  0.4739340000000  0.5575130000000  0.4771240000000 1.0
C      1  0.5806150000000  0.4297640000000  0.4673880000000 1.0
C      1  0.4638910000000  0.5217710000000  0.3848190000000 1.0
C      1  0.5446150000000  0.5732540000000  0.4897790000000 1.0
C      1  0.5029020000000  0.3954270000000  0.4865120000000 1.0
C      1  0.4971220000000  0.4991710000000  0.5839520000000 1.0
C      1  0.4921780000000  0.5003850000000  0.5266590000000 1.0
C      1  0.5177840000000  0.4283160000000  0.5550090000000 1.0
C      1  0.4411370000000  0.4633630000000  0.4308690000000 1.0
C      1  0.4795090000000  0.4602720000000  0.4635930000000 1.0
C      1  0.4673770000000  0.4085260000000  0.4485820000000 1.0
C      1  0.5846740000000  0.4560510000000  0.4559950000000 1.0
C      1  0.5446080000000  0.5482890000000  0.4763430000000 1.0
C      1  0.4429920000000  0.4923960000000  0.5359010000000 1.0
C      1  0.3861680000000  0.5851700000000  0.4937260000000 1.0
C      1  0.5119050000000  0.5947800000000  0.4624770000000 1.0
C      1  0.4214380000000  0.4296770000000  0.4967130000000 1.0
C      1  0.4147240000000  0.5814930000000  0.5302490000000 1.0
C      1  0.5499490000000  0.4030300000000  0.4946980000000 1.0
C      1  0.5156190000000  0.5783480000000  0.4011560000000 1.0
C      1  0.5762600000000  0.5381030000000  0.4227570000000 1.0
C      1  0.5552930000000  0.4126280000000  0.4666320000000 1.0
C      1  0.5550000000000  0.5813820000000  0.4423860000000 1.0
C      1  0.5400660000000  0.5904880000000  0.4663270000000 1.0
C      1  0.5346620000000  0.4466250000000  0.4439500000000 1.0
C      1  0.3869450000000  0.5421090000000  0.5183900000000 1.0
C      1  0.5749280000000  0.4091180000000  0.5088700000000 1.0
C      1  0.4014460000000  0.4779820000000  0.4916070000000 1.0
C      1  0.4834860000000  0.4721660000000  0.5220370000000 1.0
C      1  0.4348760000000  0.5086980000000  0.4435380000000 1.0
C      1  0.4838760000000  0.4107190000000  0.4724560000000 1.0
C      1  0.4044080000000  0.5383700000000  0.5645440000000 1.0
C      1  0.6111830000000  0.4854700000000  0.5407220000000 1.0
C      1  0.4669180000000  0.5396780000000  0.4063680000000 1.0
C      1  0.4521670000000  0.4662430000000  0.5244630000000 1.0
C      1  0.4720230000000  0.5686920000000  0.5700000000000 1.0
C      1  0.4251430000000  0.5509690000000  0.5765360000000 1.0
C      1  0.5065020000000  0.5447170000000  0.5421740000000 1.0
C      1  0.4348020000000  0.5842270000000  0.4864090000000 1.0
C      1  0.5212090000000  0.4561430000000  0.4921410000000 1.0
C      1  0.5362970000000  0.5587300000000  0.4020020000000 1.0
C      1  0.5360350000000  0.4486210000000  0.5486150000000 1.0
C      1  0.6048320000000  0.5244640000000  0.5651220000000 1.0
C      1  0.5359510000000  0.4176690000000  0.4460230000000 1.0
C      1  0.4266220000000  0.4813020000000  0.4472280000000 1.0
C      1  0.5266000000000  0.5355600000000  0.4576230000000 1.0
C      1  0.4419000000000  0.4815290000000  0.6049190000000 1.0
C      1  0.5513430000000  0.5048050000000  0.5907910000000 1.0
C      1  0.5202290000000  0.4109830000000  0.4227880000000 1.0
C      1  0.5365220000000  0.4906320000000  0.4322410000000 1.0
C      1  0.4213610000000  0.5340050000000  0.4478890000000 1.0
C      1  0.4423700000000  0.5367140000000  0.5233130000000 1.0
C      1  0.5321280000000  0.6039800000000  0.5266400000000 1.0
C      1  0.5554080000000  0.4477430000000  0.6030450000000 1.0
C      1  0.4542250000000  0.5100690000000  0.4861880000000 1.0
C      1  0.5343230000000  0.4882800000000  0.6081870000000 1.0
C      1  0.4643440000000  0.4832610000000  0.4784270000000 1.0
C      1  0.4950280000000  0.5928200000000  0.4145410000000 1.0
C      1  0.5174320000000  0.6156750000000  0.5458250000000 1.0
C      1  0.5927820000000  0.4856860000000  0.4159300000000 1.0
C      1  0.4782290000000  0.4488060000000  0.6156100000000 1.0
C      1  0.6419650000000  0.5529150000000  0.5467680000000 1.0
C      1  0.5363800000000  0.5118740000000  0.5204220000000 1.0
C      1  0.3910440000000  0.4697160000000  0.5350560000000 1.0
C      1  0.6558940000000  0.5748720000000  0.5450280000000 1.0
C      1  0.5328250000000  0.5338180000000  0.3885960000000 1.0
C      1  0.3999210000000  0.5360340000000  0.4670490000000 1.0
C      1  0.5327500000000  0.5583450000000  0.5402680000000 1.0
C      1  0.5191960000000  0.4889820000000  0.4542430000000 1.0
C      1  0.4551270000000  0.4467960000000  0.5721990000000 1.0
C      1  0.6100550000000  0.4426690000000  0.5065740000000 1.0
C      1  0.5806780000000  0.5100500000000  0.4268810000000 1.0
C      1  0.4835930000000  0.4734190000000  0.3858250000000 1.0
C      1  0.4083540000000  0.5931390000000  0.4797730000000 1.0
C      1  0.4503450000000  0.4261350000000  0.5033490000000 1.0
C      1  0.6515760000000  0.5011700000000  0.5152990000000 1.0
C      1  0.4800960000000  0.5583340000000  0.5440120000000 1.0
END
