TITL C-612602-9376-740 318.816886432414 125000 -739.195842701104 0 0 122 (C1) n - 1
REM
REM in /home/nfs/bkarasulu/CARBON/AIRSS/Generating-Clusters/TERSOFF/Only-C1/FIRE-HFTN
REM
REM
REM
REM
REM
REM ./C.cell (11c1c37f851c82e70ff6c80c92926a4b)
REM AIRSS Version 0.9.1 bugfix July 2018 build 013d7b7c2542+ Fri, 06 Jul 2018 19:26:36 +0100
REM compiler GCC version 9.2.1 20190827 (Red Hat 9.2.1-1)
REM options -cpp -mtune=generic -march=x86-64 -g -O0 -fpre-include=/usr/include/finclude/math-vector-fortran.h
REM seed 509238304 -1374639493 1923334196 -1936989920 -1218826799 -960829549 -812415451 404381922 1779751245 1923873667 545554411 -993503531 -1471836135 1490925061 709510654 -238784960 -345035124 1217532504 -1702849148 1001893580 -755652291 -1737934473 817302800 -1076665223 1976493915 1814561844 704193176 -915449027 1923861156 988602762 -956758594 -745800865 -1172033801
REM
CELL 1.54180   50.00000   50.00000   50.00000   90.00000   90.00000   90.00000
LATT -1
SFAC C  
C      1  0.4611170000000  0.5569310000000  0.5388660000000 1.0
C      1  0.5050070000000  0.5437170000000  0.5058450000000 1.0
C      1  0.4553970000000  0.4951850000000  0.3794840000000 1.0
C      1  0.4292780000000  0.4534380000000  0.4239450000000 1.0
C      1  0.4724460000000  0.5670160000000  0.5845130000000 1.0
C      1  0.5163910000000  0.4606810000000  0.5455090000000 1.0
C      1  0.5624430000000  0.5722630000000  0.5152280000000 1.0
C      1  0.5255410000000  0.5071980000000  0.4330780000000 1.0
C      1  0.4910740000000  0.4772490000000  0.4495080000000 1.0
C      1  0.5225440000000  0.5273670000000  0.5942320000000 1.0
C      1  0.4901990000000  0.5749830000000  0.4695410000000 1.0
C      1  0.4550180000000  0.5126870000000  0.4019410000000 1.0
C      1  0.4999790000000  0.3921120000000  0.4768850000000 1.0
C      1  0.4587120000000  0.4829500000000  0.6022860000000 1.0
C      1  0.5458810000000  0.4642090000000  0.4004480000000 1.0
C      1  0.4445190000000  0.4668950000000  0.5027240000000 1.0
C      1  0.5552480000000  0.4948800000000  0.5692820000000 1.0
C      1  0.5657200000000  0.4883640000000  0.4605810000000 1.0
C      1  0.4473760000000  0.4163840000000  0.5068980000000 1.0
C      1  0.4319220000000  0.5451980000000  0.4481320000000 1.0
C      1  0.5524090000000  0.5475140000000  0.4302070000000 1.0
C      1  0.4928320000000  0.4401180000000  0.4863140000000 1.0
C      1  0.4954890000000  0.4269350000000  0.4404560000000 1.0
C      1  0.4666620000000  0.4171590000000  0.5263470000000 1.0
C      1  0.4509090000000  0.4711860000000  0.6489040000000 1.0
C      1  0.4683100000000  0.4760610000000  0.6276880000000 1.0
C      1  0.4348350000000  0.4666500000000  0.6689090000000 1.0
C      1  0.5688880000000  0.5267270000000  0.4222270000000 1.0
C      1  0.4952630000000  0.6006790000000  0.4806900000000 1.0
C      1  0.4715290000000  0.4595750000000  0.4915750000000 1.0
C      1  0.4861540000000  0.4716920000000  0.5434220000000 1.0
C      1  0.4423750000000  0.4979060000000  0.5064040000000 1.0
C      1  0.5668740000000  0.4437550000000  0.4730180000000 1.0
C      1  0.4793980000000  0.4510490000000  0.4363880000000 1.0
C      1  0.5032950000000  0.5168650000000  0.3927150000000 1.0
C      1  0.4567620000000  0.4965690000000  0.5782120000000 1.0
C      1  0.4621400000000  0.5057080000000  0.4847370000000 1.0
C      1  0.5150870000000  0.4249700000000  0.5803540000000 1.0
C      1  0.5101470000000  0.4149760000000  0.4208810000000 1.0
C      1  0.5480460000000  0.5810060000000  0.4927440000000 1.0
C      1  0.5693990000000  0.4618140000000  0.4479950000000 1.0
C      1  0.5318130000000  0.5631930000000  0.4440100000000 1.0
C      1  0.3960000000000  0.5512230000000  0.5056950000000 1.0
C      1  0.4577960000000  0.5458340000000  0.5932410000000 1.0
C      1  0.5312380000000  0.5649240000000  0.5576910000000 1.0
C      1  0.4632940000000  0.4864790000000  0.5514130000000 1.0
C      1  0.5075690000000  0.5997610000000  0.5303060000000 1.0
C      1  0.5091250000000  0.4501050000000  0.6247560000000 1.0
C      1  0.5882550000000  0.4995020000000  0.4751730000000 1.0
C      1  0.4965200000000  0.4742480000000  0.6313010000000 1.0
C      1  0.4357720000000  0.5076650000000  0.4220760000000 1.0
C      1  0.5806450000000  0.5134290000000  0.4989710000000 1.0
C      1  0.4167110000000  0.5087710000000  0.4950720000000 1.0
C      1  0.4611700000000  0.5638590000000  0.5115110000000 1.0
C      1  0.4798050000000  0.5517260000000  0.4255310000000 1.0
C      1  0.4236760000000  0.4545580000000  0.4864680000000 1.0
C      1  0.4505280000000  0.5062160000000  0.5333790000000 1.0
C      1  0.5667800000000  0.4711840000000  0.4189890000000 1.0
C      1  0.5535760000000  0.5586800000000  0.5402850000000 1.0
C      1  0.5887960000000  0.5617950000000  0.5080980000000 1.0
C      1  0.5579210000000  0.4986270000000  0.5078360000000 1.0
C      1  0.4139380000000  0.5006940000000  0.4676740000000 1.0
C      1  0.3967740000000  0.5772010000000  0.5005570000000 1.0
C      1  0.5078860000000  0.3819760000000  0.5004290000000 1.0
C      1  0.5070750000000  0.3917780000000  0.5254310000000 1.0
C      1  0.4794090000000  0.5293660000000  0.4049660000000 1.0
C      1  0.4341620000000  0.4271790000000  0.4833180000000 1.0
C      1  0.3811670000000  0.5110820000000  0.5274650000000 1.0
C      1  0.5433330000000  0.4556970000000  0.5210800000000 1.0
C      1  0.5433980000000  0.4455700000000  0.4935170000000 1.0
C      1  0.5762450000000  0.5111880000000  0.5591760000000 1.0
C      1  0.5245340000000  0.4727380000000  0.3858710000000 1.0
C      1  0.5265850000000  0.5193620000000  0.4080990000000 1.0
C      1  0.5871120000000  0.5345240000000  0.5167100000000 1.0
C      1  0.4777730000000  0.4836560000000  0.3694790000000 1.0
C      1  0.5974440000000  0.4935610000000  0.5512140000000 1.0
C      1  0.4085200000000  0.4620250000000  0.4390680000000 1.0
C      1  0.4800780000000  0.5699560000000  0.5572550000000 1.0
C      1  0.4731000000000  0.5297360000000  0.4765170000000 1.0
C      1  0.5933420000000  0.4382080000000  0.4830230000000 1.0
C      1  0.4984950000000  0.5234150000000  0.4645160000000 1.0
C      1  0.5011310000000  0.5242790000000  0.5274070000000 1.0
C      1  0.5200980000000  0.5280550000000  0.4840190000000 1.0
C      1  0.4933280000000  0.4176030000000  0.4675330000000 1.0
C      1  0.4981110000000  0.5057470000000  0.4423790000000 1.0
C      1  0.5095060000000  0.4316910000000  0.5536050000000 1.0
C      1  0.4441190000000  0.4229410000000  0.4569270000000 1.0
C      1  0.3993430000000  0.6025250000000  0.4949280000000 1.0
C      1  0.4936110000000  0.4141440000000  0.5365660000000 1.0
C      1  0.5119370000000  0.5001140000000  0.5169240000000 1.0
C      1  0.6095930000000  0.5748060000000  0.4967020000000 1.0
C      1  0.5309300000000  0.5522180000000  0.5834120000000 1.0
C      1  0.5747010000000  0.5002360000000  0.4163220000000 1.0
C      1  0.5192710000000  0.4707260000000  0.4609870000000 1.0
C      1  0.5384690000000  0.4921000000000  0.4536130000000 1.0
C      1  0.5326380000000  0.5060780000000  0.4987390000000 1.0
C      1  0.5634930000000  0.4748580000000  0.5229140000000 1.0
C      1  0.4501530000000  0.5247590000000  0.5760900000000 1.0
C      1  0.5188500000000  0.4518010000000  0.4815070000000 1.0
C      1  0.5286230000000  0.4866500000000  0.5660060000000 1.0
C      1  0.5067100000000  0.5788300000000  0.5493280000000 1.0
C      1  0.4747960000000  0.4822330000000  0.4742180000000 1.0
C      1  0.4517080000000  0.4419800000000  0.4363470000000 1.0
C      1  0.5889490000000  0.4729970000000  0.5353780000000 1.0
C      1  0.5151770000000  0.4322620000000  0.6059510000000 1.0
C      1  0.5031090000000  0.4907650000000  0.3795200000000 1.0
C      1  0.6133380000000  0.4566910000000  0.4822980000000 1.0
C      1  0.4114590000000  0.4716930000000  0.4655120000000 1.0
C      1  0.4979320000000  0.5227470000000  0.5545710000000 1.0
C      1  0.3977420000000  0.5236090000000  0.5096690000000 1.0
C      1  0.4243910000000  0.5176000000000  0.4462170000000 1.0
C      1  0.5721240000000  0.5345660000000  0.5428420000000 1.0
C      1  0.4802220000000  0.5551150000000  0.4908280000000 1.0
C      1  0.5019930000000  0.6085510000000  0.5055840000000 1.0
C      1  0.5014800000000  0.5640570000000  0.4432250000000 1.0
C      1  0.5210960000000  0.5187260000000  0.6207110000000 1.0
C      1  0.5113570000000  0.4978760000000  0.6343400000000 1.0
C      1  0.5126000000000  0.5092760000000  0.5741230000000 1.0
C      1  0.6115290000000  0.4831740000000  0.4765630000000 1.0
C      1  0.4530940000000  0.5572670000000  0.4358870000000 1.0
C      1  0.4490000000000  0.5319490000000  0.5472540000000 1.0
C      1  0.5423150000000  0.5773930000000  0.4667750000000 1.0
END
