TITL C-612602-9376-36 0.105286691856248 125000 -946.403117793041 0 0 154 (C1) n - 1
REM
REM in /home/nfs/bkarasulu/CARBON/AIRSS/Generating-Clusters/TERSOFF/Only-C1/FIRE-HFTN
REM
REM
REM
REM
REM
REM ./C.cell (11c1c37f851c82e70ff6c80c92926a4b)
REM AIRSS Version 0.9.1 bugfix July 2018 build 013d7b7c2542+ Fri, 06 Jul 2018 19:26:36 +0100
REM compiler GCC version 9.2.1 20190827 (Red Hat 9.2.1-1)
REM options -cpp -mtune=generic -march=x86-64 -g -O0 -fpre-include=/usr/include/finclude/math-vector-fortran.h
REM seed -736654784 515163689 -1278630672 -1990587213 1001818570 2134220197 -2005355394 2048410568 -1242034483 -586431608 881151899 -1144189827 -185257679 1920549014 1588641601 -2030525281 -1040006691 448326998 -905302272 -1570560035 491641986 603022953 -1203743730 -1259913367 1943155262 1004404459 -1338972951 614522236 424988284 -1676755674 716124270 -1224032055 -1805088098
REM
CELL 1.54180   50.00000   50.00000   50.00000   90.00000   90.00000   90.00000
LATT -1
SFAC C  
C      1  0.4239170000000  0.4591220000000  0.4192980000000 1.0
C      1  0.4347900000000  0.5108430000000  0.5552470000000 1.0
C      1  0.4366470000000  0.5556340000000  0.4714340000000 1.0
C      1  0.5845780000000  0.4718690000000  0.5793730000000 1.0
C      1  0.5276920000000  0.4380890000000  0.4419150000000 1.0
C      1  0.6217130000000  0.4354430000000  0.5083510000000 1.0
C      1  0.5085310000000  0.4146180000000  0.4472940000000 1.0
C      1  0.5687690000000  0.6493940000000  0.4821450000000 1.0
C      1  0.5258820000000  0.5519220000000  0.5853450000000 1.0
C      1  0.3762220000000  0.4764960000000  0.4899260000000 1.0
C      1  0.4211760000000  0.4905420000000  0.5411120000000 1.0
C      1  0.3765900000000  0.5339060000000  0.5652550000000 1.0
C      1  0.3919830000000  0.5465890000000  0.4945330000000 1.0
C      1  0.4466940000000  0.5241360000000  0.4040320000000 1.0
C      1  0.5390990000000  0.3867980000000  0.4786460000000 1.0
C      1  0.4536430000000  0.4565990000000  0.5547860000000 1.0
C      1  0.4589500000000  0.4495710000000  0.4841130000000 1.0
C      1  0.6382810000000  0.5337860000000  0.5488340000000 1.0
C      1  0.5112740000000  0.6236380000000  0.5932200000000 1.0
C      1  0.5418240000000  0.4489440000000  0.5873990000000 1.0
C      1  0.5388580000000  0.5359580000000  0.4752970000000 1.0
C      1  0.4307960000000  0.4471500000000  0.4441980000000 1.0
C      1  0.5507410000000  0.6317070000000  0.4885780000000 1.0
C      1  0.3760310000000  0.4685560000000  0.5377800000000 1.0
C      1  0.5840120000000  0.4731380000000  0.5204190000000 1.0
C      1  0.5341780000000  0.3696590000000  0.5412130000000 1.0
C      1  0.5030260000000  0.5074080000000  0.5480750000000 1.0
C      1  0.5544150000000  0.4386060000000  0.4250120000000 1.0
C      1  0.5945650000000  0.4269800000000  0.5096220000000 1.0
C      1  0.6041790000000  0.5093170000000  0.4597530000000 1.0
C      1  0.4806230000000  0.4210340000000  0.4513570000000 1.0
C      1  0.5646060000000  0.3916660000000  0.4865520000000 1.0
C      1  0.4121330000000  0.5404880000000  0.4737950000000 1.0
C      1  0.5184950000000  0.4549400000000  0.6039450000000 1.0
C      1  0.4917940000000  0.5211380000000  0.5701940000000 1.0
C      1  0.4942310000000  0.4089840000000  0.4933610000000 1.0
C      1  0.4956830000000  0.5691090000000  0.5485790000000 1.0
C      1  0.4562540000000  0.4734220000000  0.5788460000000 1.0
C      1  0.4505530000000  0.5012330000000  0.5747490000000 1.0
C      1  0.3939270000000  0.4884800000000  0.5483510000000 1.0
C      1  0.5412830000000  0.4951180000000  0.5750760000000 1.0
C      1  0.4951480000000  0.4836130000000  0.4369460000000 1.0
C      1  0.3777610000000  0.5554470000000  0.5806190000000 1.0
C      1  0.4838240000000  0.4817210000000  0.6194740000000 1.0
C      1  0.5715150000000  0.4866660000000  0.4215150000000 1.0
C      1  0.4639930000000  0.4693210000000  0.6055980000000 1.0
C      1  0.4319820000000  0.4089220000000  0.3674100000000 1.0
C      1  0.4514950000000  0.5016770000000  0.3905450000000 1.0
C      1  0.5710330000000  0.4818650000000  0.4754110000000 1.0
C      1  0.3882800000000  0.4512260000000  0.4878790000000 1.0
C      1  0.5320960000000  0.5075860000000  0.5506410000000 1.0
C      1  0.5128500000000  0.5576520000000  0.4225510000000 1.0
C      1  0.5110060000000  0.4812600000000  0.6115400000000 1.0
C      1  0.5546920000000  0.5510380000000  0.5848010000000 1.0
C      1  0.4893850000000  0.4208970000000  0.5468800000000 1.0
C      1  0.3822330000000  0.5998910000000  0.6083460000000 1.0
C      1  0.4947420000000  0.5029430000000  0.5219220000000 1.0
C      1  0.4855250000000  0.5853830000000  0.3944280000000 1.0
C      1  0.3627880000000  0.4811350000000  0.5152790000000 1.0
C      1  0.5520870000000  0.4364880000000  0.5311150000000 1.0
C      1  0.5669800000000  0.4855380000000  0.5017190000000 1.0
C      1  0.5190070000000  0.5158370000000  0.4797250000000 1.0
C      1  0.5256250000000  0.4466200000000  0.4930610000000 1.0
C      1  0.4028480000000  0.5150170000000  0.4619380000000 1.0
C      1  0.6135620000000  0.5111480000000  0.5125470000000 1.0
C      1  0.4701670000000  0.6025930000000  0.4524480000000 1.0
C      1  0.5698240000000  0.5313560000000  0.4369750000000 1.0
C      1  0.5684340000000  0.4358100000000  0.4714670000000 1.0
C      1  0.5567860000000  0.4715230000000  0.5789930000000 1.0
C      1  0.4815880000000  0.6202380000000  0.5133650000000 1.0
C      1  0.5468260000000  0.4918370000000  0.4060570000000 1.0
C      1  0.4515030000000  0.4603640000000  0.4586360000000 1.0
C      1  0.6143240000000  0.5270770000000  0.5373830000000 1.0
C      1  0.5268420000000  0.4709870000000  0.4039180000000 1.0
C      1  0.4388200000000  0.4545670000000  0.3953450000000 1.0
C      1  0.5146350000000  0.4638150000000  0.4295560000000 1.0
C      1  0.5795140000000  0.4157630000000  0.4879410000000 1.0
C      1  0.5515420000000  0.4013140000000  0.5729780000000 1.0
C      1  0.5789430000000  0.5439170000000  0.5743200000000 1.0
C      1  0.4574990000000  0.4744700000000  0.3864590000000 1.0
C      1  0.4974650000000  0.5234380000000  0.4624540000000 1.0
C      1  0.5107580000000  0.5732790000000  0.5726500000000 1.0
C      1  0.4433060000000  0.5414370000000  0.4240040000000 1.0
C      1  0.5244960000000  0.5466030000000  0.5191280000000 1.0
C      1  0.5733820000000  0.4600420000000  0.4318650000000 1.0
C      1  0.5892200000000  0.5353780000000  0.5489590000000 1.0
C      1  0.4054630000000  0.5040600000000  0.4365700000000 1.0
C      1  0.5375470000000  0.5851880000000  0.4911400000000 1.0
C      1  0.5098580000000  0.4971190000000  0.4988410000000 1.0
C      1  0.4350290000000  0.4311320000000  0.3806960000000 1.0
C      1  0.3780090000000  0.5133730000000  0.5468960000000 1.0
C      1  0.5054100000000  0.4114870000000  0.5221950000000 1.0
C      1  0.4128180000000  0.5872120000000  0.5165160000000 1.0
C      1  0.4994990000000  0.5121020000000  0.4367690000000 1.0
C      1  0.4505580000000  0.5662910000000  0.4956450000000 1.0
C      1  0.5097250000000  0.4669350000000  0.3819040000000 1.0
C      1  0.5344770000000  0.5173070000000  0.4031830000000 1.0
C      1  0.5399220000000  0.4396630000000  0.4700690000000 1.0
C      1  0.4837250000000  0.5427480000000  0.4765380000000 1.0
C      1  0.5782530000000  0.4452420000000  0.5254830000000 1.0
C      1  0.6294580000000  0.4614070000000  0.5121090000000 1.0
C      1  0.4616520000000  0.4299000000000  0.5456410000000 1.0
C      1  0.5108300000000  0.5277760000000  0.5909200000000 1.0
C      1  0.4077230000000  0.4306930000000  0.4861940000000 1.0
C      1  0.5054870000000  0.4226400000000  0.5710240000000 1.0
C      1  0.5786590000000  0.4594450000000  0.4598980000000 1.0
C      1  0.4400900000000  0.5884120000000  0.5102080000000 1.0
C      1  0.5795770000000  0.5855860000000  0.4504960000000 1.0
C      1  0.4082650000000  0.4823730000000  0.4213530000000 1.0
C      1  0.3753440000000  0.5237600000000  0.4985900000000 1.0
C      1  0.6103440000000  0.4721210000000  0.5832930000000 1.0
C      1  0.5142340000000  0.3990070000000  0.4726120000000 1.0
C      1  0.5556700000000  0.5867920000000  0.4372430000000 1.0
C      1  0.4741520000000  0.4255780000000  0.4800810000000 1.0
C      1  0.4171880000000  0.4276210000000  0.4594450000000 1.0
C      1  0.4220900000000  0.4198330000000  0.5088530000000 1.0
C      1  0.5420950000000  0.5290580000000  0.5350820000000 1.0
C      1  0.5156500000000  0.3836820000000  0.5279590000000 1.0
C      1  0.5427400000000  0.5568500000000  0.4965200000000 1.0
C      1  0.4978560000000  0.4361550000000  0.5953510000000 1.0
C      1  0.5352390000000  0.4239900000000  0.5738670000000 1.0
C      1  0.5939920000000  0.5702290000000  0.4676240000000 1.0
C      1  0.4414750000000  0.4178060000000  0.5281710000000 1.0
C      1  0.4832800000000  0.4676170000000  0.3773360000000 1.0
C      1  0.6112660000000  0.4826170000000  0.5170990000000 1.0
C      1  0.4895920000000  0.5736610000000  0.4189650000000 1.0
C      1  0.5928900000000  0.5492920000000  0.4869610000000 1.0
C      1  0.5125050000000  0.5288920000000  0.4171990000000 1.0
C      1  0.5242370000000  0.5029900000000  0.5979230000000 1.0
C      1  0.5317410000000  0.6123030000000  0.4951280000000 1.0
C      1  0.4394900000000  0.4701200000000  0.5325580000000 1.0
C      1  0.4494670000000  0.4637900000000  0.5067390000000 1.0
C      1  0.4700120000000  0.5783200000000  0.4396360000000 1.0
C      1  0.3642390000000  0.5107190000000  0.5214470000000 1.0
C      1  0.5070930000000  0.6201140000000  0.5058980000000 1.0
C      1  0.5120500000000  0.4703670000000  0.4930060000000 1.0
C      1  0.5280760000000  0.4317850000000  0.5172950000000 1.0
C      1  0.5368470000000  0.5655180000000  0.4360120000000 1.0
C      1  0.5689250000000  0.5361400000000  0.5297710000000 1.0
C      1  0.5114610000000  0.6482770000000  0.6017360000000 1.0
C      1  0.4775300000000  0.5563370000000  0.5007700000000 1.0
C      1  0.4572260000000  0.6097580000000  0.5157110000000 1.0
C      1  0.5482740000000  0.5430090000000  0.4497570000000 1.0
C      1  0.5510370000000  0.3775350000000  0.5605900000000 1.0
C      1  0.5850800000000  0.5078570000000  0.4373190000000 1.0
C      1  0.5712470000000  0.5507960000000  0.5054860000000 1.0
C      1  0.3835410000000  0.5024050000000  0.4793780000000 1.0
C      1  0.4492270000000  0.5590690000000  0.4451980000000 1.0
C      1  0.4698460000000  0.4761140000000  0.4454130000000 1.0
C      1  0.6064710000000  0.5232250000000  0.4858280000000 1.0
C      1  0.3799320000000  0.5777860000000  0.5947180000000 1.0
C      1  0.3934990000000  0.5699710000000  0.5096070000000 1.0
C      1  0.5110240000000  0.5987340000000  0.5841880000000 1.0
C      1  0.4978210000000  0.5575790000000  0.5225520000000 1.0
END
