TITL C-612602-9376-929 -0.0270772482935772 125000 -199.94686842781 0 0 34 (C1) n - 1
REM
REM in /home/nfs/bkarasulu/CARBON/AIRSS/Generating-Clusters/TERSOFF/Only-C1/FIRE-HFTN
REM
REM
REM
REM
REM
REM ./C.cell (11c1c37f851c82e70ff6c80c92926a4b)
REM AIRSS Version 0.9.1 bugfix July 2018 build 013d7b7c2542+ Fri, 06 Jul 2018 19:26:36 +0100
REM compiler GCC version 9.2.1 20190827 (Red Hat 9.2.1-1)
REM options -cpp -mtune=generic -march=x86-64 -g -O0 -fpre-include=/usr/include/finclude/math-vector-fortran.h
REM seed 1407823311 509201494 -1075389858 -664076203 1485474365 -964525652 766170758 -1711957849 1611006902 1865647992 1707551969 574785687 53994301 1115900851 -1964499337 -1436779107 -1872266518 589308355 92826870 -879319116 -495215610 351285881 1640505576 -1832086268 -2092953646 -2112921024 565674583 -1608122550 -23959042 1014914229 259226440 -1694344331 431266614
REM
CELL 1.54180   50.00000   50.00000   50.00000   90.00000   90.00000   90.00000
LATT -1
SFAC C  
C      1  0.5850460000000  0.4919860000000  0.5612010000000 1.0
C      1  0.4276000000000  0.4315030000000  0.4817320000000 1.0
C      1  0.4427950000000  0.4950390000000  0.4434160000000 1.0
C      1  0.5043600000000  0.4870250000000  0.5639480000000 1.0
C      1  0.4920900000000  0.5300250000000  0.4620330000000 1.0
C      1  0.4701060000000  0.5418330000000  0.4766150000000 1.0
C      1  0.5837480000000  0.5143070000000  0.5183190000000 1.0
C      1  0.4298130000000  0.5169510000000  0.4558120000000 1.0
C      1  0.4156280000000  0.4107790000000  0.4920680000000 1.0
C      1  0.4537420000000  0.4742120000000  0.4611710000000 1.0
C      1  0.4817950000000  0.4809080000000  0.4657620000000 1.0
C      1  0.4670560000000  0.5209760000000  0.5654850000000 1.0
C      1  0.4996160000000  0.4678200000000  0.4824280000000 1.0
C      1  0.4841020000000  0.5509290000000  0.5278080000000 1.0
C      1  0.4668920000000  0.5038440000000  0.4288870000000 1.0
C      1  0.5668810000000  0.5381910000000  0.4760870000000 1.0
C      1  0.4399100000000  0.4525240000000  0.4713190000000 1.0
C      1  0.4821440000000  0.4997430000000  0.5715570000000 1.0
C      1  0.4434310000000  0.5366950000000  0.4684410000000 1.0
C      1  0.5429710000000  0.5081810000000  0.5429350000000 1.0
C      1  0.4876140000000  0.5048190000000  0.4496320000000 1.0
C      1  0.5117130000000  0.5496630000000  0.5328390000000 1.0
C      1  0.4672310000000  0.5414820000000  0.5482570000000 1.0
C      1  0.5173220000000  0.4551350000000  0.4999850000000 1.0
C      1  0.5384190000000  0.4071930000000  0.4868960000000 1.0
C      1  0.5248840000000  0.4862060000000  0.5447990000000 1.0
C      1  0.5817840000000  0.5269760000000  0.4950230000000 1.0
C      1  0.5240190000000  0.4672700000000  0.5242690000000 1.0
C      1  0.5710910000000  0.5044000000000  0.5412970000000 1.0
C      1  0.5173540000000  0.5417730000000  0.4609870000000 1.0
C      1  0.4749480000000  0.5535380000000  0.5015670000000 1.0
C      1  0.5320740000000  0.5338110000000  0.5393710000000 1.0
C      1  0.5435290000000  0.5439140000000  0.4647990000000 1.0
C      1  0.5282950000000  0.4303510000000  0.4932530000000 1.0
END
