TITL C-612603-7354-356 0.000203418322726688 125000 -429.686342881785 0 0 74 (C1) n - 1
REM
REM in /home/nfs/bkarasulu/CARBON/AIRSS/Generating-Clusters/TERSOFF/Only-C1/FIRE-HFTN
REM
REM
REM
REM
REM
REM ./C.cell (11c1c37f851c82e70ff6c80c92926a4b)
REM AIRSS Version 0.9.1 bugfix July 2018 build 013d7b7c2542+ Fri, 06 Jul 2018 19:26:36 +0100
REM compiler GCC version 9.2.1 20190827 (Red Hat 9.2.1-1)
REM options -cpp -mtune=generic -march=x86-64 -g -O0 -fpre-include=/usr/include/finclude/math-vector-fortran.h
REM seed -569409079 -770885251 424984270 -1026202621 1682765299 -300407853 -1305775498 -1755540099 1001214321 952683776 1489060020 1778089332 1624599278 -1097183696 995329836 -1349661330 -297794815 -1140141774 613653750 1186199122 1385216555 750907483 -1846313513 1256517486 1533679482 1956554331 -1601315848 1851009990 -148921015 -1503634689 867475242 1515585541 -1901670125
REM
CELL 1.54180   50.00000   50.00000   50.00000   90.00000   90.00000   90.00000
LATT -1
SFAC C  
C      1  0.4362820000000  0.5614460000000  0.4862140000000 1.0
C      1  0.5745470000000  0.5237380000000  0.4474540000000 1.0
C      1  0.5886670000000  0.4931300000000  0.4940490000000 1.0
C      1  0.4156920000000  0.5223260000000  0.4743530000000 1.0
C      1  0.5417610000000  0.4768910000000  0.5115120000000 1.0
C      1  0.5476840000000  0.5435730000000  0.4793750000000 1.0
C      1  0.4711090000000  0.4171810000000  0.5130960000000 1.0
C      1  0.4712140000000  0.4723140000000  0.5279350000000 1.0
C      1  0.5501260000000  0.5247030000000  0.5714000000000 1.0
C      1  0.5212990000000  0.5286270000000  0.5716500000000 1.0
C      1  0.4875500000000  0.4747910000000  0.4849450000000 1.0
C      1  0.4619770000000  0.4798820000000  0.4716610000000 1.0
C      1  0.3921910000000  0.5156130000000  0.4628210000000 1.0
C      1  0.4600830000000  0.4990240000000  0.4492780000000 1.0
C      1  0.4083190000000  0.4750610000000  0.5163210000000 1.0
C      1  0.4527060000000  0.4798850000000  0.5473860000000 1.0
C      1  0.5551860000000  0.4968340000000  0.5638050000000 1.0
C      1  0.5302990000000  0.5205050000000  0.4799650000000 1.0
C      1  0.4381170000000  0.5043270000000  0.5426880000000 1.0
C      1  0.5179730000000  0.4261460000000  0.5101030000000 1.0
C      1  0.4189910000000  0.4601290000000  0.4962130000000 1.0
C      1  0.5127900000000  0.5441160000000  0.5495260000000 1.0
C      1  0.4355990000000  0.5414560000000  0.4648080000000 1.0
C      1  0.4684810000000  0.4864380000000  0.4247030000000 1.0
C      1  0.4896270000000  0.5707090000000  0.4913990000000 1.0
C      1  0.5218160000000  0.5702980000000  0.4518150000000 1.0
C      1  0.4932010000000  0.4336060000000  0.4662970000000 1.0
C      1  0.5211550000000  0.5187180000000  0.5075840000000 1.0
C      1  0.4587150000000  0.5254610000000  0.5497310000000 1.0
C      1  0.5177810000000  0.5073390000000  0.4553000000000 1.0
C      1  0.4277130000000  0.5132960000000  0.4984590000000 1.0
C      1  0.5288760000000  0.5479720000000  0.4326090000000 1.0
C      1  0.5548850000000  0.5520330000000  0.5307490000000 1.0
C      1  0.4377120000000  0.5595720000000  0.5138820000000 1.0
C      1  0.5075260000000  0.5287060000000  0.4384550000000 1.0
C      1  0.4836820000000  0.4397780000000  0.4389080000000 1.0
C      1  0.4600580000000  0.5508990000000  0.5312430000000 1.0
C      1  0.5202730000000  0.4370410000000  0.5366450000000 1.0
C      1  0.4394650000000  0.4642160000000  0.4791310000000 1.0
C      1  0.4898770000000  0.4678980000000  0.4295800000000 1.0
C      1  0.5775550000000  0.4942610000000  0.5463020000000 1.0
C      1  0.5400870000000  0.4292250000000  0.4927250000000 1.0
C      1  0.4654600000000  0.4193130000000  0.5395650000000 1.0
C      1  0.5847970000000  0.5124500000000  0.4701570000000 1.0
C      1  0.4559690000000  0.5161350000000  0.4986560000000 1.0
C      1  0.5559190000000  0.4499270000000  0.4511800000000 1.0
C      1  0.4653680000000  0.4792740000000  0.5730030000000 1.0
C      1  0.5558170000000  0.5370960000000  0.4324310000000 1.0
C      1  0.4925850000000  0.4225440000000  0.4950930000000 1.0
C      1  0.4825080000000  0.5641630000000  0.5171930000000 1.0
C      1  0.4927580000000  0.4793090000000  0.5120290000000 1.0
C      1  0.5906540000000  0.5020030000000  0.5235530000000 1.0
C      1  0.5284040000000  0.5409080000000  0.5256960000000 1.0
C      1  0.5182010000000  0.4915570000000  0.5159210000000 1.0
C      1  0.5243150000000  0.4563940000000  0.5553610000000 1.0
C      1  0.5287560000000  0.4825830000000  0.5660090000000 1.0
C      1  0.5098940000000  0.4602280000000  0.4702500000000 1.0
C      1  0.5640820000000  0.4764160000000  0.4967520000000 1.0
C      1  0.5376240000000  0.4476530000000  0.4713090000000 1.0
C      1  0.4794630000000  0.5048310000000  0.5716600000000 1.0
C      1  0.6131930000000  0.4763830000000  0.4878680000000 1.0
C      1  0.4695190000000  0.4522160000000  0.5802640000000 1.0
C      1  0.5428060000000  0.5690020000000  0.4710550000000 1.0
C      1  0.5643960000000  0.5442770000000  0.5566200000000 1.0
C      1  0.5113760000000  0.4798050000000  0.4466680000000 1.0
C      1  0.4674280000000  0.4301750000000  0.5642920000000 1.0
C      1  0.4948280000000  0.5658470000000  0.4634790000000 1.0
C      1  0.4575230000000  0.4913060000000  0.4002970000000 1.0
C      1  0.5077560000000  0.5032170000000  0.5730530000000 1.0
C      1  0.4836070000000  0.5423630000000  0.4491920000000 1.0
C      1  0.5680170000000  0.5714800000000  0.5169240000000 1.0
C      1  0.4809750000000  0.5223260000000  0.4984650000000 1.0
C      1  0.4186990000000  0.5009900000000  0.5219710000000 1.0
C      1  0.4586570000000  0.5286620000000  0.4519590000000 1.0
END
