TITL C-612602-9376-436 -0.0395409051243635 125000 -743.336785073375 0 0 121 (C1) n - 1
REM
REM in /home/nfs/bkarasulu/CARBON/AIRSS/Generating-Clusters/TERSOFF/Only-C1/FIRE-HFTN
REM
REM
REM
REM
REM
REM ./C.cell (11c1c37f851c82e70ff6c80c92926a4b)
REM AIRSS Version 0.9.1 bugfix July 2018 build 013d7b7c2542+ Fri, 06 Jul 2018 19:26:36 +0100
REM compiler GCC version 9.2.1 20190827 (Red Hat 9.2.1-1)
REM options -cpp -mtune=generic -march=x86-64 -g -O0 -fpre-include=/usr/include/finclude/math-vector-fortran.h
REM seed -1309414049 -1377008450 2082003374 -1447475205 1095647398 -439963705 928844189 539598579 1930071442 522367896 -1262347028 1406359789 1398497555 2131671846 1841574762 -1533241765 786635739 -1131471963 1390162549 -2050543615 -1304917512 -1166616368 -1385540904 -1852164998 854343604 -307909915 -1083149525 -822630871 -367634430 -1928983940 -411271099 187220110 -1131514826
REM
CELL 1.54180   50.00000   50.00000   50.00000   90.00000   90.00000   90.00000
LATT -1
SFAC C  
C      1  0.5481940000000  0.4795030000000  0.4566680000000 1.0
C      1  0.4596890000000  0.4133110000000  0.4692180000000 1.0
C      1  0.5687450000000  0.4211340000000  0.5084700000000 1.0
C      1  0.4554030000000  0.5893050000000  0.4507370000000 1.0
C      1  0.5427070000000  0.5049010000000  0.5717580000000 1.0
C      1  0.4472740000000  0.4628900000000  0.4549720000000 1.0
C      1  0.4211750000000  0.5640870000000  0.4760740000000 1.0
C      1  0.4584590000000  0.5234960000000  0.4121560000000 1.0
C      1  0.4405850000000  0.4852690000000  0.4712910000000 1.0
C      1  0.5670040000000  0.5523350000000  0.5019920000000 1.0
C      1  0.5357660000000  0.5335220000000  0.6116450000000 1.0
C      1  0.4138270000000  0.4949960000000  0.5523260000000 1.0
C      1  0.5300820000000  0.5079590000000  0.5035110000000 1.0
C      1  0.5403180000000  0.4700780000000  0.4321390000000 1.0
C      1  0.4973870000000  0.5497840000000  0.4057990000000 1.0
C      1  0.4133350000000  0.5358990000000  0.5227230000000 1.0
C      1  0.5309360000000  0.4184610000000  0.5686650000000 1.0
C      1  0.4190860000000  0.5015990000000  0.5791750000000 1.0
C      1  0.4812170000000  0.5922530000000  0.5176740000000 1.0
C      1  0.5582980000000  0.5284900000000  0.4432820000000 1.0
C      1  0.4072840000000  0.5216390000000  0.6210720000000 1.0
C      1  0.4819100000000  0.5852970000000  0.5449360000000 1.0
C      1  0.5322590000000  0.4369500000000  0.4785460000000 1.0
C      1  0.5347920000000  0.4027560000000  0.5457110000000 1.0
C      1  0.5934620000000  0.4547240000000  0.5392120000000 1.0
C      1  0.4922400000000  0.4963810000000  0.4739630000000 1.0
C      1  0.3791600000000  0.5599490000000  0.5571240000000 1.0
C      1  0.5873290000000  0.5404160000000  0.4423800000000 1.0
C      1  0.4815480000000  0.5383460000000  0.5271950000000 1.0
C      1  0.4860200000000  0.3978260000000  0.5335080000000 1.0
C      1  0.4275810000000  0.5583790000000  0.4270290000000 1.0
C      1  0.5065330000000  0.4556530000000  0.4046810000000 1.0
C      1  0.5884300000000  0.4998190000000  0.4730350000000 1.0
C      1  0.5641790000000  0.4792180000000  0.5106530000000 1.0
C      1  0.5715640000000  0.4318630000000  0.4358350000000 1.0
C      1  0.5914620000000  0.5403060000000  0.4931270000000 1.0
C      1  0.5292110000000  0.5105370000000  0.5969970000000 1.0
C      1  0.4134570000000  0.4186330000000  0.4935000000000 1.0
C      1  0.4898660000000  0.5749520000000  0.4966480000000 1.0
C      1  0.4875700000000  0.5215060000000  0.4075930000000 1.0
C      1  0.4514600000000  0.4828010000000  0.4998140000000 1.0
C      1  0.4265960000000  0.5118460000000  0.6042830000000 1.0
C      1  0.4049880000000  0.4426010000000  0.5394250000000 1.0
C      1  0.5496090000000  0.4443140000000  0.4217550000000 1.0
C      1  0.5644900000000  0.5021760000000  0.4576810000000 1.0
C      1  0.5313080000000  0.5596820000000  0.6144370000000 1.0
C      1  0.4255200000000  0.5115650000000  0.5319150000000 1.0
C      1  0.4880440000000  0.5458070000000  0.5000950000000 1.0
C      1  0.4932380000000  0.4782100000000  0.4494870000000 1.0
C      1  0.5077190000000  0.4260350000000  0.4705880000000 1.0
C      1  0.4464420000000  0.4558180000000  0.5124120000000 1.0
C      1  0.6069890000000  0.4446790000000  0.4914600000000 1.0
C      1  0.5358480000000  0.5246750000000  0.4202430000000 1.0
C      1  0.5598970000000  0.5596350000000  0.5494080000000 1.0
C      1  0.5514260000000  0.5654090000000  0.4824100000000 1.0
C      1  0.5235780000000  0.5516150000000  0.4161490000000 1.0
C      1  0.4701980000000  0.4426340000000  0.5222440000000 1.0
C      1  0.3865700000000  0.5277080000000  0.4238490000000 1.0
C      1  0.4800840000000  0.5095210000000  0.6132940000000 1.0
C      1  0.4766360000000  0.5679590000000  0.4134870000000 1.0
C      1  0.5569630000000  0.4064710000000  0.5292340000000 1.0
C      1  0.4598400000000  0.5287600000000  0.4661990000000 1.0
C      1  0.4349520000000  0.4109860000000  0.4793860000000 1.0
C      1  0.5451010000000  0.5530170000000  0.4576850000000 1.0
C      1  0.5204060000000  0.5825820000000  0.6062410000000 1.0
C      1  0.5349360000000  0.5238610000000  0.5263150000000 1.0
C      1  0.5997700000000  0.5473850000000  0.4661190000000 1.0
C      1  0.4678880000000  0.4187360000000  0.5369990000000 1.0
C      1  0.4509140000000  0.5026720000000  0.5226820000000 1.0
C      1  0.4023790000000  0.4700710000000  0.5454060000000 1.0
C      1  0.4814110000000  0.4298740000000  0.4617790000000 1.0
C      1  0.5537850000000  0.5452570000000  0.5262870000000 1.0
C      1  0.4744710000000  0.4555920000000  0.4513100000000 1.0
C      1  0.5144290000000  0.4367800000000  0.5787450000000 1.0
C      1  0.4822170000000  0.4800960000000  0.4958820000000 1.0
C      1  0.5665650000000  0.4136280000000  0.4573600000000 1.0
C      1  0.4535190000000  0.5123240000000  0.6124760000000 1.0
C      1  0.5852630000000  0.4955160000000  0.5202750000000 1.0
C      1  0.4918620000000  0.4594320000000  0.5139340000000 1.0
C      1  0.4211210000000  0.4268270000000  0.5565200000000 1.0
C      1  0.5019640000000  0.5005640000000  0.5982900000000 1.0
C      1  0.5710480000000  0.5744790000000  0.5676980000000 1.0
C      1  0.4357740000000  0.5137470000000  0.4289140000000 1.0
C      1  0.5277710000000  0.4372460000000  0.4039710000000 1.0
C      1  0.4519260000000  0.5534140000000  0.4115840000000 1.0
C      1  0.5556730000000  0.4210070000000  0.4824890000000 1.0
C      1  0.6109310000000  0.4538590000000  0.4165350000000 1.0
C      1  0.5973930000000  0.4444280000000  0.4382900000000 1.0
C      1  0.4317770000000  0.5731930000000  0.4514050000000 1.0
C      1  0.5348760000000  0.5876080000000  0.4879060000000 1.0
C      1  0.4799330000000  0.5838450000000  0.4372360000000 1.0
C      1  0.4421590000000  0.5094270000000  0.4564070000000 1.0
C      1  0.5051010000000  0.5822540000000  0.4506760000000 1.0
C      1  0.4972670000000  0.5006960000000  0.5511700000000 1.0
C      1  0.5881240000000  0.4832530000000  0.5467580000000 1.0
C      1  0.5264630000000  0.5665760000000  0.4399360000000 1.0
C      1  0.5685320000000  0.4928900000000  0.5660260000000 1.0
C      1  0.5115920000000  0.4783980000000  0.4244290000000 1.0
C      1  0.5370520000000  0.4650150000000  0.4778750000000 1.0
C      1  0.4458880000000  0.4167180000000  0.5544470000000 1.0
C      1  0.4183120000000  0.5486220000000  0.4978780000000 1.0
C      1  0.4788190000000  0.5574990000000  0.5476220000000 1.0
C      1  0.4980060000000  0.4576260000000  0.5768900000000 1.0
C      1  0.5185060000000  0.4628700000000  0.5212350000000 1.0
C      1  0.5910620000000  0.4389010000000  0.5143960000000 1.0
C      1  0.4760980000000  0.5115810000000  0.5344280000000 1.0
C      1  0.5942160000000  0.5120140000000  0.4988250000000 1.0
C      1  0.4135390000000  0.5328030000000  0.4262950000000 1.0
C      1  0.5248660000000  0.5114120000000  0.5495900000000 1.0
C      1  0.4921380000000  0.5995700000000  0.5665640000000 1.0
C      1  0.5064140000000  0.5973480000000  0.5890110000000 1.0
C      1  0.4011040000000  0.4315310000000  0.5136060000000 1.0
C      1  0.4946220000000  0.4852200000000  0.5750290000000 1.0
C      1  0.5115640000000  0.3904590000000  0.5357870000000 1.0
C      1  0.5362080000000  0.4787020000000  0.5037750000000 1.0
C      1  0.4850090000000  0.5254310000000  0.4788410000000 1.0
C      1  0.3610060000000  0.5229070000000  0.4222530000000 1.0
C      1  0.5080420000000  0.5864670000000  0.4785580000000 1.0
C      1  0.3952330000000  0.5485910000000  0.5400400000000 1.0
C      1  0.6080620000000  0.4464070000000  0.4646230000000 1.0
C      1  0.5121590000000  0.5064390000000  0.4144220000000 1.0
END
