TITL C-612607-4507-284 -0.042957665394475 125000 -885.258114664585 0 0 146 (C1) n - 1
REM
REM in /home/nfs/bkarasulu/CARBON/AIRSS/Generating-Clusters/TERSOFF/Only-C1/FIRE-HFTN
REM
REM
REM
REM
REM
REM ./C.cell (11c1c37f851c82e70ff6c80c92926a4b)
REM AIRSS Version 0.9.1 bugfix July 2018 build 013d7b7c2542+ Fri, 06 Jul 2018 19:26:36 +0100
REM compiler GCC version 9.2.1 20190827 (Red Hat 9.2.1-1)
REM options -cpp -mtune=generic -march=x86-64 -g -O0 -fpre-include=/usr/include/finclude/math-vector-fortran.h
REM seed 394947726 546858365 -951945742 -181718232 -2034892344 614756318 -1277147091 1356378649 -654398549 692225259 -1395873865 1979629511 1977061923 -1997741320 -487612963 -1840180365 1981351329 1547560108 -932553535 -1762175915 -1733022765 1578914892 -1994323099 973951867 -966378452 3574723 1295516670 28944391 -1852458331 1637883895 819928578 -1930779532 -84939217
REM
CELL 1.54180   50.00000   50.00000   50.00000   90.00000   90.00000   90.00000
LATT -1
SFAC C  
C      1  0.5701040000000  0.5676390000000  0.4719360000000 1.0
C      1  0.4129770000000  0.4555030000000  0.5387990000000 1.0
C      1  0.4749230000000  0.4870010000000  0.5982630000000 1.0
C      1  0.5199590000000  0.5065080000000  0.4751610000000 1.0
C      1  0.4883740000000  0.5977050000000  0.4224270000000 1.0
C      1  0.5734600000000  0.4470420000000  0.5449550000000 1.0
C      1  0.5612040000000  0.4279580000000  0.5007160000000 1.0
C      1  0.4087850000000  0.5107560000000  0.5312050000000 1.0
C      1  0.4782240000000  0.5856020000000  0.4864360000000 1.0
C      1  0.4500390000000  0.5169860000000  0.4857190000000 1.0
C      1  0.4918700000000  0.5942030000000  0.5570370000000 1.0
C      1  0.4544990000000  0.5295420000000  0.5953950000000 1.0
C      1  0.4501230000000  0.5009020000000  0.5906430000000 1.0
C      1  0.4741970000000  0.5128230000000  0.3888340000000 1.0
C      1  0.5328520000000  0.4133210000000  0.5661830000000 1.0
C      1  0.4309240000000  0.4758680000000  0.5500540000000 1.0
C      1  0.4289520000000  0.4959580000000  0.5718780000000 1.0
C      1  0.4208500000000  0.4747630000000  0.4869070000000 1.0
C      1  0.4018310000000  0.5384040000000  0.3743420000000 1.0
C      1  0.4588230000000  0.3739390000000  0.5015460000000 1.0
C      1  0.5548510000000  0.4484310000000  0.4250550000000 1.0
C      1  0.5421790000000  0.6066370000000  0.5244220000000 1.0
C      1  0.5660920000000  0.5217740000000  0.5993290000000 1.0
C      1  0.4255400000000  0.4642200000000  0.4141340000000 1.0
C      1  0.4336160000000  0.4945790000000  0.5269250000000 1.0
C      1  0.5067950000000  0.5966520000000  0.4878340000000 1.0
C      1  0.5848310000000  0.5075130000000  0.4666010000000 1.0
C      1  0.5691710000000  0.5458900000000  0.4898650000000 1.0
C      1  0.5362140000000  0.4314860000000  0.4883180000000 1.0
C      1  0.5421410000000  0.4897010000000  0.4824880000000 1.0
C      1  0.4811570000000  0.5615940000000  0.4705460000000 1.0
C      1  0.4416080000000  0.3960030000000  0.4979640000000 1.0
C      1  0.4473090000000  0.5707380000000  0.4055500000000 1.0
C      1  0.5722200000000  0.4909260000000  0.4155790000000 1.0
C      1  0.4981100000000  0.5663920000000  0.5561990000000 1.0
C      1  0.4700650000000  0.4750360000000  0.5065960000000 1.0
C      1  0.5218620000000  0.5819650000000  0.4632850000000 1.0
C      1  0.5865180000000  0.5229640000000  0.4902230000000 1.0
C      1  0.5247710000000  0.5601510000000  0.5488400000000 1.0
C      1  0.4977800000000  0.4691680000000  0.4555500000000 1.0
C      1  0.4346280000000  0.4056900000000  0.4717290000000 1.0
C      1  0.4774910000000  0.5348200000000  0.5245640000000 1.0
C      1  0.5158830000000  0.6060630000000  0.5131470000000 1.0
C      1  0.4239060000000  0.4379290000000  0.5183860000000 1.0
C      1  0.5102880000000  0.4943150000000  0.4120830000000 1.0
C      1  0.4589200000000  0.5243680000000  0.4099860000000 1.0
C      1  0.4859490000000  0.3676180000000  0.5067900000000 1.0
C      1  0.4400070000000  0.6117080000000  0.5013980000000 1.0
C      1  0.5458840000000  0.5634450000000  0.6093030000000 1.0
C      1  0.5559440000000  0.4241520000000  0.4373690000000 1.0
C      1  0.4005100000000  0.4595520000000  0.4197260000000 1.0
C      1  0.5146370000000  0.4586480000000  0.5850580000000 1.0
C      1  0.4449470000000  0.4895890000000  0.4997920000000 1.0
C      1  0.5602080000000  0.4528210000000  0.5698720000000 1.0
C      1  0.5295840000000  0.4831190000000  0.5839000000000 1.0
C      1  0.4550110000000  0.5439690000000  0.5707780000000 1.0
C      1  0.4501520000000  0.4666820000000  0.4046330000000 1.0
C      1  0.4295000000000  0.5456050000000  0.5578400000000 1.0
C      1  0.3970250000000  0.4921200000000  0.4882370000000 1.0
C      1  0.4945000000000  0.4158230000000  0.5072550000000 1.0
C      1  0.4738120000000  0.4647410000000  0.3897570000000 1.0
C      1  0.5826750000000  0.5843640000000  0.5425680000000 1.0
C      1  0.4950620000000  0.6077760000000  0.5324600000000 1.0
C      1  0.5546510000000  0.5837120000000  0.5941010000000 1.0
C      1  0.5434370000000  0.4063060000000  0.5409050000000 1.0
C      1  0.4719920000000  0.5330120000000  0.6173220000000 1.0
C      1  0.5463090000000  0.4501820000000  0.3977450000000 1.0
C      1  0.4991650000000  0.5191760000000  0.5637350000000 1.0
C      1  0.5638520000000  0.4730930000000  0.4366530000000 1.0
C      1  0.5547670000000  0.5010220000000  0.5292900000000 1.0
C      1  0.5130000000000  0.2919050000000  0.5056370000000 1.0
C      1  0.4440640000000  0.4175240000000  0.5176300000000 1.0
C      1  0.5174190000000  0.5080800000000  0.5817730000000 1.0
C      1  0.5912710000000  0.5219820000000  0.4427760000000 1.0
C      1  0.4388800000000  0.5439720000000  0.4047850000000 1.0
C      1  0.5489880000000  0.6025690000000  0.5738370000000 1.0
C      1  0.5402590000000  0.5521200000000  0.5288130000000 1.0
C      1  0.4151130000000  0.5204040000000  0.5581900000000 1.0
C      1  0.4555510000000  0.5388720000000  0.5072080000000 1.0
C      1  0.5347170000000  0.4389850000000  0.5769470000000 1.0
C      1  0.6305380000000  0.4359000000000  0.4617160000000 1.0
C      1  0.6066850000000  0.5386980000000  0.5304770000000 1.0
C      1  0.5263270000000  0.5177070000000  0.4138880000000 1.0
C      1  0.4554850000000  0.4087310000000  0.4530640000000 1.0
C      1  0.5081000000000  0.4311130000000  0.4871550000000 1.0
C      1  0.4155310000000  0.4266420000000  0.4721890000000 1.0
C      1  0.3875560000000  0.4684450000000  0.5306830000000 1.0
C      1  0.4642520000000  0.5177660000000  0.4369840000000 1.0
C      1  0.5086500000000  0.5960970000000  0.4396190000000 1.0
C      1  0.5590850000000  0.5997230000000  0.5467370000000 1.0
C      1  0.4947270000000  0.4948310000000  0.4678920000000 1.0
C      1  0.5195620000000  0.5338600000000  0.4874940000000 1.0
C      1  0.4175520000000  0.4470780000000  0.4913730000000 1.0
C      1  0.5145390000000  0.4790270000000  0.3688240000000 1.0
C      1  0.4658500000000  0.5890020000000  0.4112060000000 1.0
C      1  0.5494700000000  0.5739570000000  0.4536250000000 1.0
C      1  0.5038300000000  0.3891450000000  0.5124690000000 1.0
C      1  0.5008480000000  0.5292690000000  0.5107250000000 1.0
C      1  0.5986070000000  0.5630420000000  0.5387720000000 1.0
C      1  0.4707200000000  0.5104750000000  0.4637690000000 1.0
C      1  0.5742670000000  0.5185160000000  0.4204370000000 1.0
C      1  0.5576830000000  0.4791470000000  0.5807800000000 1.0
C      1  0.4987190000000  0.6100600000000  0.5796660000000 1.0
C      1  0.4811580000000  0.6166100000000  0.5993750000000 1.0
C      1  0.5494810000000  0.5593930000000  0.4290390000000 1.0
C      1  0.6083940000000  0.4303300000000  0.4742910000000 1.0
C      1  0.4244410000000  0.5269370000000  0.4733100000000 1.0
C      1  0.4872350000000  0.4665280000000  0.5812880000000 1.0
C      1  0.5641910000000  0.4864320000000  0.4636040000000 1.0
C      1  0.5091700000000  0.4730090000000  0.4303180000000 1.0
C      1  0.5850200000000  0.4269340000000  0.4863030000000 1.0
C      1  0.5669160000000  0.5121270000000  0.5506440000000 1.0
C      1  0.5180800000000  0.5212410000000  0.6073920000000 1.0
C      1  0.5404060000000  0.4849510000000  0.5111170000000 1.0
C      1  0.4796110000000  0.4413420000000  0.3767450000000 1.0
C      1  0.4891830000000  0.4709880000000  0.5270400000000 1.0
C      1  0.5259010000000  0.6179980000000  0.5794220000000 1.0
C      1  0.3894410000000  0.4943240000000  0.5166720000000 1.0
C      1  0.3952300000000  0.5271020000000  0.4205460000000 1.0
C      1  0.3995400000000  0.5137810000000  0.4698120000000 1.0
C      1  0.5497550000000  0.5332200000000  0.4185580000000 1.0
C      1  0.4923300000000  0.5136750000000  0.6177010000000 1.0
C      1  0.4423580000000  0.5640220000000  0.5120880000000 1.0
C      1  0.5700510000000  0.5041550000000  0.5774900000000 1.0
C      1  0.6010080000000  0.5161020000000  0.5140040000000 1.0
C      1  0.5924500000000  0.4656140000000  0.5337030000000 1.0
C      1  0.4713880000000  0.4236030000000  0.5215690000000 1.0
C      1  0.5615840000000  0.4256580000000  0.5291450000000 1.0
C      1  0.5039490000000  0.3163520000000  0.5059000000000 1.0
C      1  0.5431120000000  0.5354950000000  0.6100560000000 1.0
C      1  0.5287010000000  0.3877820000000  0.5255770000000 1.0
C      1  0.5088160000000  0.5539990000000  0.4681310000000 1.0
C      1  0.4803510000000  0.5420090000000  0.5541250000000 1.0
C      1  0.4939320000000  0.4426430000000  0.4650870000000 1.0
C      1  0.5440670000000  0.5434250000000  0.5024360000000 1.0
C      1  0.4117820000000  0.5365520000000  0.3998100000000 1.0
C      1  0.4270070000000  0.5636440000000  0.5360270000000 1.0
C      1  0.4533850000000  0.5878870000000  0.5002310000000 1.0
C      1  0.4948380000000  0.3412280000000  0.5062040000000 1.0
C      1  0.5345650000000  0.4622230000000  0.3766600000000 1.0
C      1  0.5166520000000  0.4730770000000  0.5210250000000 1.0
C      1  0.3880300000000  0.5180360000000  0.4446840000000 1.0
C      1  0.4929040000000  0.4891750000000  0.3875820000000 1.0
C      1  0.6022380000000  0.4887370000000  0.5230780000000 1.0
C      1  0.4764080000000  0.4253420000000  0.4513550000000 1.0
C      1  0.4805990000000  0.4660060000000  0.5535990000000 1.0
END
