TITL C-612601-4209-1085 -0.000661644878898205 125000 -786.181660204032 0 0 130 (C1) n - 1
REM
REM in /home/nfs/bkarasulu/CARBON/AIRSS/Generating-Clusters/TERSOFF/Only-C1/FIRE-HFTN
REM
REM
REM
REM
REM
REM ./C.cell (11c1c37f851c82e70ff6c80c92926a4b)
REM AIRSS Version 0.9.1 bugfix July 2018 build 013d7b7c2542+ Fri, 06 Jul 2018 19:26:36 +0100
REM compiler GCC version 9.2.1 20190827 (Red Hat 9.2.1-1)
REM options -cpp -mtune=generic -march=x86-64 -g -O0 -fpre-include=/usr/include/finclude/math-vector-fortran.h
REM seed 942924869 -1207872179 1260005812 -216712538 -1135167615 885285180 -734648212 93321750 287101540 1640841466 630985949 -1977796756 403222859 -188141528 643092991 679749032 -1348209092 -64888744 474181737 -507740469 557824163 -235484363 -1590512195 -1157281 -574346063 1613922390 -1290784550 1493784158 -1888722506 1968671603 510986530 1969110248 -2073156391
REM
CELL 1.54180   50.00000   50.00000   50.00000   90.00000   90.00000   90.00000
LATT -1
SFAC C  
C      1  0.4444800000000  0.4053510000000  0.4998300000000 1.0
C      1  0.4784150000000  0.5588640000000  0.4102540000000 1.0
C      1  0.5889220000000  0.4330420000000  0.5833530000000 1.0
C      1  0.5111400000000  0.4696640000000  0.4368240000000 1.0
C      1  0.4494710000000  0.5899410000000  0.5088910000000 1.0
C      1  0.4991390000000  0.4453720000000  0.4251750000000 1.0
C      1  0.4463220000000  0.5074700000000  0.5764570000000 1.0
C      1  0.4626400000000  0.4940860000000  0.4744660000000 1.0
C      1  0.4851450000000  0.5578390000000  0.4637100000000 1.0
C      1  0.4660950000000  0.4080250000000  0.4475430000000 1.0
C      1  0.4699970000000  0.6042130000000  0.5494860000000 1.0
C      1  0.5473200000000  0.5185700000000  0.4086410000000 1.0
C      1  0.5693500000000  0.4790240000000  0.4304150000000 1.0
C      1  0.4657430000000  0.5377600000000  0.5043070000000 1.0
C      1  0.4330860000000  0.5489290000000  0.4412200000000 1.0
C      1  0.4757650000000  0.5462040000000  0.5911780000000 1.0
C      1  0.4215540000000  0.5662670000000  0.5393630000000 1.0
C      1  0.4943840000000  0.5367110000000  0.4486560000000 1.0
C      1  0.6098480000000  0.5223880000000  0.5332770000000 1.0
C      1  0.4583380000000  0.4650440000000  0.5245750000000 1.0
C      1  0.5121210000000  0.5735940000000  0.5408440000000 1.0
C      1  0.6059780000000  0.5394250000000  0.5107120000000 1.0
C      1  0.5187280000000  0.4451690000000  0.4871870000000 1.0
C      1  0.4918450000000  0.4078770000000  0.5137330000000 1.0
C      1  0.5535050000000  0.5460820000000  0.5867600000000 1.0
C      1  0.6133440000000  0.4692850000000  0.5301120000000 1.0
C      1  0.5010200000000  0.5856230000000  0.5173890000000 1.0
C      1  0.4023660000000  0.5346110000000  0.4761130000000 1.0
C      1  0.4914870000000  0.5094360000000  0.4072950000000 1.0
C      1  0.4162040000000  0.4695170000000  0.4529260000000 1.0
C      1  0.4256950000000  0.5730430000000  0.5118360000000 1.0
C      1  0.4174650000000  0.4610440000000  0.4804160000000 1.0
C      1  0.4488690000000  0.4429610000000  0.4223520000000 1.0
C      1  0.5671410000000  0.5078640000000  0.4275120000000 1.0
C      1  0.5146340000000  0.4366510000000  0.4028440000000 1.0
C      1  0.4380190000000  0.5051020000000  0.4886690000000 1.0
C      1  0.4632970000000  0.5524070000000  0.4799510000000 1.0
C      1  0.5389380000000  0.5697880000000  0.4820030000000 1.0
C      1  0.5736200000000  0.5402850000000  0.4671290000000 1.0
C      1  0.5410300000000  0.5425430000000  0.5194780000000 1.0
C      1  0.4665020000000  0.4973020000000  0.4457340000000 1.0
C      1  0.4970730000000  0.5822790000000  0.4689750000000 1.0
C      1  0.5338260000000  0.4484690000000  0.3880010000000 1.0
C      1  0.6210980000000  0.4956590000000  0.5301850000000 1.0
C      1  0.4850900000000  0.4790370000000  0.5211030000000 1.0
C      1  0.5697130000000  0.5431030000000  0.5620990000000 1.0
C      1  0.4168020000000  0.5586150000000  0.4871400000000 1.0
C      1  0.4506400000000  0.4790880000000  0.5753320000000 1.0
C      1  0.4073940000000  0.4903550000000  0.5315480000000 1.0
C      1  0.5746880000000  0.4567090000000  0.4449090000000 1.0
C      1  0.5848670000000  0.4472440000000  0.4700970000000 1.0
C      1  0.5170330000000  0.5344600000000  0.5104020000000 1.0
C      1  0.6027310000000  0.5063530000000  0.4608820000000 1.0
C      1  0.5418570000000  0.4299980000000  0.4807550000000 1.0
C      1  0.4858430000000  0.4826910000000  0.4905090000000 1.0
C      1  0.4633710000000  0.5909600000000  0.5719620000000 1.0
C      1  0.4553230000000  0.4149670000000  0.4737490000000 1.0
C      1  0.5114490000000  0.4727640000000  0.4811650000000 1.0
C      1  0.4529830000000  0.5546610000000  0.4206850000000 1.0
C      1  0.4260480000000  0.4514060000000  0.4337730000000 1.0
C      1  0.5313830000000  0.5151740000000  0.4642570000000 1.0
C      1  0.5448520000000  0.5421600000000  0.4707650000000 1.0
C      1  0.5212840000000  0.4871310000000  0.4585030000000 1.0
C      1  0.4866020000000  0.5141760000000  0.4346520000000 1.0
C      1  0.4694020000000  0.3822800000000  0.4390500000000 1.0
C      1  0.4266460000000  0.4982580000000  0.4157520000000 1.0
C      1  0.4337230000000  0.5527450000000  0.5617790000000 1.0
C      1  0.4734640000000  0.4314110000000  0.4309630000000 1.0
C      1  0.4740150000000  0.5960850000000  0.5223920000000 1.0
C      1  0.4104950000000  0.5017880000000  0.4384100000000 1.0
C      1  0.4890200000000  0.5141230000000  0.5586200000000 1.0
C      1  0.4733820000000  0.4165480000000  0.6035930000000 1.0
C      1  0.5443650000000  0.4729670000000  0.3839070000000 1.0
C      1  0.5749580000000  0.4940620000000  0.5013780000000 1.0
C      1  0.4513970000000  0.4900460000000  0.4225160000000 1.0
C      1  0.5471410000000  0.4866910000000  0.5817920000000 1.0
C      1  0.4733180000000  0.4359010000000  0.4815940000000 1.0
C      1  0.4440080000000  0.5204400000000  0.5126700000000 1.0
C      1  0.5576730000000  0.5527470000000  0.5380170000000 1.0
C      1  0.5159890000000  0.5522800000000  0.5569010000000 1.0
C      1  0.4104790000000  0.5295110000000  0.4475330000000 1.0
C      1  0.4706560000000  0.5210270000000  0.5778960000000 1.0
C      1  0.5307330000000  0.5431320000000  0.4097710000000 1.0
C      1  0.4298570000000  0.5239830000000  0.5604160000000 1.0
C      1  0.4441560000000  0.4662490000000  0.5503610000000 1.0
C      1  0.4116020000000  0.4371630000000  0.5305160000000 1.0
C      1  0.5010940000000  0.5392500000000  0.6067350000000 1.0
C      1  0.5768800000000  0.4970800000000  0.5503290000000 1.0
C      1  0.5140860000000  0.5820050000000  0.4914940000000 1.0
C      1  0.4258350000000  0.5131640000000  0.5347010000000 1.0
C      1  0.4850820000000  0.5066940000000  0.5323230000000 1.0
C      1  0.4969660000000  0.5120290000000  0.6172110000000 1.0
C      1  0.5722970000000  0.4777890000000  0.5712040000000 1.0
C      1  0.4670000000000  0.3962820000000  0.5157740000000 1.0
C      1  0.4162970000000  0.4637900000000  0.5417280000000 1.0
C      1  0.5358380000000  0.4990800000000  0.3901950000000 1.0
C      1  0.5229290000000  0.4431250000000  0.5376050000000 1.0
C      1  0.4561250000000  0.5643540000000  0.5782910000000 1.0
C      1  0.4225970000000  0.4174030000000  0.5146840000000 1.0
C      1  0.4686630000000  0.4697500000000  0.5961320000000 1.0
C      1  0.5888740000000  0.5227180000000  0.5538980000000 1.0
C      1  0.5472940000000  0.4320370000000  0.5337330000000 1.0
C      1  0.6054870000000  0.4634720000000  0.4800180000000 1.0
C      1  0.5079880000000  0.5030950000000  0.3872970000000 1.0
C      1  0.5922500000000  0.4506300000000  0.5368630000000 1.0
C      1  0.4709500000000  0.4423780000000  0.6011410000000 1.0
C      1  0.5315990000000  0.5013360000000  0.5626600000000 1.0
C      1  0.5393560000000  0.4077300000000  0.4648600000000 1.0
C      1  0.5974830000000  0.4902630000000  0.4835380000000 1.0
C      1  0.3925380000000  0.4662900000000  0.4935880000000 1.0
C      1  0.5677880000000  0.4369560000000  0.4904900000000 1.0
C      1  0.5337170000000  0.4891440000000  0.5359460000000 1.0
C      1  0.5843830000000  0.4527910000000  0.5651300000000 1.0
C      1  0.4966220000000  0.4296610000000  0.4959600000000 1.0
C      1  0.5827490000000  0.5216910000000  0.4474960000000 1.0
C      1  0.5294400000000  0.5466750000000  0.6011370000000 1.0
C      1  0.4388610000000  0.5595130000000  0.4680680000000 1.0
C      1  0.4901290000000  0.5278560000000  0.5139030000000 1.0
C      1  0.5916450000000  0.5462250000000  0.4887770000000 1.0
C      1  0.5060030000000  0.5557810000000  0.4074590000000 1.0
C      1  0.5715940000000  0.4382690000000  0.5195600000000 1.0
C      1  0.5149800000000  0.5242160000000  0.5626520000000 1.0
C      1  0.4083380000000  0.5094580000000  0.4883440000000 1.0
C      1  0.5770600000000  0.6083500000000  0.4786810000000 1.0
C      1  0.4407180000000  0.4602570000000  0.4996360000000 1.0
C      1  0.5608010000000  0.4927590000000  0.5259440000000 1.0
C      1  0.3942830000000  0.4915060000000  0.5060690000000 1.0
C      1  0.5131760000000  0.4689380000000  0.5313900000000 1.0
C      1  0.5602120000000  0.5885140000000  0.4801520000000 1.0
C      1  0.4846000000000  0.4884290000000  0.6113150000000 1.0
END
