TITL C-612600-6631-653 160356.193942553 125000 -1077.12299380823 0 0 177 (C1) n - 1
REM
REM in /home/nfs/bkarasulu/CARBON/AIRSS/Generating-Clusters/TERSOFF/Only-C1/FIRE-HFTN
REM
REM
REM
REM
REM
REM ./C.cell (11c1c37f851c82e70ff6c80c92926a4b)
REM AIRSS Version 0.9.1 bugfix July 2018 build 013d7b7c2542+ Fri, 06 Jul 2018 19:26:36 +0100
REM compiler GCC version 9.2.1 20190827 (Red Hat 9.2.1-1)
REM options -cpp -mtune=generic -march=x86-64 -g -O0 -fpre-include=/usr/include/finclude/math-vector-fortran.h
REM seed 1030056096 618844474 -634446412 56059550 554580009 31178434 1775728074 -1391914688 -1064610900 1329814457 591621095 777200782 1728461718 1557876029 1743388106 -483245623 -716996601 816786493 -1070331307 -307607259 -417697788 1353522043 288562636 76036400 -1492324758 653981648 -277400455 -354373161 -135994408 -612088037 1642813454 -500395850 1080350622
REM
CELL 1.54180   50.00000   50.00000   50.00000   90.00000   90.00000   90.00000
LATT -1
SFAC C  
C      1  0.3837820000000  0.4169000000000  0.5406710000000 1.0
C      1  0.5748590000000  0.5447180000000  0.4261840000000 1.0
C      1  0.5316930000000  0.6137860000000  0.5488410000000 1.0
C      1  0.4090040000000  0.5798950000000  0.5267220000000 1.0
C      1  0.5356480000000  0.4700740000000  0.5386610000000 1.0
C      1  0.4104820000000  0.4627360000000  0.4174440000000 1.0
C      1  0.5122680000000  0.4781680000000  0.5228330000000 1.0
C      1  0.5521850000000  0.5353070000000  0.4644670000000 1.0
C      1  0.3978140000000  0.4912350000000  0.4780180000000 1.0
C      1  0.4823030000000  0.3818410000000  0.6092500000000 1.0
C      1  0.4668720000000  0.4756730000000  0.5931390000000 1.0
C      1  0.5713680000000  0.5780220000000  0.5478350000000 1.0
C      1  0.4363950000000  0.4202500000000  0.4765490000000 1.0
C      1  0.4950260000000  0.5517550000000  0.3883710000000 1.0
C      1  0.5243350000000  0.5614180000000  0.4379750000000 1.0
C      1  0.5306180000000  0.5118580000000  0.5668300000000 1.0
C      1  0.5017200000000  0.5253340000000  0.5190000000000 1.0
C      1  0.4621760000000  0.4886410000000  0.6173820000000 1.0
C      1  0.4183700000000  0.4879800000000  0.5666570000000 1.0
C      1  0.6206000000000  0.4838960000000  0.4833620000000 1.0
C      1  0.4338480000000  0.5200500000000  0.4787400000000 1.0
C      1  0.5874760000000  0.4501230000000  0.5712390000000 1.0
C      1  0.4559970000000  0.3783410000000  0.4743980000000 1.0
C      1  0.4692780000000  0.5774080000000  0.4226900000000 1.0
C      1  0.4273660000000  0.4480970000000  0.4345490000000 1.0
C      1  0.4905080000000  0.5608000000000  0.5495940000000 1.0
C      1  0.5405530000000  0.4381590000000  0.5959290000000 1.0
C      1  0.4115190000000  0.5063240000000  0.5458480000000 1.0
C      1  0.4372040000000  0.5770080000000  0.4615290000000 1.0
C      1  0.5870280000000  0.4530800000000  0.4360910000000 1.0
C      1  0.5742020000000  0.5897030000000  0.4652210000000 1.0
C      1  0.5133490000000  0.4472450000000  0.5962770000000 1.0
C      1  0.4501370000000  0.5558950000000  0.4220860000000 1.0
C      1  0.5196810000000  0.5502390000000  0.5206230000000 1.0
C      1  0.3606080000000  0.4025420000000  0.5393430000000 1.0
C      1  0.4893490000000  0.4898830000000  0.5487760000000 1.0
C      1  0.5321040000000  0.5978640000000  0.5723950000000 1.0
C      1  0.4587490000000  0.5209260000000  0.3683960000000 1.0
C      1  0.4070010000000  0.4630730000000  0.4831910000000 1.0
C      1  0.5004070000000  0.4258000000000  0.4148120000000 1.0
C      1  0.5229770000000  0.4233080000000  0.4574970000000 1.0
C      1  0.6096180000000  0.4420510000000  0.5069770000000 1.0
C      1  0.4978740000000  0.6145290000000  0.4838270000000 1.0
C      1  0.4336940000000  0.5196430000000  0.5332890000000 1.0
C      1  0.3914270000000  0.5412350000000  0.4936880000000 1.0
C      1  0.4508210000000  0.5398790000000  0.5755690000000 1.0
C      1  0.4781040000000  0.3970940000000  0.4681390000000 1.0
C      1  0.5366490000000  0.6003330000000  0.4122480000000 1.0
C      1  0.5805070000000  0.5509090000000  0.4977790000000 1.0
C      1  0.4114000000000  0.5070750000000  0.4339010000000 1.0
C      1  0.5029910000000  0.3980040000000  0.4231130000000 1.0
C      1  0.6431980000000  0.5326900000000  0.4487120000000 1.0
C      1  0.4612070000000  0.4966350000000  0.6421820000000 1.0
C      1  0.4660170000000  0.4111550000000  0.5377710000000 1.0
C      1  0.5542130000000  0.5394390000000  0.4918970000000 1.0
C      1  0.4611560000000  0.5306650000000  0.4152650000000 1.0
C      1  0.4874070000000  0.4332920000000  0.5988150000000 1.0
C      1  0.4728030000000  0.5593520000000  0.6144670000000 1.0
C      1  0.5141020000000  0.5369600000000  0.5682640000000 1.0
C      1  0.5696570000000  0.4940000000000  0.4381330000000 1.0
C      1  0.5802310000000  0.5037300000000  0.3932040000000 1.0
C      1  0.4292980000000  0.5741290000000  0.4870190000000 1.0
C      1  0.5788220000000  0.6013880000000  0.4396240000000 1.0
C      1  0.4372310000000  0.5208990000000  0.5054050000000 1.0
C      1  0.4836320000000  0.5763480000000  0.5713790000000 1.0
C      1  0.4563840000000  0.4466730000000  0.4268050000000 1.0
C      1  0.4578370000000  0.4568630000000  0.5194790000000 1.0
C      1  0.5107430000000  0.4998450000000  0.4535190000000 1.0
C      1  0.5637490000000  0.4741120000000  0.4958680000000 1.0
C      1  0.5646320000000  0.4527780000000  0.5904550000000 1.0
C      1  0.5724980000000  0.4534020000000  0.4095350000000 1.0
C      1  0.4862600000000  0.4656600000000  0.3929750000000 1.0
C      1  0.5912220000000  0.4226300000000  0.5046940000000 1.0
C      1  0.4281420000000  0.4630720000000  0.5574510000000 1.0
C      1  0.5041380000000  0.5233720000000  0.4679720000000 1.0
C      1  0.4871190000000  0.4080400000000  0.6109970000000 1.0
C      1  0.4894790000000  0.5283550000000  0.4924860000000 1.0
C      1  0.4661990000000  0.5860970000000  0.4583360000000 1.0
C      1  0.4791430000000  0.5547090000000  0.4937480000000 1.0
C      1  0.5872250000000  0.5052750000000  0.6376870000000 1.0
C      1  0.5916840000000  0.5387110000000  0.5221790000000 1.0
C      1  0.5679350000000  0.5604850000000  0.5893940000000 1.0
C      1  0.5401910000000  0.4256750000000  0.5111060000000 1.0
C      1  0.5321660000000  0.4945140000000  0.5913120000000 1.0
C      1  0.4740700000000  0.4640320000000  0.4967710000000 1.0
C      1  0.4908790000000  0.4049000000000  0.4943590000000 1.0
C      1  0.4298340000000  0.4157250000000  0.5681250000000 1.0
C      1  0.5213570000000  0.5441610000000  0.3808560000000 1.0
C      1  0.4349690000000  0.5084200000000  0.3686240000000 1.0
C      1  0.5115700000000  0.4752350000000  0.5904850000000 1.0
C      1  0.4068590000000  0.5644060000000  0.5018040000000 1.0
C      1  0.4641530000000  0.5627240000000  0.5875370000000 1.0
C      1  0.4690880000000  0.5091490000000  0.4325780000000 1.0
C      1  0.4779300000000  0.4427510000000  0.4073760000000 1.0
C      1  0.5471270000000  0.5385150000000  0.3860180000000 1.0
C      1  0.6055970000000  0.4849440000000  0.5309510000000 1.0
C      1  0.4818060000000  0.5156190000000  0.5399820000000 1.0
C      1  0.4712460000000  0.4387620000000  0.5374490000000 1.0
C      1  0.5143950000000  0.4284220000000  0.4911960000000 1.0
C      1  0.4925400000000  0.5747700000000  0.4066080000000 1.0
C      1  0.5963890000000  0.5456360000000  0.4484550000000 1.0
C      1  0.4200560000000  0.4429280000000  0.4643630000000 1.0
C      1  0.5617750000000  0.6067360000000  0.4194000000000 1.0
C      1  0.5800830000000  0.4761640000000  0.3926800000000 1.0
C      1  0.4310180000000  0.4608070000000  0.5280870000000 1.0
C      1  0.5173260000000  0.5811700000000  0.4189260000000 1.0
C      1  0.5012690000000  0.4589670000000  0.5020690000000 1.0
C      1  0.5475490000000  0.4947420000000  0.5500360000000 1.0
C      1  0.5235720000000  0.4383290000000  0.4302020000000 1.0
C      1  0.6129060000000  0.4958860000000  0.4583180000000 1.0
C      1  0.4695280000000  0.3665770000000  0.5912660000000 1.0
C      1  0.5313560000000  0.4799040000000  0.4573530000000 1.0
C      1  0.3841720000000  0.5076630000000  0.5402100000000 1.0
C      1  0.4707940000000  0.6055080000000  0.4830140000000 1.0
C      1  0.6156620000000  0.4697040000000  0.5081400000000 1.0
C      1  0.5055310000000  0.5920350000000  0.5814930000000 1.0
C      1  0.4085190000000  0.4550060000000  0.5111860000000 1.0
C      1  0.4673520000000  0.4695190000000  0.4694530000000 1.0
C      1  0.4623140000000  0.4474460000000  0.5909690000000 1.0
C      1  0.4685340000000  0.4465490000000  0.4528870000000 1.0
C      1  0.4628870000000  0.4213590000000  0.4629210000000 1.0
C      1  0.5933280000000  0.4743010000000  0.5552740000000 1.0
C      1  0.5045370000000  0.5497700000000  0.4545090000000 1.0
C      1  0.5653590000000  0.4151470000000  0.5039030000000 1.0
C      1  0.5556850000000  0.5813900000000  0.5733140000000 1.0
C      1  0.5498210000000  0.5511500000000  0.4411050000000 1.0
C      1  0.5951500000000  0.4808020000000  0.4413370000000 1.0
C      1  0.5886710000000  0.5644340000000  0.4721930000000 1.0
C      1  0.4530020000000  0.5900100000000  0.5089790000000 1.0
C      1  0.3832550000000  0.5126560000000  0.4932690000000 1.0
C      1  0.5700510000000  0.5298640000000  0.4009580000000 1.0
C      1  0.5243520000000  0.6101270000000  0.4784600000000 1.0
C      1  0.5918420000000  0.5092110000000  0.5214350000000 1.0
C      1  0.4669640000000  0.4009450000000  0.5121280000000 1.0
C      1  0.5721580000000  0.4916150000000  0.5651960000000 1.0
C      1  0.5217200000000  0.5048380000000  0.5129270000000 1.0
C      1  0.5269410000000  0.5756030000000  0.5176700000000 1.0
C      1  0.5651950000000  0.5121790000000  0.4578940000000 1.0
C      1  0.4606850000000  0.4934220000000  0.4552650000000 1.0
C      1  0.4739940000000  0.5686980000000  0.5188050000000 1.0
C      1  0.5468490000000  0.5159040000000  0.5062320000000 1.0
C      1  0.4502630000000  0.3988840000000  0.5577590000000 1.0
C      1  0.5871780000000  0.5530570000000  0.5465600000000 1.0
C      1  0.4031710000000  0.4116680000000  0.5604320000000 1.0
C      1  0.4157570000000  0.5067780000000  0.4614960000000 1.0
C      1  0.4329960000000  0.5256880000000  0.5926070000000 1.0
C      1  0.6169170000000  0.5245670000000  0.4519680000000 1.0
C      1  0.4962400000000  0.4994510000000  0.4282700000000 1.0
C      1  0.4102570000000  0.4902400000000  0.4113230000000 1.0
C      1  0.4565390000000  0.5269190000000  0.5495800000000 1.0
C      1  0.3896650000000  0.4370130000000  0.5218610000000 1.0
C      1  0.4996710000000  0.4865420000000  0.4036210000000 1.0
C      1  0.4288310000000  0.5617380000000  0.4392980000000 1.0
C      1  0.4735240000000  0.5328430000000  0.3890120000000 1.0
C      1  0.5694800000000  0.4454750000000  0.4581760000000 1.0
C      1  0.4846020000000  0.5650320000000  0.4676740000000 1.0
C      1  0.5615340000000  0.4838450000000  0.5936150000000 1.0
C      1  0.5441830000000  0.4549980000000  0.4184760000000 1.0
C      1  0.5293940000000  0.6011820000000  0.5252080000000 1.0
C      1  0.4980100000000  0.5496060000000  0.6174930000000 1.0
C      1  0.5857160000000  0.5447870000000  0.5745430000000 1.0
C      1  0.4324650000000  0.5951580000000  0.5301460000000 1.0
C      1  0.4211740000000  0.5014340000000  0.5911210000000 1.0
C      1  0.5411440000000  0.4428570000000  0.5340770000000 1.0
C      1  0.3705390000000  0.5051830000000  0.5172690000000 1.0
C      1  0.4164380000000  0.4990230000000  0.3854650000000 1.0
C      1  0.4882060000000  0.4829460000000  0.5758120000000 1.0
C      1  0.5452560000000  0.4804270000000  0.4314680000000 1.0
C      1  0.4422590000000  0.3959390000000  0.4945940000000 1.0
C      1  0.5133780000000  0.5436450000000  0.5961220000000 1.0
C      1  0.5761590000000  0.4948900000000  0.6165170000000 1.0
C      1  0.5173490000000  0.3962260000000  0.4470730000000 1.0
C      1  0.5495710000000  0.5996370000000  0.4769550000000 1.0
C      1  0.4386920000000  0.4419860000000  0.5748940000000 1.0
C      1  0.5514470000000  0.4634960000000  0.4730270000000 1.0
C      1  0.5684920000000  0.4984220000000  0.5081930000000 1.0
C      1  0.4562700000000  0.3741230000000  0.5692090000000 1.0
END
