TITL C-612604-1799-1357 -0.000134554757309116 125000 -604.871411192569 0 0 99 (C1) n - 1
REM
REM in /home/nfs/bkarasulu/CARBON/AIRSS/Generating-Clusters/TERSOFF/Only-C1/FIRE-HFTN
REM
REM
REM
REM
REM
REM ./C.cell (11c1c37f851c82e70ff6c80c92926a4b)
REM AIRSS Version 0.9.1 bugfix July 2018 build 013d7b7c2542+ Fri, 06 Jul 2018 19:26:36 +0100
REM compiler GCC version 9.2.1 20190827 (Red Hat 9.2.1-1)
REM options -cpp -mtune=generic -march=x86-64 -g -O0 -fpre-include=/usr/include/finclude/math-vector-fortran.h
REM seed 947646697 308581623 522602920 1873030462 -1172813808 -1942635955 2052359222 -126453208 -1574924597 -1456340236 500307832 655944048 -1586707684 1373725217 1890000865 376124436 -1856226508 -1103388342 397979107 609662057 139314861 -1385274462 -160894169 -1493228066 385790290 1155662866 -1819950712 -2005884279 1566568352 291194983 -687946210 1198375483 -1600985146
REM
CELL 1.54180   50.00000   50.00000   50.00000   90.00000   90.00000   90.00000
LATT -1
SFAC C  
C      1  0.4877410000000  0.4851890000000  0.3962690000000 1.0
C      1  0.5470030000000  0.5852530000000  0.4786710000000 1.0
C      1  0.4571200000000  0.4953880000000  0.5255890000000 1.0
C      1  0.4060510000000  0.4862660000000  0.5243690000000 1.0
C      1  0.4975810000000  0.5878600000000  0.4817680000000 1.0
C      1  0.4132550000000  0.5051880000000  0.3988660000000 1.0
C      1  0.4137420000000  0.4928090000000  0.4760400000000 1.0
C      1  0.4768300000000  0.4180990000000  0.5082270000000 1.0
C      1  0.5009710000000  0.5506550000000  0.5231200000000 1.0
C      1  0.4016990000000  0.4836350000000  0.4097720000000 1.0
C      1  0.5571350000000  0.5747880000000  0.5830080000000 1.0
C      1  0.4400970000000  0.4385730000000  0.4793650000000 1.0
C      1  0.5528880000000  0.5002910000000  0.5930410000000 1.0
C      1  0.5481520000000  0.5264480000000  0.5320080000000 1.0
C      1  0.5557190000000  0.4810700000000  0.5715010000000 1.0
C      1  0.4342840000000  0.5237080000000  0.4012460000000 1.0
C      1  0.5423550000000  0.5317700000000  0.5045130000000 1.0
C      1  0.4893640000000  0.5456010000000  0.5469110000000 1.0
C      1  0.4779460000000  0.4420350000000  0.4139950000000 1.0
C      1  0.5280570000000  0.4501330000000  0.4480170000000 1.0
C      1  0.5185480000000  0.6088240000000  0.5681600000000 1.0
C      1  0.5367320000000  0.5938340000000  0.5804240000000 1.0
C      1  0.5136400000000  0.4552530000000  0.5777780000000 1.0
C      1  0.4605120000000  0.5892420000000  0.4485300000000 1.0
C      1  0.5059670000000  0.5181220000000  0.4248150000000 1.0
C      1  0.5721910000000  0.5918560000000  0.4840190000000 1.0
C      1  0.4784680000000  0.4170130000000  0.4275040000000 1.0
C      1  0.5417590000000  0.4562620000000  0.5753350000000 1.0
C      1  0.4864230000000  0.5316270000000  0.5715510000000 1.0
C      1  0.4253550000000  0.4860560000000  0.5705830000000 1.0
C      1  0.5721640000000  0.5162440000000  0.5423480000000 1.0
C      1  0.4623480000000  0.5185140000000  0.5784820000000 1.0
C      1  0.5681210000000  0.4741120000000  0.5217390000000 1.0
C      1  0.4669980000000  0.4374700000000  0.4891200000000 1.0
C      1  0.4925000000000  0.4793930000000  0.4878400000000 1.0
C      1  0.4448450000000  0.5890400000000  0.4269570000000 1.0
C      1  0.4747940000000  0.4499920000000  0.5482360000000 1.0
C      1  0.5777630000000  0.4591680000000  0.4596410000000 1.0
C      1  0.4573380000000  0.4105020000000  0.4438070000000 1.0
C      1  0.5679420000000  0.4888030000000  0.4963170000000 1.0
C      1  0.4629890000000  0.4714520000000  0.5342720000000 1.0
C      1  0.5221680000000  0.4979870000000  0.4378630000000 1.0
C      1  0.4117760000000  0.4759800000000  0.4981630000000 1.0
C      1  0.5213470000000  0.5514200000000  0.5028210000000 1.0
C      1  0.5703890000000  0.4115310000000  0.5849570000000 1.0
C      1  0.5981210000000  0.5865860000000  0.5516950000000 1.0
C      1  0.5106670000000  0.4384000000000  0.4668730000000 1.0
C      1  0.4904980000000  0.6084340000000  0.4993270000000 1.0
C      1  0.4139430000000  0.4338980000000  0.5213380000000 1.0
C      1  0.5511570000000  0.5491430000000  0.5924040000000 1.0
C      1  0.4507630000000  0.4505150000000  0.4112090000000 1.0
C      1  0.5033310000000  0.6180100000000  0.5483990000000 1.0
C      1  0.4852790000000  0.5486460000000  0.4565430000000 1.0
C      1  0.4310360000000  0.5510180000000  0.3957870000000 1.0
C      1  0.4798800000000  0.5756070000000  0.4634230000000 1.0
C      1  0.5823050000000  0.5804210000000  0.5721460000000 1.0
C      1  0.5683520000000  0.4200340000000  0.5168610000000 1.0
C      1  0.4981000000000  0.4025240000000  0.4977360000000 1.0
C      1  0.4828420000000  0.5094530000000  0.4097520000000 1.0
C      1  0.4823620000000  0.5038170000000  0.4785780000000 1.0
C      1  0.4931350000000  0.6184990000000  0.5238380000000 1.0
C      1  0.5565460000000  0.4328290000000  0.5791270000000 1.0
C      1  0.5067640000000  0.4800890000000  0.5118050000000 1.0
C      1  0.4503260000000  0.4931610000000  0.5821740000000 1.0
C      1  0.5699670000000  0.4880940000000  0.5469730000000 1.0
C      1  0.5671050000000  0.4461770000000  0.5209750000000 1.0
C      1  0.5558300000000  0.4475850000000  0.4499120000000 1.0
C      1  0.4859160000000  0.4567540000000  0.5735610000000 1.0
C      1  0.6019370000000  0.5917430000000  0.5258900000000 1.0
C      1  0.5659290000000  0.4948530000000  0.6166820000000 1.0
C      1  0.5869280000000  0.4792570000000  0.4769480000000 1.0
C      1  0.4882050000000  0.4533520000000  0.4776040000000 1.0
C      1  0.5224610000000  0.5745500000000  0.4864620000000 1.0
C      1  0.5125810000000  0.4921680000000  0.5345610000000 1.0
C      1  0.4711430000000  0.5248930000000  0.4638360000000 1.0
C      1  0.4065680000000  0.4617720000000  0.4246070000000 1.0
C      1  0.5494020000000  0.5097200000000  0.4866690000000 1.0
C      1  0.5045810000000  0.5436290000000  0.4364740000000 1.0
C      1  0.4561980000000  0.5165530000000  0.4181780000000 1.0
C      1  0.6122540000000  0.4893330000000  0.4756380000000 1.0
C      1  0.4970460000000  0.4629300000000  0.4114450000000 1.0
C      1  0.4107090000000  0.4451020000000  0.5460510000000 1.0
C      1  0.4501950000000  0.5170100000000  0.4462850000000 1.0
C      1  0.4267750000000  0.5071300000000  0.4578420000000 1.0
C      1  0.5375090000000  0.5245570000000  0.5914860000000 1.0
C      1  0.4754560000000  0.4251790000000  0.5353230000000 1.0
C      1  0.4200410000000  0.4481410000000  0.4972460000000 1.0
C      1  0.5376570000000  0.5057280000000  0.4608000000000 1.0
C      1  0.5095990000000  0.5260860000000  0.5870660000000 1.0
C      1  0.5171460000000  0.4700280000000  0.4309670000000 1.0
C      1  0.4683680000000  0.4723240000000  0.5894560000000 1.0
C      1  0.4296610000000  0.4470250000000  0.4302300000000 1.0
C      1  0.5140700000000  0.4125860000000  0.4781720000000 1.0
C      1  0.5704510000000  0.3943310000000  0.5130590000000 1.0
C      1  0.4345670000000  0.5751570000000  0.4066390000000 1.0
C      1  0.4375480000000  0.4300260000000  0.4521310000000 1.0
C      1  0.5259630000000  0.5132700000000  0.5436230000000 1.0
C      1  0.5924270000000  0.5939400000000  0.5011480000000 1.0
C      1  0.4113290000000  0.4734830000000  0.5494900000000 1.0
END
