TITL C-612606-7351-1263 -0.00212682641357881 125000 -639.058549962225 0 0 104 (C1) n - 1
REM
REM in /home/nfs/bkarasulu/CARBON/AIRSS/Generating-Clusters/TERSOFF/Only-C1/FIRE-HFTN
REM
REM
REM
REM
REM
REM ./C.cell (11c1c37f851c82e70ff6c80c92926a4b)
REM AIRSS Version 0.9.1 bugfix July 2018 build 013d7b7c2542+ Fri, 06 Jul 2018 19:26:36 +0100
REM compiler GCC version 9.2.1 20190827 (Red Hat 9.2.1-1)
REM options -cpp -mtune=generic -march=x86-64 -g -O0 -fpre-include=/usr/include/finclude/math-vector-fortran.h
REM seed -1418932065 214560779 -1200428150 -229074791 897756651 -878484108 -807025721 -1079595091 36521224 1296919929 1505438813 683980718 245250315 -1595714096 1869901708 -2089852010 1385650295 1515377689 1921737645 -1323474152 -504515642 -184510913 1585475926 -1328796158 580119116 1803667609 -1498597317 -354385080 1964063247 -1601823280 537935748 -1625388258 -576023901
REM
CELL 1.54180   50.00000   50.00000   50.00000   90.00000   90.00000   90.00000
LATT -1
SFAC C  
C      1  0.5675760000000  0.5001240000000  0.5651190000000 1.0
C      1  0.5076540000000  0.5834410000000  0.4641430000000 1.0
C      1  0.5865260000000  0.5004290000000  0.5429630000000 1.0
C      1  0.4561750000000  0.6009820000000  0.5119960000000 1.0
C      1  0.5321930000000  0.5427050000000  0.4692920000000 1.0
C      1  0.4386800000000  0.5180920000000  0.4388870000000 1.0
C      1  0.4685030000000  0.5470600000000  0.5293400000000 1.0
C      1  0.5124320000000  0.4141190000000  0.4542160000000 1.0
C      1  0.6339010000000  0.4499500000000  0.4277200000000 1.0
C      1  0.4889220000000  0.5615550000000  0.4570750000000 1.0
C      1  0.5711970000000  0.5482630000000  0.5305860000000 1.0
C      1  0.4937160000000  0.5108260000000  0.4553290000000 1.0
C      1  0.5000080000000  0.4569560000000  0.4799690000000 1.0
C      1  0.5218490000000  0.4483210000000  0.4137390000000 1.0
C      1  0.4893230000000  0.4009770000000  0.4646630000000 1.0
C      1  0.5621690000000  0.4562790000000  0.4382480000000 1.0
C      1  0.4467210000000  0.5479780000000  0.4790580000000 1.0
C      1  0.5850990000000  0.4438080000000  0.4495640000000 1.0
C      1  0.5138310000000  0.4244990000000  0.5398550000000 1.0
C      1  0.4425420000000  0.4189140000000  0.4779870000000 1.0
C      1  0.4316960000000  0.5275150000000  0.4658090000000 1.0
C      1  0.4585460000000  0.4747890000000  0.4393300000000 1.0
C      1  0.4788320000000  0.4304330000000  0.4240190000000 1.0
C      1  0.5604790000000  0.5517860000000  0.5567970000000 1.0
C      1  0.5446630000000  0.4704170000000  0.4552260000000 1.0
C      1  0.4827940000000  0.4906030000000  0.4388460000000 1.0
C      1  0.4501830000000  0.5359160000000  0.5727420000000 1.0
C      1  0.5341320000000  0.4158900000000  0.4726570000000 1.0
C      1  0.5321440000000  0.4890560000000  0.5247750000000 1.0
C      1  0.5500930000000  0.4758760000000  0.5663800000000 1.0
C      1  0.4772510000000  0.4846230000000  0.5743820000000 1.0
C      1  0.5503290000000  0.4476040000000  0.4138950000000 1.0
C      1  0.4965060000000  0.5980850000000  0.4865860000000 1.0
C      1  0.4550890000000  0.5274250000000  0.4170170000000 1.0
C      1  0.5067380000000  0.4290680000000  0.4294780000000 1.0
C      1  0.5126970000000  0.5100560000000  0.5941480000000 1.0
C      1  0.4863600000000  0.5555780000000  0.5947580000000 1.0
C      1  0.4965120000000  0.4756000000000  0.5541150000000 1.0
C      1  0.4081910000000  0.4809670000000  0.4422510000000 1.0
C      1  0.5655200000000  0.5118230000000  0.5006430000000 1.0
C      1  0.4569670000000  0.5396940000000  0.5035470000000 1.0
C      1  0.4503300000000  0.5819980000000  0.5564980000000 1.0
C      1  0.5565160000000  0.4382340000000  0.5137920000000 1.0
C      1  0.5048860000000  0.5364580000000  0.4592070000000 1.0
C      1  0.5443290000000  0.5761530000000  0.5601550000000 1.0
C      1  0.5001920000000  0.5937630000000  0.5364980000000 1.0
C      1  0.5538990000000  0.5260150000000  0.5694570000000 1.0
C      1  0.4901800000000  0.4722170000000  0.5248220000000 1.0
C      1  0.5018330000000  0.5624180000000  0.5722090000000 1.0
C      1  0.4754560000000  0.5156830000000  0.4022080000000 1.0
C      1  0.4669610000000  0.5123330000000  0.5031520000000 1.0
C      1  0.5416340000000  0.4330820000000  0.5386550000000 1.0
C      1  0.4306390000000  0.4741870000000  0.5516980000000 1.0
C      1  0.5135260000000  0.5940510000000  0.5104080000000 1.0
C      1  0.4857750000000  0.4552110000000  0.5027150000000 1.0
C      1  0.5212150000000  0.4676150000000  0.4676670000000 1.0
C      1  0.4130470000000  0.5040510000000  0.4836300000000 1.0
C      1  0.4299880000000  0.4406860000000  0.4870420000000 1.0
C      1  0.6106130000000  0.4470080000000  0.4390400000000 1.0
C      1  0.4566410000000  0.5035560000000  0.5290130000000 1.0
C      1  0.4699440000000  0.5320190000000  0.5924450000000 1.0
C      1  0.4600880000000  0.4480440000000  0.4313500000000 1.0
C      1  0.5257640000000  0.4813610000000  0.5522140000000 1.0
C      1  0.5698690000000  0.4122070000000  0.3878650000000 1.0
C      1  0.4333390000000  0.6160320000000  0.5117860000000 1.0
C      1  0.5090390000000  0.5388710000000  0.5557740000000 1.0
C      1  0.5809960000000  0.5218760000000  0.5236690000000 1.0
C      1  0.4057670000000  0.5209660000000  0.5454150000000 1.0
C      1  0.5751830000000  0.4574540000000  0.3739160000000 1.0
C      1  0.4916970000000  0.4933110000000  0.4111040000000 1.0
C      1  0.5260370000000  0.5233640000000  0.5732190000000 1.0
C      1  0.3963010000000  0.4909620000000  0.4645340000000 1.0
C      1  0.5799590000000  0.4282710000000  0.4725520000000 1.0
C      1  0.5542650000000  0.4867180000000  0.5078810000000 1.0
C      1  0.4340700000000  0.5593740000000  0.5654190000000 1.0
C      1  0.5378360000000  0.5792910000000  0.5007850000000 1.0
C      1  0.4693620000000  0.5938300000000  0.5371360000000 1.0
C      1  0.4845910000000  0.5066030000000  0.5918410000000 1.0
C      1  0.5074440000000  0.4928990000000  0.5132980000000 1.0
C      1  0.4863390000000  0.4249460000000  0.5412370000000 1.0
C      1  0.4639130000000  0.4038930000000  0.4724770000000 1.0
C      1  0.5917040000000  0.4744090000000  0.5309270000000 1.0
C      1  0.5158800000000  0.5833480000000  0.5589170000000 1.0
C      1  0.4104470000000  0.5467840000000  0.5537740000000 1.0
C      1  0.5531700000000  0.4472480000000  0.5618760000000 1.0
C      1  0.5563920000000  0.4247330000000  0.4881440000000 1.0
C      1  0.5514380000000  0.5321030000000  0.4871010000000 1.0
C      1  0.4631760000000  0.5691840000000  0.4695850000000 1.0
C      1  0.4171050000000  0.4879480000000  0.5075890000000 1.0
C      1  0.4495600000000  0.4784440000000  0.5723120000000 1.0
C      1  0.4683780000000  0.5921200000000  0.4880110000000 1.0
C      1  0.5707380000000  0.4638440000000  0.5140520000000 1.0
C      1  0.5653410000000  0.4389630000000  0.3915550000000 1.0
C      1  0.4144430000000  0.4950300000000  0.5366490000000 1.0
C      1  0.5087610000000  0.4720230000000  0.4034310000000 1.0
C      1  0.5562790000000  0.5599250000000  0.5097550000000 1.0
C      1  0.4603880000000  0.4340410000000  0.5390350000000 1.0
C      1  0.5322630000000  0.5720660000000  0.4725520000000 1.0
C      1  0.4954650000000  0.5170180000000  0.5093190000000 1.0
C      1  0.4970680000000  0.5380030000000  0.5297530000000 1.0
C      1  0.4345210000000  0.4894200000000  0.4369600000000 1.0
C      1  0.4386740000000  0.4524770000000  0.5334460000000 1.0
C      1  0.4566120000000  0.5257740000000  0.5471790000000 1.0
C      1  0.4279930000000  0.4600020000000  0.5071450000000 1.0
END
