TITL C-612602-9376-96 -7.47506480288531 125000 -484.547757018592 0 0 81 (C1) n - 1
REM
REM in /home/nfs/bkarasulu/CARBON/AIRSS/Generating-Clusters/TERSOFF/Only-C1/FIRE-HFTN
REM
REM
REM
REM
REM
REM ./C.cell (11c1c37f851c82e70ff6c80c92926a4b)
REM AIRSS Version 0.9.1 bugfix July 2018 build 013d7b7c2542+ Fri, 06 Jul 2018 19:26:36 +0100
REM compiler GCC version 9.2.1 20190827 (Red Hat 9.2.1-1)
REM options -cpp -mtune=generic -march=x86-64 -g -O0 -fpre-include=/usr/include/finclude/math-vector-fortran.h
REM seed 473895230 -1913454741 1308843495 759128104 1024450540 492164149 1311857635 70357247 491814766 1130338537 392266936 1343843426 196453892 -752365418 1833691451 -176368599 -100547193 -1651858661 -970975709 -1837834398 1103031886 548886441 -2113184785 1556483645 -1273612823 708941787 1870125013 -906618331 2007166318 1751678221 -1716206430 225757989 -134283318
REM
CELL 1.54180   50.00000   50.00000   50.00000   90.00000   90.00000   90.00000
LATT -1
SFAC C  
C      1  0.4508080000000  0.5279510000000  0.5040820000000 1.0
C      1  0.4456940000000  0.4499150000000  0.5377010000000 1.0
C      1  0.6010140000000  0.4926980000000  0.4214690000000 1.0
C      1  0.5139020000000  0.4138670000000  0.5210080000000 1.0
C      1  0.4767920000000  0.4743100000000  0.4583570000000 1.0
C      1  0.4666310000000  0.4497280000000  0.4692260000000 1.0
C      1  0.4892350000000  0.4536120000000  0.5625060000000 1.0
C      1  0.5699220000000  0.5273020000000  0.3984800000000 1.0
C      1  0.4490730000000  0.4795380000000  0.5757330000000 1.0
C      1  0.4874890000000  0.5357480000000  0.5043820000000 1.0
C      1  0.4195780000000  0.5024690000000  0.4723000000000 1.0
C      1  0.4936030000000  0.5692700000000  0.4428680000000 1.0
C      1  0.5036110000000  0.3889080000000  0.5283270000000 1.0
C      1  0.4452230000000  0.5193760000000  0.4758530000000 1.0
C      1  0.4407690000000  0.5218480000000  0.4161100000000 1.0
C      1  0.5181270000000  0.4907740000000  0.5007270000000 1.0
C      1  0.5138050000000  0.4900030000000  0.5815230000000 1.0
C      1  0.5914390000000  0.4766830000000  0.5200450000000 1.0
C      1  0.5875320000000  0.5085360000000  0.4049830000000 1.0
C      1  0.4816510000000  0.5510730000000  0.4247510000000 1.0
C      1  0.5335760000000  0.4845060000000  0.4776930000000 1.0
C      1  0.4534440000000  0.5048280000000  0.5224630000000 1.0
C      1  0.5235450000000  0.4350010000000  0.4789010000000 1.0
C      1  0.5187290000000  0.5809740000000  0.5106470000000 1.0
C      1  0.4462090000000  0.5696500000000  0.4696470000000 1.0
C      1  0.4979450000000  0.5430910000000  0.4033980000000 1.0
C      1  0.5771950000000  0.5136180000000  0.5963030000000 1.0
C      1  0.4909780000000  0.5205050000000  0.5493890000000 1.0
C      1  0.4969100000000  0.5086080000000  0.5052680000000 1.0
C      1  0.5163480000000  0.4916940000000  0.4333190000000 1.0
C      1  0.4581090000000  0.4378970000000  0.5155050000000 1.0
C      1  0.5387590000000  0.4567070000000  0.4746520000000 1.0
C      1  0.4408270000000  0.4436620000000  0.4589040000000 1.0
C      1  0.4807930000000  0.5006630000000  0.5293540000000 1.0
C      1  0.5237130000000  0.5426380000000  0.3963490000000 1.0
C      1  0.5344170000000  0.4257490000000  0.5374070000000 1.0
C      1  0.4922380000000  0.5088540000000  0.5753950000000 1.0
C      1  0.5029580000000  0.4577650000000  0.5383440000000 1.0
C      1  0.4666320000000  0.5856730000000  0.4773580000000 1.0
C      1  0.5502120000000  0.5386790000000  0.5647630000000 1.0
C      1  0.4930280000000  0.5822660000000  0.4679960000000 1.0
C      1  0.5033520000000  0.4635890000000  0.5849320000000 1.0
C      1  0.4762370000000  0.4368980000000  0.4934780000000 1.0
C      1  0.4090230000000  0.5857030000000  0.5430570000000 1.0
C      1  0.4928700000000  0.3662870000000  0.5355380000000 1.0
C      1  0.5407040000000  0.5876180000000  0.4675010000000 1.0
C      1  0.5533930000000  0.4688030000000  0.5578090000000 1.0
C      1  0.4239230000000  0.5021460000000  0.4235050000000 1.0
C      1  0.5410640000000  0.4908580000000  0.5726890000000 1.0
C      1  0.5562740000000  0.5668510000000  0.4226660000000 1.0
C      1  0.4180170000000  0.4879690000000  0.4471790000000 1.0
C      1  0.4662930000000  0.5001120000000  0.5850040000000 1.0
C      1  0.5534560000000  0.4266350000000  0.5816470000000 1.0
C      1  0.4613190000000  0.4565910000000  0.5615120000000 1.0
C      1  0.4214250000000  0.4664630000000  0.5384450000000 1.0
C      1  0.5503420000000  0.5463000000000  0.4044460000000 1.0
C      1  0.5181960000000  0.4709250000000  0.5208390000000 1.0
C      1  0.5467300000000  0.4404910000000  0.5588220000000 1.0
C      1  0.6034130000000  0.4758390000000  0.4964050000000 1.0
C      1  0.4230110000000  0.4813410000000  0.5634230000000 1.0
C      1  0.4073330000000  0.4760400000000  0.5163670000000 1.0
C      1  0.5537110000000  0.5805670000000  0.4453300000000 1.0
C      1  0.5375800000000  0.5571110000000  0.5502180000000 1.0
C      1  0.5562690000000  0.5145550000000  0.5778080000000 1.0
C      1  0.5034980000000  0.4267820000000  0.4970820000000 1.0
C      1  0.5328800000000  0.4988950000000  0.4534950000000 1.0
C      1  0.4953820000000  0.5446140000000  0.5316180000000 1.0
C      1  0.4464080000000  0.5438090000000  0.4580540000000 1.0
C      1  0.5745070000000  0.4755190000000  0.5403960000000 1.0
C      1  0.4217280000000  0.4599340000000  0.4488620000000 1.0
C      1  0.4662200000000  0.4987420000000  0.4676660000000 1.0
C      1  0.6084580000000  0.4819440000000  0.4445550000000 1.0
C      1  0.6092310000000  0.4767190000000  0.4705480000000 1.0
C      1  0.4064070000000  0.4918640000000  0.4948500000000 1.0
C      1  0.5167240000000  0.5632410000000  0.5325190000000 1.0
C      1  0.4560920000000  0.5400470000000  0.4312050000000 1.0
C      1  0.5969150000000  0.5117860000000  0.6132410000000 1.0
C      1  0.4941640000000  0.4766090000000  0.4362930000000 1.0
C      1  0.4357100000000  0.5499100000000  0.5153260000000 1.0
C      1  0.5171990000000  0.5854740000000  0.4828340000000 1.0
C      1  0.4220800000000  0.5677810000000  0.5293510000000 1.0
END
