TITL C-612600-6631-842 3519.06834971457 125000 -523.363394487934 0 0 87 (C1) n - 1
REM
REM in /home/nfs/bkarasulu/CARBON/AIRSS/Generating-Clusters/TERSOFF/Only-C1/FIRE-HFTN
REM
REM
REM
REM
REM
REM ./C.cell (11c1c37f851c82e70ff6c80c92926a4b)
REM AIRSS Version 0.9.1 bugfix July 2018 build 013d7b7c2542+ Fri, 06 Jul 2018 19:26:36 +0100
REM compiler GCC version 9.2.1 20190827 (Red Hat 9.2.1-1)
REM options -cpp -mtune=generic -march=x86-64 -g -O0 -fpre-include=/usr/include/finclude/math-vector-fortran.h
REM seed 1383576555 -574783989 -1773165161 -1730691019 719077901 -428928771 -891532290 1904060177 484794286 915020119 2114832604 638128444 500162248 -252500730 -1257843146 443602123 -1887940686 1774847598 940194880 900591165 90625013 902207051 195669993 -599555264 2136618690 2107502163 -441702255 174034681 1576222879 -500206513 891210236 -448601078 -47744814
REM
CELL 1.54180   50.00000   50.00000   50.00000   90.00000   90.00000   90.00000
LATT -1
SFAC C  
C      1  0.4482330000000  0.5631900000000  0.5008450000000 1.0
C      1  0.5161420000000  0.5763170000000  0.5379180000000 1.0
C      1  0.5102110000000  0.4868380000000  0.4315410000000 1.0
C      1  0.4389280000000  0.4418350000000  0.4788280000000 1.0
C      1  0.3991530000000  0.4690440000000  0.4872720000000 1.0
C      1  0.4967480000000  0.5110470000000  0.4295250000000 1.0
C      1  0.5358070000000  0.4840490000000  0.4436030000000 1.0
C      1  0.5024220000000  0.5663600000000  0.4244760000000 1.0
C      1  0.5805070000000  0.4497700000000  0.5622990000000 1.0
C      1  0.4815750000000  0.5437890000000  0.5389370000000 1.0
C      1  0.5321740000000  0.5186440000000  0.5002070000000 1.0
C      1  0.4454870000000  0.4434620000000  0.5721620000000 1.0
C      1  0.4887700000000  0.5697840000000  0.5310820000000 1.0
C      1  0.4913260000000  0.4642700000000  0.5170150000000 1.0
C      1  0.4256040000000  0.4671470000000  0.4776640000000 1.0
C      1  0.4580710000000  0.4215430000000  0.4849040000000 1.0
C      1  0.5310620000000  0.5573820000000  0.5547500000000 1.0
C      1  0.4722260000000  0.4860490000000  0.5865760000000 1.0
C      1  0.4686620000000  0.4793290000000  0.5090960000000 1.0
C      1  0.4556220000000  0.4651290000000  0.5842710000000 1.0
C      1  0.3782490000000  0.4899440000000  0.5557020000000 1.0
C      1  0.5047810000000  0.5250810000000  0.5868030000000 1.0
C      1  0.5751400000000  0.5542110000000  0.4093020000000 1.0
C      1  0.5247760000000  0.6206120000000  0.5183790000000 1.0
C      1  0.4929420000000  0.5223830000000  0.4035540000000 1.0
C      1  0.5356660000000  0.4788730000000  0.5275890000000 1.0
C      1  0.4704640000000  0.4205520000000  0.5107950000000 1.0
C      1  0.5378650000000  0.3888470000000  0.5423870000000 1.0
C      1  0.5195470000000  0.5457370000000  0.5777960000000 1.0
C      1  0.5823010000000  0.5606320000000  0.3850730000000 1.0
C      1  0.5552260000000  0.5458670000000  0.5437130000000 1.0
C      1  0.4350200000000  0.5378020000000  0.5065250000000 1.0
C      1  0.4912960000000  0.5269770000000  0.4531190000000 1.0
C      1  0.3866240000000  0.4756470000000  0.5099890000000 1.0
C      1  0.4343680000000  0.5261040000000  0.4362590000000 1.0
C      1  0.5666020000000  0.5479280000000  0.4335920000000 1.0
C      1  0.5584440000000  0.5852710000000  0.5171380000000 1.0
C      1  0.5929440000000  0.4966280000000  0.4909340000000 1.0
C      1  0.5012700000000  0.4204890000000  0.4569920000000 1.0
C      1  0.5123180000000  0.4496510000000  0.5681680000000 1.0
C      1  0.4324720000000  0.5415740000000  0.4601130000000 1.0
C      1  0.4233000000000  0.4858450000000  0.5379900000000 1.0
C      1  0.4292130000000  0.5216890000000  0.4828520000000 1.0
C      1  0.5807580000000  0.4737200000000  0.4839520000000 1.0
C      1  0.3953810000000  0.4840570000000  0.5353740000000 1.0
C      1  0.4469300000000  0.4236520000000  0.5540220000000 1.0
C      1  0.4391800000000  0.4995250000000  0.4416960000000 1.0
C      1  0.5394500000000  0.4582440000000  0.4566530000000 1.0
C      1  0.5810280000000  0.4762730000000  0.5653120000000 1.0
C      1  0.4664040000000  0.4113050000000  0.5375580000000 1.0
C      1  0.5449960000000  0.5307580000000  0.4786790000000 1.0
C      1  0.4473290000000  0.5637280000000  0.4703740000000 1.0
C      1  0.4911730000000  0.4052640000000  0.5514060000000 1.0
C      1  0.5555600000000  0.5411060000000  0.4566880000000 1.0
C      1  0.5455130000000  0.5045260000000  0.5212700000000 1.0
C      1  0.4974940000000  0.4992650000000  0.5477050000000 1.0
C      1  0.5702580000000  0.5606040000000  0.5240200000000 1.0
C      1  0.4995460000000  0.4603050000000  0.4302390000000 1.0
C      1  0.5087410000000  0.4758380000000  0.5359250000000 1.0
C      1  0.4916070000000  0.5029590000000  0.5752450000000 1.0
C      1  0.4927390000000  0.5202980000000  0.5289980000000 1.0
C      1  0.5153170000000  0.5903440000000  0.4237840000000 1.0
C      1  0.4737580000000  0.5728860000000  0.4629700000000 1.0
C      1  0.5965660000000  0.5220620000000  0.4988650000000 1.0
C      1  0.4676270000000  0.4935070000000  0.4841410000000 1.0
C      1  0.4790230000000  0.4521400000000  0.4143950000000 1.0
C      1  0.4902730000000  0.5557290000000  0.4480960000000 1.0
C      1  0.5325950000000  0.5950750000000  0.5238210000000 1.0
C      1  0.4721640000000  0.5787180000000  0.5098870000000 1.0
C      1  0.4839120000000  0.5878730000000  0.4851340000000 1.0
C      1  0.4999040000000  0.5496010000000  0.4020300000000 1.0
C      1  0.4873730000000  0.5139800000000  0.4789780000000 1.0
C      1  0.5616770000000  0.4576790000000  0.4737080000000 1.0
C      1  0.5734420000000  0.4251670000000  0.5548390000000 1.0
C      1  0.4474870000000  0.4825890000000  0.5273800000000 1.0
C      1  0.5894500000000  0.5458270000000  0.5093770000000 1.0
C      1  0.5110670000000  0.3871260000000  0.5432800000000 1.0
C      1  0.5595250000000  0.4037470000000  0.5471700000000 1.0
C      1  0.4830030000000  0.5084570000000  0.3823640000000 1.0
C      1  0.4398820000000  0.4933080000000  0.4716900000000 1.0
C      1  0.5589630000000  0.5177920000000  0.5426700000000 1.0
C      1  0.4931690000000  0.4376770000000  0.5100890000000 1.0
C      1  0.5739880000000  0.5014720000000  0.5598080000000 1.0
C      1  0.4763250000000  0.4134120000000  0.4645900000000 1.0
C      1  0.5036950000000  0.5196500000000  0.5021070000000 1.0
C      1  0.5152470000000  0.4431960000000  0.4482300000000 1.0
C      1  0.5009220000000  0.4262380000000  0.5677460000000 1.0
END
