TITL C-612602-9376-659 -61007.1959469448 125000 -969.470256719779 0 0 158 (C1) n - 1
REM
REM in /home/nfs/bkarasulu/CARBON/AIRSS/Generating-Clusters/TERSOFF/Only-C1/FIRE-HFTN
REM
REM
REM
REM
REM
REM ./C.cell (11c1c37f851c82e70ff6c80c92926a4b)
REM AIRSS Version 0.9.1 bugfix July 2018 build 013d7b7c2542+ Fri, 06 Jul 2018 19:26:36 +0100
REM compiler GCC version 9.2.1 20190827 (Red Hat 9.2.1-1)
REM options -cpp -mtune=generic -march=x86-64 -g -O0 -fpre-include=/usr/include/finclude/math-vector-fortran.h
REM seed -274021445 -454916126 -116970314 -2081142321 -237739553 -1494946052 -1869053565 -274093156 1371167532 1730323395 -1771354417 974927942 1032771621 -502814836 -696651235 234443490 -206285201 947106949 760383125 1004057313 -1816976945 -1631613911 -183729065 1175182236 -831314106 920269951 -1238156548 495933922 -2035159532 -282529546 1698302 2058759591 -1660405183
REM
CELL 1.54180   50.00000   50.00000   50.00000   90.00000   90.00000   90.00000
LATT -1
SFAC C  
C      1  0.5063170000000  0.5667130000000  0.5491420000000 1.0
C      1  0.5159810000000  0.4897810000000  0.4960210000000 1.0
C      1  0.4718090000000  0.5621910000000  0.4720730000000 1.0
C      1  0.3666560000000  0.4821750000000  0.3982800000000 1.0
C      1  0.4250780000000  0.4729500000000  0.5184020000000 1.0
C      1  0.5744270000000  0.5566150000000  0.5390850000000 1.0
C      1  0.5289120000000  0.4996390000000  0.3966280000000 1.0
C      1  0.4601680000000  0.6129330000000  0.5243470000000 1.0
C      1  0.5071100000000  0.5672910000000  0.3973950000000 1.0
C      1  0.5316800000000  0.3164100000000  0.6027350000000 1.0
C      1  0.5801680000000  0.5938960000000  0.4476730000000 1.0
C      1  0.4583700000000  0.4725300000000  0.6059360000000 1.0
C      1  0.4411500000000  0.5133520000000  0.5999340000000 1.0
C      1  0.5826520000000  0.5117070000000  0.5682600000000 1.0
C      1  0.5389400000000  0.5599060000000  0.4718690000000 1.0
C      1  0.5724380000000  0.5362820000000  0.5587200000000 1.0
C      1  0.5009310000000  0.4972130000000  0.3993330000000 1.0
C      1  0.4807830000000  0.4753080000000  0.4455050000000 1.0
C      1  0.5856420000000  0.5121460000000  0.4480850000000 1.0
C      1  0.5755860000000  0.4863680000000  0.5576870000000 1.0
C      1  0.4545900000000  0.5588290000000  0.5791290000000 1.0
C      1  0.4994340000000  0.5397030000000  0.5968770000000 1.0
C      1  0.4946790000000  0.5811270000000  0.4710750000000 1.0
C      1  0.6008000000000  0.5124840000000  0.5896030000000 1.0
C      1  0.5100320000000  0.4277890000000  0.5890000000000 1.0
C      1  0.6178670000000  0.5124730000000  0.6092970000000 1.0
C      1  0.5247930000000  0.4859740000000  0.5452330000000 1.0
C      1  0.5141590000000  0.3613860000000  0.4619990000000 1.0
C      1  0.5068130000000  0.5048940000000  0.5624520000000 1.0
C      1  0.4961260000000  0.4928920000000  0.5884150000000 1.0
C      1  0.4054330000000  0.5325490000000  0.4442860000000 1.0
C      1  0.4972330000000  0.5448390000000  0.5327560000000 1.0
C      1  0.5517560000000  0.4471040000000  0.5709510000000 1.0
C      1  0.5485250000000  0.4747180000000  0.5605140000000 1.0
C      1  0.5617070000000  0.5777090000000  0.4338570000000 1.0
C      1  0.5127290000000  0.3871260000000  0.4658090000000 1.0
C      1  0.5311250000000  0.5774940000000  0.5506760000000 1.0
C      1  0.5648810000000  0.5314270000000  0.4081130000000 1.0
C      1  0.4566240000000  0.4387790000000  0.4097620000000 1.0
C      1  0.4479530000000  0.4139870000000  0.4171530000000 1.0
C      1  0.4850360000000  0.5190100000000  0.5432760000000 1.0
C      1  0.5435540000000  0.3265910000000  0.5811720000000 1.0
C      1  0.4625550000000  0.6118200000000  0.4961300000000 1.0
C      1  0.5792060000000  0.6012820000000  0.4984240000000 1.0
C      1  0.5934110000000  0.5501070000000  0.5192230000000 1.0
C      1  0.4546920000000  0.5083620000000  0.5372410000000 1.0
C      1  0.4469350000000  0.5160800000000  0.5050230000000 1.0
C      1  0.5559850000000  0.5787080000000  0.5368330000000 1.0
C      1  0.4847820000000  0.4733400000000  0.3942010000000 1.0
C      1  0.5036700000000  0.4122840000000  0.6113060000000 1.0
C      1  0.4695550000000  0.5120790000000  0.4798270000000 1.0
C      1  0.4231930000000  0.5933050000000  0.4023900000000 1.0
C      1  0.5620440000000  0.5153590000000  0.4654800000000 1.0
C      1  0.4603060000000  0.5617340000000  0.4974010000000 1.0
C      1  0.4634500000000  0.5112580000000  0.6170720000000 1.0
C      1  0.5234600000000  0.5480600000000  0.3884330000000 1.0
C      1  0.4648000000000  0.5776380000000  0.4198330000000 1.0
C      1  0.5421290000000  0.3999470000000  0.5654690000000 1.0
C      1  0.5168560000000  0.3222610000000  0.6240990000000 1.0
C      1  0.6212700000000  0.4535130000000  0.5093560000000 1.0
C      1  0.4855540000000  0.4459570000000  0.4064080000000 1.0
C      1  0.4385720000000  0.4618720000000  0.4043950000000 1.0
C      1  0.5371510000000  0.5287630000000  0.5078080000000 1.0
C      1  0.4698650000000  0.5374690000000  0.4586190000000 1.0
C      1  0.4384730000000  0.6053590000000  0.4824730000000 1.0
C      1  0.4120510000000  0.4712960000000  0.4096360000000 1.0
C      1  0.5113110000000  0.5203070000000  0.4551740000000 1.0
C      1  0.5072750000000  0.4766880000000  0.4437750000000 1.0
C      1  0.5700270000000  0.5580810000000  0.4155490000000 1.0
C      1  0.5489700000000  0.3482020000000  0.5666310000000 1.0
C      1  0.5934290000000  0.4654130000000  0.4049820000000 1.0
C      1  0.5315370000000  0.5027650000000  0.5188110000000 1.0
C      1  0.3959340000000  0.5432690000000  0.4717100000000 1.0
C      1  0.5783520000000  0.5093070000000  0.4205830000000 1.0
C      1  0.5340550000000  0.4511130000000  0.4056440000000 1.0
C      1  0.4150790000000  0.5582830000000  0.4876720000000 1.0
C      1  0.6300990000000  0.4620580000000  0.4850280000000 1.0
C      1  0.3898950000000  0.4899150000000  0.4109850000000 1.0
C      1  0.4234220000000  0.5108560000000  0.4534000000000 1.0
C      1  0.5509350000000  0.5358880000000  0.4817810000000 1.0
C      1  0.5348970000000  0.6147340000000  0.5105080000000 1.0
C      1  0.6035510000000  0.5285640000000  0.5070020000000 1.0
C      1  0.4903770000000  0.5299690000000  0.4383410000000 1.0
C      1  0.5478130000000  0.3742980000000  0.5617770000000 1.0
C      1  0.4619360000000  0.4807580000000  0.4660310000000 1.0
C      1  0.4574710000000  0.5060820000000  0.4138470000000 1.0
C      1  0.4920210000000  0.4468370000000  0.5789080000000 1.0
C      1  0.4986890000000  0.3924900000000  0.6282580000000 1.0
C      1  0.5044890000000  0.3419320000000  0.6371310000000 1.0
C      1  0.5585710000000  0.4897960000000  0.4772140000000 1.0
C      1  0.3892770000000  0.5157720000000  0.4241790000000 1.0
C      1  0.4567840000000  0.4829080000000  0.3971630000000 1.0
C      1  0.4178390000000  0.4916830000000  0.4731910000000 1.0
C      1  0.4024110000000  0.4622210000000  0.5682550000000 1.0
C      1  0.5459010000000  0.4770110000000  0.4024400000000 1.0
C      1  0.5227400000000  0.4392020000000  0.5148940000000 1.0
C      1  0.5153730000000  0.5654290000000  0.4880440000000 1.0
C      1  0.4542150000000  0.4353270000000  0.5181430000000 1.0
C      1  0.4889570000000  0.6070580000000  0.4855240000000 1.0
C      1  0.4892070000000  0.5143760000000  0.6069880000000 1.0
C      1  0.4338570000000  0.4681340000000  0.4663050000000 1.0
C      1  0.6080620000000  0.5023080000000  0.4643500000000 1.0
C      1  0.5245250000000  0.4594010000000  0.4574770000000 1.0
C      1  0.4237650000000  0.4959900000000  0.5007480000000 1.0
C      1  0.4346750000000  0.5527230000000  0.5365180000000 1.0
C      1  0.6258480000000  0.4797560000000  0.4645670000000 1.0
C      1  0.4797010000000  0.5596580000000  0.5923420000000 1.0
C      1  0.5368380000000  0.5738150000000  0.4470200000000 1.0
C      1  0.4316350000000  0.5262170000000  0.5521680000000 1.0
C      1  0.4833220000000  0.4685690000000  0.5942490000000 1.0
C      1  0.5031200000000  0.4251260000000  0.4961080000000 1.0
C      1  0.4195780000000  0.5860580000000  0.4817070000000 1.0
C      1  0.3742270000000  0.5323970000000  0.4860150000000 1.0
C      1  0.6000900000000  0.5047200000000  0.4929740000000 1.0
C      1  0.4610590000000  0.4517790000000  0.5414620000000 1.0
C      1  0.4033520000000  0.5176400000000  0.5492470000000 1.0
C      1  0.5088320000000  0.5821160000000  0.4435570000000 1.0
C      1  0.5865300000000  0.6009080000000  0.4727180000000 1.0
C      1  0.4292090000000  0.4457480000000  0.5076500000000 1.0
C      1  0.4264980000000  0.4753540000000  0.5687760000000 1.0
C      1  0.5167720000000  0.4329360000000  0.4481320000000 1.0
C      1  0.5578760000000  0.5992240000000  0.5166330000000 1.0
C      1  0.5731570000000  0.4832400000000  0.4093430000000 1.0
C      1  0.5077280000000  0.4609540000000  0.5324630000000 1.0
C      1  0.4369440000000  0.4851070000000  0.5929270000000 1.0
C      1  0.4451440000000  0.5046380000000  0.4385340000000 1.0
C      1  0.5744010000000  0.4602230000000  0.5091770000000 1.0
C      1  0.5358560000000  0.4712240000000  0.4816560000000 1.0
C      1  0.4209780000000  0.5543120000000  0.4298440000000 1.0
C      1  0.5348110000000  0.4251000000000  0.5754860000000 1.0
C      1  0.4473420000000  0.5720820000000  0.5542570000000 1.0
C      1  0.4540450000000  0.5976420000000  0.5454200000000 1.0
C      1  0.4365810000000  0.5466770000000  0.5067850000000 1.0
C      1  0.5399150000000  0.5260800000000  0.3950210000000 1.0
C      1  0.5117250000000  0.6188320000000  0.4977110000000 1.0
C      1  0.5114200000000  0.4376960000000  0.4184910000000 1.0
C      1  0.5013880000000  0.5089970000000  0.4796080000000 1.0
C      1  0.5930870000000  0.4623440000000  0.5522950000000 1.0
C      1  0.4262460000000  0.4445630000000  0.4795360000000 1.0
C      1  0.5184130000000  0.5308430000000  0.5759330000000 1.0
C      1  0.4431890000000  0.4774020000000  0.5435600000000 1.0
C      1  0.3697570000000  0.5230880000000  0.5107550000000 1.0
C      1  0.5791180000000  0.4852120000000  0.4960440000000 1.0
C      1  0.4938630000000  0.4752800000000  0.5088510000000 1.0
C      1  0.5138460000000  0.5466650000000  0.5094250000000 1.0
C      1  0.4873960000000  0.4501400000000  0.5513310000000 1.0
C      1  0.4983080000000  0.3677940000000  0.6380530000000 1.0
C      1  0.4843470000000  0.5167220000000  0.4141990000000 1.0
C      1  0.5109620000000  0.4147050000000  0.4697360000000 1.0
C      1  0.4932890000000  0.5780780000000  0.4195890000000 1.0
C      1  0.5471000000000  0.4508940000000  0.5028660000000 1.0
C      1  0.5803980000000  0.4423500000000  0.5689760000000 1.0
C      1  0.4400280000000  0.5335410000000  0.5803850000000 1.0
C      1  0.4365790000000  0.5747130000000  0.4176190000000 1.0
C      1  0.4755960000000  0.4352910000000  0.4982440000000 1.0
C      1  0.4755790000000  0.4636210000000  0.4905330000000 1.0
C      1  0.3811600000000  0.5178030000000  0.5343530000000 1.0
C      1  0.5974830000000  0.4548400000000  0.5251080000000 1.0
END
