TITL C-612607-4507-853 0.00380723144381448 125000 -872.007520712109 0 0 140 (C1) n - 1
REM
REM in /home/nfs/bkarasulu/CARBON/AIRSS/Generating-Clusters/TERSOFF/Only-C1/FIRE-HFTN
REM
REM
REM
REM
REM
REM ./C.cell (11c1c37f851c82e70ff6c80c92926a4b)
REM AIRSS Version 0.9.1 bugfix July 2018 build 013d7b7c2542+ Fri, 06 Jul 2018 19:26:36 +0100
REM compiler GCC version 9.2.1 20190827 (Red Hat 9.2.1-1)
REM options -cpp -mtune=generic -march=x86-64 -g -O0 -fpre-include=/usr/include/finclude/math-vector-fortran.h
REM seed -1230303060 -1642685679 -419105181 721064581 -1851433775 -854559940 -1121187373 -1535432645 1444134122 804623443 -1787473106 925291877 132187943 -644379000 -976651962 1711889715 30663828 911715794 1821315202 -1295977876 1404039404 -1029543795 1108398809 -1802795961 -1387924330 1229165869 -2076475215 701597970 548101978 1767421982 1808767148 1355442099 -1429133949
REM
CELL 1.54180   50.00000   50.00000   50.00000   90.00000   90.00000   90.00000
LATT -1
SFAC C  
C      1  0.4387710000000  0.4581210000000  0.4277190000000 1.0
C      1  0.4588160000000  0.5065790000000  0.5165840000000 1.0
C      1  0.5909320000000  0.4370170000000  0.4831040000000 1.0
C      1  0.4321750000000  0.5285700000000  0.4471250000000 1.0
C      1  0.5211980000000  0.5398960000000  0.6469050000000 1.0
C      1  0.5011530000000  0.4219440000000  0.4439480000000 1.0
C      1  0.5891110000000  0.5045470000000  0.4213180000000 1.0
C      1  0.4847430000000  0.5530000000000  0.4826810000000 1.0
C      1  0.4288450000000  0.4567570000000  0.4739220000000 1.0
C      1  0.5258110000000  0.5408370000000  0.4338010000000 1.0
C      1  0.4098570000000  0.5662220000000  0.5057740000000 1.0
C      1  0.4716130000000  0.5037960000000  0.6079340000000 1.0
C      1  0.5361830000000  0.4638960000000  0.4121720000000 1.0
C      1  0.5335670000000  0.5212240000000  0.5355000000000 1.0
C      1  0.4295370000000  0.5235710000000  0.4763980000000 1.0
C      1  0.4581200000000  0.3944720000000  0.5241850000000 1.0
C      1  0.4393000000000  0.5928410000000  0.5406760000000 1.0
C      1  0.4404470000000  0.4134730000000  0.4783610000000 1.0
C      1  0.5683640000000  0.5057330000000  0.4878520000000 1.0
C      1  0.6067900000000  0.4676050000000  0.5394100000000 1.0
C      1  0.4953120000000  0.5806240000000  0.5410540000000 1.0
C      1  0.4204660000000  0.5791460000000  0.4844300000000 1.0
C      1  0.5155370000000  0.4830140000000  0.4849580000000 1.0
C      1  0.5028820000000  0.4161890000000  0.5722120000000 1.0
C      1  0.4874410000000  0.5025610000000  0.3863030000000 1.0
C      1  0.4036950000000  0.5257130000000  0.5364290000000 1.0
C      1  0.4276030000000  0.5037360000000  0.4333220000000 1.0
C      1  0.5459280000000  0.5745510000000  0.4915840000000 1.0
C      1  0.5202410000000  0.4781920000000  0.5136560000000 1.0
C      1  0.5473530000000  0.5202250000000  0.4766030000000 1.0
C      1  0.4485550000000  0.5284580000000  0.5001310000000 1.0
C      1  0.4231630000000  0.4339040000000  0.4889800000000 1.0
C      1  0.4484770000000  0.4855490000000  0.4258160000000 1.0
C      1  0.4817640000000  0.5048410000000  0.5359750000000 1.0
C      1  0.5995650000000  0.4643070000000  0.4444670000000 1.0
C      1  0.5648000000000  0.4629080000000  0.4040730000000 1.0
C      1  0.4971070000000  0.3693060000000  0.4913340000000 1.0
C      1  0.5551450000000  0.4599030000000  0.5851580000000 1.0
C      1  0.5599640000000  0.5137480000000  0.5326480000000 1.0
C      1  0.4574760000000  0.3977290000000  0.4956160000000 1.0
C      1  0.4585810000000  0.4371590000000  0.4295050000000 1.0
C      1  0.6056880000000  0.5152610000000  0.5309490000000 1.0
C      1  0.5470530000000  0.4707950000000  0.5201230000000 1.0
C      1  0.4808730000000  0.3890270000000  0.4795320000000 1.0
C      1  0.5201330000000  0.5303080000000  0.5129190000000 1.0
C      1  0.5029390000000  0.4628950000000  0.5876150000000 1.0
C      1  0.4833660000000  0.5217520000000  0.4069080000000 1.0
C      1  0.6121980000000  0.5049240000000  0.5031040000000 1.0
C      1  0.5632980000000  0.4932450000000  0.5132610000000 1.0
C      1  0.5448140000000  0.4853320000000  0.5958930000000 1.0
C      1  0.4495810000000  0.4136650000000  0.5429660000000 1.0
C      1  0.4972900000000  0.3921620000000  0.5806680000000 1.0
C      1  0.4989360000000  0.4587330000000  0.4755760000000 1.0
C      1  0.4559520000000  0.4791190000000  0.5077680000000 1.0
C      1  0.4064710000000  0.5041550000000  0.4752840000000 1.0
C      1  0.4856080000000  0.5721620000000  0.4620710000000 1.0
C      1  0.4647910000000  0.5528380000000  0.5028210000000 1.0
C      1  0.4895440000000  0.5098180000000  0.4324010000000 1.0
C      1  0.5199840000000  0.5265160000000  0.5590190000000 1.0
C      1  0.4725850000000  0.5480860000000  0.4085860000000 1.0
C      1  0.5162550000000  0.4851590000000  0.5998710000000 1.0
C      1  0.4513380000000  0.4720950000000  0.4810010000000 1.0
C      1  0.4596350000000  0.5986190000000  0.5207770000000 1.0
C      1  0.4746120000000  0.4730420000000  0.4638290000000 1.0
C      1  0.5101870000000  0.5219110000000  0.6315960000000 1.0
C      1  0.4177610000000  0.4617900000000  0.4485620000000 1.0
C      1  0.5481470000000  0.5688830000000  0.5540650000000 1.0
C      1  0.5560160000000  0.4516510000000  0.5395520000000 1.0
C      1  0.4965680000000  0.4802320000000  0.5297630000000 1.0
C      1  0.5119020000000  0.5819820000000  0.4573870000000 1.0
C      1  0.4875480000000  0.4444030000000  0.5003970000000 1.0
C      1  0.3843650000000  0.5149410000000  0.5190960000000 1.0
C      1  0.4301150000000  0.5507870000000  0.4301210000000 1.0
C      1  0.5943220000000  0.5158560000000  0.4835380000000 1.0
C      1  0.4184070000000  0.4778920000000  0.5493790000000 1.0
C      1  0.5397780000000  0.4472240000000  0.5637410000000 1.0
C      1  0.4743970000000  0.5731870000000  0.5220200000000 1.0
C      1  0.4728790000000  0.4889980000000  0.4404550000000 1.0
C      1  0.4911650000000  0.5212880000000  0.5569310000000 1.0
C      1  0.4766750000000  0.5450030000000  0.5657410000000 1.0
C      1  0.4076040000000  0.4891430000000  0.4498590000000 1.0
C      1  0.4892740000000  0.4389080000000  0.4220540000000 1.0
C      1  0.5150540000000  0.6010200000000  0.5405780000000 1.0
C      1  0.4362160000000  0.4602790000000  0.5632230000000 1.0
C      1  0.5695270000000  0.5600960000000  0.5348250000000 1.0
C      1  0.5063770000000  0.5390250000000  0.4922800000000 1.0
C      1  0.5725740000000  0.4503150000000  0.3809830000000 1.0
C      1  0.4481260000000  0.5459460000000  0.5642960000000 1.0
C      1  0.5904400000000  0.4916860000000  0.5762960000000 1.0
C      1  0.4545790000000  0.4168900000000  0.4514710000000 1.0
C      1  0.4086110000000  0.4409860000000  0.5123780000000 1.0
C      1  0.5475960000000  0.5486400000000  0.4780830000000 1.0
C      1  0.4322780000000  0.5652130000000  0.5487650000000 1.0
C      1  0.4552800000000  0.5630690000000  0.4257400000000 1.0
C      1  0.5438350000000  0.4395940000000  0.4684410000000 1.0
C      1  0.4615010000000  0.5785110000000  0.4491790000000 1.0
C      1  0.5676420000000  0.5036160000000  0.5907860000000 1.0
C      1  0.4787950000000  0.6149060000000  0.5056530000000 1.0
C      1  0.4739800000000  0.3722680000000  0.5325260000000 1.0
C      1  0.5158430000000  0.4367740000000  0.4632760000000 1.0
C      1  0.4064360000000  0.5595910000000  0.4186390000000 1.0
C      1  0.5506260000000  0.4651760000000  0.4584850000000 1.0
C      1  0.5076720000000  0.4571070000000  0.4055900000000 1.0
C      1  0.4814420000000  0.4039990000000  0.4552270000000 1.0
C      1  0.5697500000000  0.5747560000000  0.5089460000000 1.0
C      1  0.5966720000000  0.5254280000000  0.4367150000000 1.0
C      1  0.4489030000000  0.5079410000000  0.5942670000000 1.0
C      1  0.5131630000000  0.5176460000000  0.4447360000000 1.0
C      1  0.5240430000000  0.5058060000000  0.4684390000000 1.0
C      1  0.5133760000000  0.4418670000000  0.5717500000000 1.0
C      1  0.5385570000000  0.4763920000000  0.4374560000000 1.0
C      1  0.5813640000000  0.5329980000000  0.5346850000000 1.0
C      1  0.3837340000000  0.5678060000000  0.4088310000000 1.0
C      1  0.5044120000000  0.6100120000000  0.4955090000000 1.0
C      1  0.5236660000000  0.5921020000000  0.4821850000000 1.0
C      1  0.5402500000000  0.5962320000000  0.5496330000000 1.0
C      1  0.4128310000000  0.5528430000000  0.5310560000000 1.0
C      1  0.4453980000000  0.4353520000000  0.5582320000000 1.0
C      1  0.4361400000000  0.5203860000000  0.5722820000000 1.0
C      1  0.3861820000000  0.5050850000000  0.4943010000000 1.0
C      1  0.5844600000000  0.4523390000000  0.5483760000000 1.0
C      1  0.6002370000000  0.5346770000000  0.4632340000000 1.0
C      1  0.4931480000000  0.3609600000000  0.5168990000000 1.0
C      1  0.4994400000000  0.5036910000000  0.6134150000000 1.0
C      1  0.5657570000000  0.4270200000000  0.4807250000000 1.0
C      1  0.4051620000000  0.4625990000000  0.5287760000000 1.0
C      1  0.4391630000000  0.5858160000000  0.4659590000000 1.0
C      1  0.4764100000000  0.4620400000000  0.5195280000000 1.0
C      1  0.4974700000000  0.5649970000000  0.5644090000000 1.0
C      1  0.5938980000000  0.5754470000000  0.4936930000000 1.0
C      1  0.6178960000000  0.4783240000000  0.4911580000000 1.0
C      1  0.6068180000000  0.4945710000000  0.5512440000000 1.0
C      1  0.4953370000000  0.4765240000000  0.3881150000000 1.0
C      1  0.5259090000000  0.5676260000000  0.4375090000000 1.0
C      1  0.5821800000000  0.4625140000000  0.5763400000000 1.0
C      1  0.6036180000000  0.5610580000000  0.4728880000000 1.0
C      1  0.4182140000000  0.5072110000000  0.5537270000000 1.0
C      1  0.5852370000000  0.4761530000000  0.4220520000000 1.0
C      1  0.5251650000000  0.5539090000000  0.5667840000000 1.0
C      1  0.6051620000000  0.4595160000000  0.4726030000000 1.0
END
