TITL C-612604-1799-1020 591.61509025214 125000 -1179.30671417035 0 0 193 (C1) n - 1
REM
REM in /home/nfs/bkarasulu/CARBON/AIRSS/Generating-Clusters/TERSOFF/Only-C1/FIRE-HFTN
REM
REM
REM
REM
REM
REM ./C.cell (11c1c37f851c82e70ff6c80c92926a4b)
REM AIRSS Version 0.9.1 bugfix July 2018 build 013d7b7c2542+ Fri, 06 Jul 2018 19:26:36 +0100
REM compiler GCC version 9.2.1 20190827 (Red Hat 9.2.1-1)
REM options -cpp -mtune=generic -march=x86-64 -g -O0 -fpre-include=/usr/include/finclude/math-vector-fortran.h
REM seed -266456623 -1369583491 846788872 -781665492 -85697510 308021275 -312653052 594560143 1813311027 514120657 990302047 929862168 1043291408 65630895 1555720466 30003214 -1253719246 -328885097 -1390344594 1944377254 2019335395 -261769805 -1755839096 -252673886 1227693641 -374162726 823555289 -724859815 943823549 275694528 -1151852270 -1626612715 1318677565
REM
CELL 1.54180   50.00000   50.00000   50.00000   90.00000   90.00000   90.00000
LATT -1
SFAC C  
C      1  0.5296850000000  0.5614140000000  0.4939570000000 1.0
C      1  0.4279490000000  0.3853120000000  0.5370050000000 1.0
C      1  0.6373550000000  0.3883650000000  0.4361290000000 1.0
C      1  0.5424860000000  0.4515100000000  0.4588700000000 1.0
C      1  0.6084140000000  0.4667670000000  0.4849780000000 1.0
C      1  0.6020930000000  0.4728990000000  0.5099280000000 1.0
C      1  0.5848530000000  0.5127640000000  0.4061260000000 1.0
C      1  0.4710960000000  0.5596530000000  0.3669920000000 1.0
C      1  0.4917440000000  0.5787250000000  0.4076340000000 1.0
C      1  0.4487160000000  0.4929040000000  0.5371680000000 1.0
C      1  0.4639160000000  0.4734400000000  0.6423610000000 1.0
C      1  0.4243430000000  0.3942250000000  0.5898670000000 1.0
C      1  0.4206820000000  0.4436050000000  0.4505900000000 1.0
C      1  0.3893780000000  0.4491700000000  0.5196740000000 1.0
C      1  0.4538860000000  0.4486890000000  0.6379260000000 1.0
C      1  0.5561220000000  0.4293730000000  0.6056950000000 1.0
C      1  0.5341010000000  0.5249480000000  0.5923760000000 1.0
C      1  0.5935510000000  0.5540920000000  0.5361280000000 1.0
C      1  0.5244580000000  0.4324360000000  0.5376540000000 1.0
C      1  0.5052030000000  0.6199660000000  0.4421840000000 1.0
C      1  0.4842010000000  0.4457410000000  0.5019350000000 1.0
C      1  0.4774900000000  0.5853350000000  0.4528620000000 1.0
C      1  0.6950080000000  0.4181970000000  0.4644870000000 1.0
C      1  0.3851500000000  0.5499450000000  0.5395430000000 1.0
C      1  0.3882400000000  0.4721460000000  0.5374530000000 1.0
C      1  0.4147720000000  0.5901010000000  0.4675100000000 1.0
C      1  0.4543110000000  0.5781060000000  0.5733480000000 1.0
C      1  0.5715700000000  0.4964700000000  0.5849160000000 1.0
C      1  0.5629500000000  0.5220290000000  0.5934160000000 1.0
C      1  0.4982490000000  0.5439550000000  0.4425400000000 1.0
C      1  0.4850540000000  0.5594730000000  0.4617910000000 1.0
C      1  0.4848210000000  0.5818610000000  0.3797190000000 1.0
C      1  0.4565090000000  0.4784580000000  0.4400310000000 1.0
C      1  0.5227230000000  0.5138550000000  0.4766350000000 1.0
C      1  0.4906490000000  0.3855390000000  0.4338340000000 1.0
C      1  0.4055220000000  0.5860820000000  0.5618180000000 1.0
C      1  0.6703960000000  0.4924820000000  0.5126420000000 1.0
C      1  0.4708310000000  0.4697680000000  0.4929710000000 1.0
C      1  0.5214880000000  0.5405630000000  0.6124420000000 1.0
C      1  0.5184220000000  0.4813290000000  0.3858910000000 1.0
C      1  0.4812550000000  0.3754510000000  0.5404930000000 1.0
C      1  0.4143720000000  0.4036910000000  0.5171980000000 1.0
C      1  0.4105890000000  0.4295340000000  0.5571830000000 1.0
C      1  0.4790280000000  0.5802300000000  0.5535640000000 1.0
C      1  0.4585510000000  0.5080670000000  0.3717540000000 1.0
C      1  0.4599540000000  0.4938240000000  0.5629460000000 1.0
C      1  0.5223830000000  0.6366830000000  0.4292160000000 1.0
C      1  0.5539900000000  0.6091140000000  0.5265620000000 1.0
C      1  0.6032150000000  0.4997550000000  0.4204510000000 1.0
C      1  0.4371400000000  0.4343040000000  0.5581250000000 1.0
C      1  0.5048710000000  0.5650380000000  0.5030390000000 1.0
C      1  0.6194590000000  0.5442620000000  0.5394680000000 1.0
C      1  0.5411300000000  0.5261540000000  0.5207030000000 1.0
C      1  0.4095960000000  0.5329000000000  0.4586760000000 1.0
C      1  0.4562820000000  0.5966990000000  0.5003540000000 1.0
C      1  0.5453980000000  0.4884940000000  0.3946030000000 1.0
C      1  0.5007130000000  0.4548380000000  0.5727960000000 1.0
C      1  0.5056540000000  0.5813230000000  0.5979590000000 1.0
C      1  0.5337230000000  0.6211430000000  0.5109310000000 1.0
C      1  0.5084770000000  0.3949700000000  0.4519730000000 1.0
C      1  0.3825320000000  0.5506690000000  0.5114320000000 1.0
C      1  0.5306670000000  0.5684200000000  0.6057460000000 1.0
C      1  0.5452310000000  0.5236620000000  0.4323350000000 1.0
C      1  0.6505470000000  0.3667480000000  0.4299420000000 1.0
C      1  0.4244520000000  0.5211950000000  0.5913150000000 1.0
C      1  0.5016860000000  0.5240260000000  0.5513210000000 1.0
C      1  0.5395530000000  0.4566830000000  0.5295660000000 1.0
C      1  0.6411560000000  0.5294770000000  0.5358350000000 1.0
C      1  0.4874150000000  0.5013980000000  0.5659130000000 1.0
C      1  0.5164490000000  0.5192370000000  0.4446470000000 1.0
C      1  0.3996600000000  0.4250440000000  0.5315050000000 1.0
C      1  0.4679800000000  0.4986990000000  0.6342390000000 1.0
C      1  0.4402040000000  0.4690000000000  0.5251500000000 1.0
C      1  0.4619980000000  0.5352700000000  0.3789480000000 1.0
C      1  0.4321320000000  0.4127960000000  0.6079340000000 1.0
C      1  0.5881500000000  0.5558590000000  0.4867280000000 1.0
C      1  0.5637670000000  0.4717340000000  0.5729790000000 1.0
C      1  0.4580600000000  0.5626320000000  0.5970750000000 1.0
C      1  0.5654970000000  0.5369600000000  0.4479130000000 1.0
C      1  0.5062880000000  0.4335890000000  0.4869720000000 1.0
C      1  0.4517000000000  0.4459300000000  0.5375930000000 1.0
C      1  0.4390300000000  0.3944310000000  0.4716150000000 1.0
C      1  0.4191710000000  0.4082750000000  0.4878030000000 1.0
C      1  0.4307060000000  0.5737830000000  0.5595730000000 1.0
C      1  0.4061970000000  0.5572390000000  0.4973180000000 1.0
C      1  0.4887410000000  0.3906770000000  0.4948560000000 1.0
C      1  0.4987260000000  0.3726470000000  0.5633260000000 1.0
C      1  0.5847910000000  0.4740060000000  0.5298890000000 1.0
C      1  0.4573190000000  0.5378380000000  0.5372690000000 1.0
C      1  0.4259470000000  0.6009600000000  0.4935870000000 1.0
C      1  0.4932960000000  0.5398500000000  0.6191630000000 1.0
C      1  0.4921910000000  0.5967750000000  0.4299460000000 1.0
C      1  0.4809870000000  0.4333680000000  0.4470310000000 1.0
C      1  0.4643750000000  0.4309830000000  0.4669770000000 1.0
C      1  0.3808740000000  0.5741430000000  0.5543150000000 1.0
C      1  0.4888620000000  0.5513830000000  0.4168130000000 1.0
C      1  0.5701840000000  0.4551250000000  0.4574930000000 1.0
C      1  0.4272900000000  0.4840790000000  0.4756790000000 1.0
C      1  0.3871580000000  0.5232980000000  0.4440010000000 1.0
C      1  0.5867840000000  0.5550830000000  0.4400550000000 1.0
C      1  0.4330340000000  0.4261830000000  0.4308720000000 1.0
C      1  0.5261990000000  0.4486660000000  0.4355720000000 1.0
C      1  0.3504720000000  0.5309160000000  0.4753570000000 1.0
C      1  0.5673200000000  0.5372290000000  0.4772700000000 1.0
C      1  0.4624580000000  0.3846270000000  0.4853060000000 1.0
C      1  0.4440390000000  0.4404040000000  0.4074470000000 1.0
C      1  0.4475840000000  0.5349010000000  0.6029260000000 1.0
C      1  0.4539170000000  0.3741980000000  0.5345980000000 1.0
C      1  0.4396180000000  0.4390890000000  0.6154310000000 1.0
C      1  0.6583850000000  0.5116390000000  0.5264590000000 1.0
C      1  0.6854520000000  0.4465700000000  0.5033490000000 1.0
C      1  0.6768320000000  0.4761920000000  0.4667330000000 1.0
C      1  0.5422700000000  0.5345070000000  0.4915430000000 1.0
C      1  0.4316350000000  0.4704930000000  0.4513940000000 1.0
C      1  0.6001730000000  0.5651550000000  0.4621190000000 1.0
C      1  0.4337240000000  0.5510010000000  0.5015110000000 1.0
C      1  0.5010050000000  0.5905030000000  0.5714620000000 1.0
C      1  0.5868000000000  0.5682280000000  0.5120810000000 1.0
C      1  0.5718460000000  0.5487960000000  0.5836030000000 1.0
C      1  0.4700170000000  0.6083240000000  0.4729300000000 1.0
C      1  0.5216420000000  0.4032780000000  0.5355550000000 1.0
C      1  0.5546630000000  0.6092380000000  0.5548070000000 1.0
C      1  0.5049380000000  0.4064400000000  0.4776990000000 1.0
C      1  0.5294700000000  0.4700590000000  0.5048520000000 1.0
C      1  0.4418590000000  0.4707360000000  0.4967240000000 1.0
C      1  0.4849360000000  0.4784570000000  0.4392790000000 1.0
C      1  0.4575830000000  0.5137030000000  0.5180990000000 1.0
C      1  0.5591800000000  0.5962490000000  0.5778500000000 1.0
C      1  0.4388720000000  0.5237090000000  0.4975510000000 1.0
C      1  0.4701540000000  0.5987470000000  0.5286250000000 1.0
C      1  0.5024050000000  0.4810130000000  0.5784660000000 1.0
C      1  0.4354930000000  0.4599440000000  0.5969280000000 1.0
C      1  0.4981850000000  0.4533770000000  0.4392190000000 1.0
C      1  0.5485480000000  0.5366560000000  0.5456810000000 1.0
C      1  0.4639230000000  0.3868120000000  0.4296910000000 1.0
C      1  0.5545820000000  0.5156490000000  0.4039580000000 1.0
C      1  0.5617060000000  0.4677350000000  0.5445230000000 1.0
C      1  0.4081120000000  0.4326200000000  0.4748770000000 1.0
C      1  0.3957670000000  0.4892100000000  0.5575820000000 1.0
C      1  0.4245430000000  0.5126440000000  0.4756750000000 1.0
C      1  0.4074540000000  0.5134800000000  0.5682200000000 1.0
C      1  0.5222050000000  0.3872970000000  0.5602060000000 1.0
C      1  0.3614550000000  0.5226580000000  0.4522260000000 1.0
C      1  0.5271280000000  0.5315520000000  0.5654060000000 1.0
C      1  0.4252650000000  0.6086650000000  0.4484620000000 1.0
C      1  0.3563830000000  0.5841820000000  0.5605030000000 1.0
C      1  0.5471940000000  0.5366620000000  0.3844700000000 1.0
C      1  0.4836760000000  0.5663000000000  0.6094620000000 1.0
C      1  0.4781780000000  0.4404300000000  0.5298420000000 1.0
C      1  0.5591640000000  0.4636230000000  0.4020030000000 1.0
C      1  0.4695890000000  0.4863780000000  0.3870470000000 1.0
C      1  0.5433060000000  0.5541690000000  0.3655860000000 1.0
C      1  0.6927530000000  0.4237970000000  0.4908490000000 1.0
C      1  0.5114100000000  0.4961380000000  0.5005740000000 1.0
C      1  0.4072100000000  0.5344890000000  0.5490750000000 1.0
C      1  0.6077770000000  0.4809210000000  0.4386470000000 1.0
C      1  0.4567670000000  0.5666000000000  0.4980460000000 1.0
C      1  0.3905480000000  0.4481640000000  0.4913400000000 1.0
C      1  0.5179660000000  0.4519330000000  0.3875920000000 1.0
C      1  0.6249370000000  0.4108380000000  0.4427040000000 1.0
C      1  0.4319550000000  0.5481970000000  0.5467040000000 1.0
C      1  0.4971010000000  0.6231830000000  0.4708110000000 1.0
C      1  0.6001240000000  0.4590600000000  0.4575030000000 1.0
C      1  0.4195090000000  0.3850540000000  0.5647750000000 1.0
C      1  0.5367220000000  0.4460550000000  0.4093300000000 1.0
C      1  0.3594950000000  0.5421280000000  0.4979620000000 1.0
C      1  0.6134510000000  0.4336880000000  0.4495430000000 1.0
C      1  0.4995780000000  0.4990280000000  0.4268090000000 1.0
C      1  0.4980960000000  0.3899880000000  0.5213110000000 1.0
C      1  0.5736380000000  0.5930110000000  0.5143500000000 1.0
C      1  0.6820090000000  0.4607030000000  0.4452550000000 1.0
C      1  0.4818340000000  0.4940730000000  0.4994900000000 1.0
C      1  0.4481080000000  0.6220250000000  0.4558990000000 1.0
C      1  0.5281420000000  0.4512660000000  0.4832220000000 1.0
C      1  0.4468120000000  0.4796570000000  0.5831950000000 1.0
C      1  0.4067720000000  0.5618060000000  0.4683200000000 1.0
C      1  0.4818560000000  0.5575320000000  0.4892870000000 1.0
C      1  0.6901460000000  0.4349540000000  0.4437840000000 1.0
C      1  0.5151120000000  0.6263150000000  0.4922810000000 1.0
C      1  0.4909360000000  0.6046070000000  0.3658440000000 1.0
C      1  0.6774940000000  0.4723840000000  0.4948100000000 1.0
C      1  0.4960600000000  0.4933100000000  0.3981570000000 1.0
C      1  0.4418600000000  0.4001120000000  0.4421730000000 1.0
C      1  0.4697600000000  0.5224670000000  0.6193090000000 1.0
C      1  0.4991920000000  0.4408700000000  0.5486920000000 1.0
C      1  0.4824810000000  0.5481020000000  0.5465520000000 1.0
C      1  0.5596180000000  0.4497770000000  0.5898650000000 1.0
C      1  0.4665160000000  0.5378030000000  0.4067960000000 1.0
C      1  0.5731670000000  0.5474920000000  0.5546230000000 1.0
C      1  0.5150480000000  0.5135280000000  0.5251170000000 1.0
C      1  0.5563050000000  0.5723160000000  0.5929060000000 1.0
C      1  0.5837680000000  0.4547100000000  0.3947690000000 1.0
C      1  0.4556990000000  0.4614870000000  0.3938620000000 1.0
END
