TITL C-612606-7351-520 0.414351569175447 125000 -230.209449581415 0 0 39 (C1) n - 1
REM
REM in /home/nfs/bkarasulu/CARBON/AIRSS/Generating-Clusters/TERSOFF/Only-C1/FIRE-HFTN
REM
REM
REM
REM
REM
REM ./C.cell (11c1c37f851c82e70ff6c80c92926a4b)
REM AIRSS Version 0.9.1 bugfix July 2018 build 013d7b7c2542+ Fri, 06 Jul 2018 19:26:36 +0100
REM compiler GCC version 9.2.1 20190827 (Red Hat 9.2.1-1)
REM options -cpp -mtune=generic -march=x86-64 -g -O0 -fpre-include=/usr/include/finclude/math-vector-fortran.h
REM seed -1291395324 273429317 -598387643 -981669181 976277088 -478913745 535540098 -154586997 2051058364 -1856213883 -1472296993 -789155025 1229324592 -1890731288 1898538587 -1296077328 154146304 161511791 -495716101 -702389782 -1766470947 -1381413675 -1854244100 1116596577 -1562376721 1988949182 -1937791853 -1455888856 -1578214789 90487014 16936382 1991315309 336288163
REM
CELL 1.54180   50.00000   50.00000   50.00000   90.00000   90.00000   90.00000
LATT -1
SFAC C  
C      1  0.5112120000000  0.5306410000000  0.4611440000000 1.0
C      1  0.5358670000000  0.6085680000000  0.4904300000000 1.0
C      1  0.5203080000000  0.4462600000000  0.5215870000000 1.0
C      1  0.5610640000000  0.5014480000000  0.4826910000000 1.0
C      1  0.4302660000000  0.4620730000000  0.5566400000000 1.0
C      1  0.5651000000000  0.5724340000000  0.5399240000000 1.0
C      1  0.4228920000000  0.3889320000000  0.4688030000000 1.0
C      1  0.4464700000000  0.4433290000000  0.5149770000000 1.0
C      1  0.4785980000000  0.3699340000000  0.4586160000000 1.0
C      1  0.4558540000000  0.3596710000000  0.4482290000000 1.0
C      1  0.4651750000000  0.5372720000000  0.5268680000000 1.0
C      1  0.5675360000000  0.5712660000000  0.4906690000000 1.0
C      1  0.5399060000000  0.5144380000000  0.4960840000000 1.0
C      1  0.4779140000000  0.5878940000000  0.5291560000000 1.0
C      1  0.4712070000000  0.4303700000000  0.5066870000000 1.0
C      1  0.5471710000000  0.5345460000000  0.5145250000000 1.0
C      1  0.4176310000000  0.4588900000000  0.5792100000000 1.0
C      1  0.5952470000000  0.5344640000000  0.4688310000000 1.0
C      1  0.4354310000000  0.4077340000000  0.4851440000000 1.0
C      1  0.5687830000000  0.5856840000000  0.5620590000000 1.0
C      1  0.5600100000000  0.5595820000000  0.5157820000000 1.0
C      1  0.4546720000000  0.4898590000000  0.5254630000000 1.0
C      1  0.5157750000000  0.6149080000000  0.5067520000000 1.0
C      1  0.4678820000000  0.5633610000000  0.5309770000000 1.0
C      1  0.5837720000000  0.5102790000000  0.4712850000000 1.0
C      1  0.5198390000000  0.5534130000000  0.4501250000000 1.0
C      1  0.5479810000000  0.5870560000000  0.4772150000000 1.0
C      1  0.4815810000000  0.3906310000000  0.4755970000000 1.0
C      1  0.4437240000000  0.4651120000000  0.5323500000000 1.0
C      1  0.4702150000000  0.5114740000000  0.5172210000000 1.0
C      1  0.4913980000000  0.5076770000000  0.4993190000000 1.0
C      1  0.5138110000000  0.5155090000000  0.4847280000000 1.0
C      1  0.4307810000000  0.3685350000000  0.4530670000000 1.0
C      1  0.5889200000000  0.5593530000000  0.4767370000000 1.0
C      1  0.4647400000000  0.4087500000000  0.4886620000000 1.0
C      1  0.4966770000000  0.4377750000000  0.5146100000000 1.0
C      1  0.5345510000000  0.5750630000000  0.4555650000000 1.0
C      1  0.4947040000000  0.6067380000000  0.5208000000000 1.0
C      1  0.4253330000000  0.4290780000000  0.5014700000000 1.0
END
