TITL C-612605-9286-165 0.605730135052421 125000 -247.089193562791 0 0 41 (C1) n - 1
REM
REM in /home/nfs/bkarasulu/CARBON/AIRSS/Generating-Clusters/TERSOFF/Only-C1/FIRE-HFTN
REM
REM
REM
REM
REM
REM ./C.cell (11c1c37f851c82e70ff6c80c92926a4b)
REM AIRSS Version 0.9.1 bugfix July 2018 build 013d7b7c2542+ Fri, 06 Jul 2018 19:26:36 +0100
REM compiler GCC version 9.2.1 20190827 (Red Hat 9.2.1-1)
REM options -cpp -mtune=generic -march=x86-64 -g -O0 -fpre-include=/usr/include/finclude/math-vector-fortran.h
REM seed -653824433 1555054116 -1412674090 -659885816 -2016137789 829041876 -1788811074 -1585199720 -1604563894 222521286 -493575600 1239424773 -1891106057 -766408964 -1995599972 -1292524077 1807739622 1603394323 26801120 1515846894 -1726306190 527573740 221878423 182211427 -1590487520 -2046271197 1593962559 1360816357 -686923943 1187982320 -825977415 633036136 246786483
REM
CELL 1.54180   50.00000   50.00000   50.00000   90.00000   90.00000   90.00000
LATT -1
SFAC C  
C      1  0.4939530000000  0.5563300000000  0.4787180000000 1.0
C      1  0.4816280000000  0.4967500000000  0.5230570000000 1.0
C      1  0.5548630000000  0.4255500000000  0.5202170000000 1.0
C      1  0.5371600000000  0.4101310000000  0.4758400000000 1.0
C      1  0.5243400000000  0.4528080000000  0.4962220000000 1.0
C      1  0.5408120000000  0.4675750000000  0.5381280000000 1.0
C      1  0.5186400000000  0.5187960000000  0.4984550000000 1.0
C      1  0.5036050000000  0.5301580000000  0.4770050000000 1.0
C      1  0.4633790000000  0.4922440000000  0.4781090000000 1.0
C      1  0.5109270000000  0.4103220000000  0.4319390000000 1.0
C      1  0.4769800000000  0.4939480000000  0.5504390000000 1.0
C      1  0.4592310000000  0.5961470000000  0.4889940000000 1.0
C      1  0.5810890000000  0.5380920000000  0.4438850000000 1.0
C      1  0.5636060000000  0.5323510000000  0.4245290000000 1.0
C      1  0.4667330000000  0.4845360000000  0.6286940000000 1.0
C      1  0.4800200000000  0.5786540000000  0.4820380000000 1.0
C      1  0.5553650000000  0.4445840000000  0.5397210000000 1.0
C      1  0.5149600000000  0.5182630000000  0.4312010000000 1.0
C      1  0.4598400000000  0.4996240000000  0.5049110000000 1.0
C      1  0.4766010000000  0.4748470000000  0.4346540000000 1.0
C      1  0.5383910000000  0.5247320000000  0.4203430000000 1.0
C      1  0.4370960000000  0.5140250000000  0.5124600000000 1.0
C      1  0.5083280000000  0.4966760000000  0.5130940000000 1.0
C      1  0.5239690000000  0.4733850000000  0.5159030000000 1.0
C      1  0.5827850000000  0.5391810000000  0.4705200000000 1.0
C      1  0.4633830000000  0.4813620000000  0.6547960000000 1.0
C      1  0.4787130000000  0.4941530000000  0.4547110000000 1.0
C      1  0.4365860000000  0.5849250000000  0.5011200000000 1.0
C      1  0.4944180000000  0.4282560000000  0.4212670000000 1.0
C      1  0.4734480000000  0.4908740000000  0.5765070000000 1.0
C      1  0.5448430000000  0.5278500000000  0.5025980000000 1.0
C      1  0.4986310000000  0.5144790000000  0.4536160000000 1.0
C      1  0.4609780000000  0.6229550000000  0.4841590000000 1.0
C      1  0.5268230000000  0.4036190000000  0.4522060000000 1.0
C      1  0.4600880000000  0.4782410000000  0.6804680000000 1.0
C      1  0.4821000000000  0.4517770000000  0.4226950000000 1.0
C      1  0.5684440000000  0.5351600000000  0.4926550000000 1.0
C      1  0.4700830000000  0.4877080000000  0.6025990000000 1.0
C      1  0.4241660000000  0.5371610000000  0.5144690000000 1.0
C      1  0.5390640000000  0.4283410000000  0.4967350000000 1.0
C      1  0.4239260000000  0.5634300000000  0.5103220000000 1.0
END
