TITL C-612604-1799-367 0.000319181189506767 125000 -280.090844699172 0 0 46 (C1) n - 1
REM
REM in /home/nfs/bkarasulu/CARBON/AIRSS/Generating-Clusters/TERSOFF/Only-C1/FIRE-HFTN
REM
REM
REM
REM
REM
REM ./C.cell (11c1c37f851c82e70ff6c80c92926a4b)
REM AIRSS Version 0.9.1 bugfix July 2018 build 013d7b7c2542+ Fri, 06 Jul 2018 19:26:36 +0100
REM compiler GCC version 9.2.1 20190827 (Red Hat 9.2.1-1)
REM options -cpp -mtune=generic -march=x86-64 -g -O0 -fpre-include=/usr/include/finclude/math-vector-fortran.h
REM seed 2115052720 1986160252 1113130369 960851159 -968525010 1260167726 923265176 1780692392 -446878860 1714501481 -1634514327 2030806541 1801058013 1048960247 1390386515 -1517253346 1237302456 -158567432 1452087582 62156643 -1674993070 971572446 1074188060 -1786353121 -1172749167 2068152788 -212429264 -934794762 -401821828 -2099493045 -1128683400 1877981292 -1255770258
REM
CELL 1.54180   50.00000   50.00000   50.00000   90.00000   90.00000   90.00000
LATT -1
SFAC C  
C      1  0.4855440000000  0.5676990000000  0.4392140000000 1.0
C      1  0.4817360000000  0.4835400000000  0.4869830000000 1.0
C      1  0.5373760000000  0.4714470000000  0.5581200000000 1.0
C      1  0.4520570000000  0.5198670000000  0.4939120000000 1.0
C      1  0.4545530000000  0.4790370000000  0.5453810000000 1.0
C      1  0.5173270000000  0.4427100000000  0.5249380000000 1.0
C      1  0.5691980000000  0.5842890000000  0.5286840000000 1.0
C      1  0.5121610000000  0.5401490000000  0.5241860000000 1.0
C      1  0.4339850000000  0.4685900000000  0.5601420000000 1.0
C      1  0.4575180000000  0.5074800000000  0.5426780000000 1.0
C      1  0.5199870000000  0.5288820000000  0.4369910000000 1.0
C      1  0.4962750000000  0.4510190000000  0.5440400000000 1.0
C      1  0.5400770000000  0.4904590000000  0.4639950000000 1.0
C      1  0.4863740000000  0.5609110000000  0.5783460000000 1.0
C      1  0.4655100000000  0.5442830000000  0.5787360000000 1.0
C      1  0.4728910000000  0.4616370000000  0.5321220000000 1.0
C      1  0.5109680000000  0.4630450000000  0.5660240000000 1.0
C      1  0.4539410000000  0.4959070000000  0.4487490000000 1.0
C      1  0.5464200000000  0.5731070000000  0.5346290000000 1.0
C      1  0.5135140000000  0.4115120000000  0.4819740000000 1.0
C      1  0.4888460000000  0.4808680000000  0.4158790000000 1.0
C      1  0.4672080000000  0.5191730000000  0.5184750000000 1.0
C      1  0.4621580000000  0.5726980000000  0.4509460000000 1.0
C      1  0.5386160000000  0.4616650000000  0.5291770000000 1.0
C      1  0.5250960000000  0.5020360000000  0.4416400000000 1.0
C      1  0.5201360000000  0.4295350000000  0.4349920000000 1.0
C      1  0.4734070000000  0.4624550000000  0.5037530000000 1.0
C      1  0.5317060000000  0.4928260000000  0.4907780000000 1.0
C      1  0.5296950000000  0.4556260000000  0.4329220000000 1.0
C      1  0.4394870000000  0.5430480000000  0.4848060000000 1.0
C      1  0.5079710000000  0.5668130000000  0.5638660000000 1.0
C      1  0.5062650000000  0.5515410000000  0.4351120000000 1.0
C      1  0.4649570000000  0.4880060000000  0.4256820000000 1.0
C      1  0.4604570000000  0.4993350000000  0.4756450000000 1.0
C      1  0.5224860000000  0.5602460000000  0.5407900000000 1.0
C      1  0.5142770000000  0.4131850000000  0.4553630000000 1.0
C      1  0.4546340000000  0.5241870000000  0.5650090000000 1.0
C      1  0.5044290000000  0.4992130000000  0.4961640000000 1.0
C      1  0.5157990000000  0.4224030000000  0.5061440000000 1.0
C      1  0.4440500000000  0.5634920000000  0.4682410000000 1.0
C      1  0.5482360000000  0.4648150000000  0.4533750000000 1.0
C      1  0.5539630000000  0.4949180000000  0.5577130000000 1.0
C      1  0.4958360000000  0.5201480000000  0.5138910000000 1.0
C      1  0.5602950000000  0.5020980000000  0.5317150000000 1.0
C      1  0.5150870000000  0.4797510000000  0.4254300000000 1.0
C      1  0.5474920000000  0.4843480000000  0.5126460000000 1.0
END
