TITL C-612603-7354-465 -0.00385098349581946 125000 -266.013214917652 0 0 45 (C1) n - 1
REM
REM in /home/nfs/bkarasulu/CARBON/AIRSS/Generating-Clusters/TERSOFF/Only-C1/FIRE-HFTN
REM
REM
REM
REM
REM
REM ./C.cell (11c1c37f851c82e70ff6c80c92926a4b)
REM AIRSS Version 0.9.1 bugfix July 2018 build 013d7b7c2542+ Fri, 06 Jul 2018 19:26:36 +0100
REM compiler GCC version 9.2.1 20190827 (Red Hat 9.2.1-1)
REM options -cpp -mtune=generic -march=x86-64 -g -O0 -fpre-include=/usr/include/finclude/math-vector-fortran.h
REM seed -1762307456 -1251536692 1877996167 -1678693238 -731658952 -1733602578 1335311233 -187280822 1687893095 1003950597 -1583122586 2048643762 -1132297248 -971089214 760273670 583987694 1418869294 -221652368 256798154 1207557597 1850044501 527483160 -1532804312 -981996158 1868902278 -1197293898 -934000647 -1831034307 -485372222 -1968003303 2033489386 177925038 -547958222
REM
CELL 1.54180   50.00000   50.00000   50.00000   90.00000   90.00000   90.00000
LATT -1
SFAC C  
C      1  0.6169520000000  0.4935900000000  0.5526600000000 1.0
C      1  0.4919360000000  0.5073300000000  0.4500940000000 1.0
C      1  0.4241690000000  0.4450800000000  0.4684640000000 1.0
C      1  0.4448800000000  0.5326260000000  0.4985160000000 1.0
C      1  0.5293040000000  0.4933160000000  0.4970580000000 1.0
C      1  0.5228390000000  0.5053630000000  0.5226520000000 1.0
C      1  0.4965800000000  0.5143540000000  0.5176070000000 1.0
C      1  0.4377860000000  0.5066610000000  0.5399630000000 1.0
C      1  0.4104940000000  0.4302830000000  0.4512630000000 1.0
C      1  0.3970580000000  0.4157800000000  0.4342690000000 1.0
C      1  0.4344060000000  0.5278840000000  0.4728880000000 1.0
C      1  0.4249090000000  0.4813610000000  0.5353590000000 1.0
C      1  0.5429430000000  0.5064400000000  0.5422470000000 1.0
C      1  0.4908080000000  0.5290990000000  0.4932670000000 1.0
C      1  0.5336300000000  0.4861670000000  0.3846850000000 1.0
C      1  0.4282480000000  0.4664850000000  0.5123470000000 1.0
C      1  0.4844000000000  0.4738970000000  0.4964050000000 1.0
C      1  0.5250180000000  0.5571180000000  0.4968010000000 1.0
C      1  0.5304560000000  0.5357260000000  0.4758390000000 1.0
C      1  0.5051310000000  0.5644420000000  0.5153800000000 1.0
C      1  0.5747590000000  0.4612280000000  0.5048010000000 1.0
C      1  0.4517640000000  0.5097330000000  0.5148410000000 1.0
C      1  0.5777450000000  0.4889040000000  0.5104180000000 1.0
C      1  0.4435570000000  0.5107510000000  0.4541730000000 1.0
C      1  0.5130330000000  0.4699410000000  0.4921230000000 1.0
C      1  0.4496890000000  0.5273030000000  0.5565310000000 1.0
C      1  0.5550290000000  0.4444400000000  0.4971600000000 1.0
C      1  0.5051450000000  0.5004500000000  0.4264820000000 1.0
C      1  0.4777790000000  0.5600400000000  0.5261830000000 1.0
C      1  0.5821390000000  0.5098190000000  0.5824080000000 1.0
C      1  0.5566170000000  0.5170250000000  0.5878770000000 1.0
C      1  0.4765630000000  0.4943640000000  0.5153920000000 1.0
C      1  0.5193730000000  0.4932900000000  0.4053140000000 1.0
C      1  0.4665100000000  0.4942610000000  0.4567040000000 1.0
C      1  0.5707460000000  0.4984940000000  0.5366220000000 1.0
C      1  0.4387980000000  0.4614490000000  0.4858100000000 1.0
C      1  0.5286410000000  0.4464420000000  0.4912660000000 1.0
C      1  0.5459580000000  0.5121600000000  0.4822600000000 1.0
C      1  0.5730030000000  0.5071970000000  0.4887400000000 1.0
C      1  0.5908870000000  0.5003880000000  0.5571310000000 1.0
C      1  0.4567160000000  0.5574190000000  0.5064120000000 1.0
C      1  0.5033250000000  0.5268660000000  0.4679660000000 1.0
C      1  0.4641300000000  0.4726260000000  0.4763350000000 1.0
C      1  0.5376620000000  0.5154250000000  0.5686040000000 1.0
C      1  0.4684860000000  0.5469830000000  0.5506790000000 1.0
END
