TITL C-612601-4209-1130 0.15433965107987 125000 -627.678295052686 0 0 104 (C1) n - 1
REM
REM in /home/nfs/bkarasulu/CARBON/AIRSS/Generating-Clusters/TERSOFF/Only-C1/FIRE-HFTN
REM
REM
REM
REM
REM
REM ./C.cell (11c1c37f851c82e70ff6c80c92926a4b)
REM AIRSS Version 0.9.1 bugfix July 2018 build 013d7b7c2542+ Fri, 06 Jul 2018 19:26:36 +0100
REM compiler GCC version 9.2.1 20190827 (Red Hat 9.2.1-1)
REM options -cpp -mtune=generic -march=x86-64 -g -O0 -fpre-include=/usr/include/finclude/math-vector-fortran.h
REM seed -11103980 708239144 -157053391 1401138830 1621870715 1324160379 -213446097 640500338 40816029 824849008 -1783744215 1859424906 -1642952556 -107796252 -952763696 23225884 -1945032995 -576438083 -343827255 -2108802053 2038271185 2137332939 -599469884 531117593 1566788698 1707016648 1400040154 1281203359 1372610005 1132492861 2109400469 -893347004 -180673415
REM
CELL 1.54180   50.00000   50.00000   50.00000   90.00000   90.00000   90.00000
LATT -1
SFAC C  
C      1  0.5232960000000  0.4775820000000  0.4796010000000 1.0
C      1  0.5061840000000  0.4916990000000  0.4996950000000 1.0
C      1  0.4310750000000  0.4641240000000  0.4487930000000 1.0
C      1  0.4248190000000  0.4214230000000  0.5727850000000 1.0
C      1  0.5824100000000  0.5244000000000  0.5312730000000 1.0
C      1  0.4347650000000  0.4746870000000  0.5381250000000 1.0
C      1  0.4683570000000  0.4030510000000  0.5476170000000 1.0
C      1  0.5605020000000  0.4489080000000  0.4572050000000 1.0
C      1  0.4267930000000  0.4838540000000  0.4687700000000 1.0
C      1  0.5092250000000  0.5107210000000  0.5918290000000 1.0
C      1  0.5200220000000  0.5193010000000  0.4995090000000 1.0
C      1  0.4084660000000  0.5140880000000  0.5508900000000 1.0
C      1  0.4524040000000  0.5672030000000  0.5204320000000 1.0
C      1  0.5838010000000  0.5519460000000  0.5244700000000 1.0
C      1  0.5562150000000  0.5313450000000  0.5751430000000 1.0
C      1  0.4312580000000  0.5046720000000  0.4873280000000 1.0
C      1  0.5372420000000  0.5753760000000  0.4736610000000 1.0
C      1  0.5330280000000  0.4397090000000  0.4526710000000 1.0
C      1  0.5070300000000  0.5314890000000  0.4590130000000 1.0
C      1  0.5615190000000  0.5628860000000  0.4834950000000 1.0
C      1  0.4873250000000  0.5074360000000  0.5384860000000 1.0
C      1  0.4075450000000  0.5369490000000  0.5362950000000 1.0
C      1  0.5619170000000  0.5166590000000  0.5505240000000 1.0
C      1  0.4936480000000  0.5091680000000  0.4499970000000 1.0
C      1  0.5170370000000  0.4327250000000  0.4293070000000 1.0
C      1  0.5987310000000  0.5067180000000  0.5148920000000 1.0
C      1  0.5715310000000  0.4270930000000  0.5042000000000 1.0
C      1  0.5894110000000  0.6237820000000  0.5125820000000 1.0
C      1  0.4101850000000  0.4430230000000  0.5787130000000 1.0
C      1  0.4649030000000  0.5667750000000  0.4545130000000 1.0
C      1  0.5645440000000  0.5351090000000  0.4773910000000 1.0
C      1  0.4845320000000  0.4769470000000  0.5413160000000 1.0
C      1  0.4856220000000  0.4728780000000  0.5707210000000 1.0
C      1  0.5605220000000  0.4241020000000  0.5285580000000 1.0
C      1  0.5305730000000  0.5684200000000  0.5557920000000 1.0
C      1  0.4472080000000  0.4731270000000  0.4260410000000 1.0
C      1  0.4883610000000  0.4544370000000  0.4595950000000 1.0
C      1  0.4125680000000  0.5435450000000  0.5089660000000 1.0
C      1  0.4013120000000  0.5396610000000  0.4435880000000 1.0
C      1  0.5766310000000  0.5719220000000  0.5058440000000 1.0
C      1  0.4645140000000  0.5484960000000  0.5383620000000 1.0
C      1  0.5397310000000  0.4288590000000  0.5475140000000 1.0
C      1  0.4299680000000  0.4364340000000  0.4578100000000 1.0
C      1  0.4709430000000  0.5506860000000  0.4296860000000 1.0
C      1  0.5068100000000  0.4818470000000  0.5873810000000 1.0
C      1  0.4545710000000  0.4074730000000  0.4974690000000 1.0
C      1  0.5090430000000  0.4425180000000  0.5047060000000 1.0
C      1  0.5643290000000  0.4779020000000  0.4563780000000 1.0
C      1  0.5478640000000  0.4897500000000  0.4766040000000 1.0
C      1  0.5291250000000  0.5421190000000  0.4452120000000 1.0
C      1  0.4489810000000  0.4263960000000  0.4770600000000 1.0
C      1  0.6110310000000  0.4851780000000  0.5266720000000 1.0
C      1  0.5297100000000  0.4643460000000  0.5847010000000 1.0
C      1  0.5133480000000  0.5343900000000  0.4038950000000 1.0
C      1  0.4943490000000  0.4037730000000  0.5605830000000 1.0
C      1  0.4648150000000  0.4656290000000  0.5001430000000 1.0
C      1  0.4442440000000  0.4074300000000  0.5609530000000 1.0
C      1  0.4342680000000  0.5605550000000  0.4988870000000 1.0
C      1  0.5365360000000  0.5200780000000  0.5928980000000 1.0
C      1  0.5066790000000  0.5409070000000  0.4864660000000 1.0
C      1  0.4090740000000  0.5209710000000  0.4926780000000 1.0
C      1  0.4657530000000  0.5223490000000  0.5263080000000 1.0
C      1  0.4895860000000  0.4420770000000  0.4317610000000 1.0
C      1  0.4732750000000  0.4080620000000  0.5190480000000 1.0
C      1  0.5385060000000  0.4554710000000  0.5588940000000 1.0
C      1  0.5857600000000  0.5199410000000  0.4642450000000 1.0
C      1  0.5138840000000  0.5685910000000  0.4897170000000 1.0
C      1  0.4047590000000  0.4688690000000  0.5735270000000 1.0
C      1  0.5468000000000  0.5157090000000  0.4885370000000 1.0
C      1  0.4595570000000  0.4665750000000  0.5282010000000 1.0
C      1  0.5266330000000  0.4190520000000  0.4077930000000 1.0
C      1  0.4841760000000  0.5489250000000  0.5607390000000 1.0
C      1  0.3761720000000  0.5387560000000  0.4367810000000 1.0
C      1  0.4873900000000  0.4836520000000  0.4515270000000 1.0
C      1  0.4764990000000  0.4914580000000  0.4945460000000 1.0
C      1  0.4566260000000  0.5109630000000  0.5008240000000 1.0
C      1  0.5150360000000  0.4146980000000  0.5437880000000 1.0
C      1  0.4483690000000  0.5021160000000  0.4219110000000 1.0
C      1  0.5735060000000  0.4350260000000  0.4785330000000 1.0
C      1  0.6022280000000  0.5110030000000  0.4864810000000 1.0
C      1  0.5088430000000  0.4694730000000  0.5227040000000 1.0
C      1  0.5008690000000  0.4191420000000  0.5180260000000 1.0
C      1  0.4960830000000  0.5553220000000  0.4154150000000 1.0
C      1  0.5145850000000  0.4496010000000  0.4751700000000 1.0
C      1  0.4676580000000  0.4542250000000  0.4171700000000 1.0
C      1  0.5527380000000  0.5591440000000  0.5708100000000 1.0
C      1  0.5120500000000  0.5780790000000  0.4255530000000 1.0
C      1  0.5838730000000  0.5985550000000  0.5091150000000 1.0
C      1  0.4674300000000  0.4477260000000  0.4791500000000 1.0
C      1  0.5379800000000  0.5035720000000  0.5420180000000 1.0
C      1  0.4412510000000  0.5584440000000  0.4696960000000 1.0
C      1  0.5335680000000  0.4755400000000  0.5389350000000 1.0
C      1  0.5274460000000  0.5948270000000  0.5499020000000 1.0
C      1  0.5750030000000  0.5017500000000  0.4429070000000 1.0
C      1  0.4490200000000  0.5298130000000  0.4301590000000 1.0
C      1  0.5139520000000  0.5201660000000  0.5416620000000 1.0
C      1  0.4994270000000  0.5877360000000  0.5025360000000 1.0
C      1  0.5315470000000  0.5711280000000  0.4455270000000 1.0
C      1  0.4878860000000  0.5304060000000  0.5843880000000 1.0
C      1  0.4152760000000  0.4868240000000  0.5544830000000 1.0
C      1  0.5115600000000  0.5483580000000  0.5494470000000 1.0
C      1  0.5593580000000  0.5112300000000  0.4202110000000 1.0
C      1  0.5370230000000  0.5203840000000  0.4069660000000 1.0
C      1  0.4286060000000  0.5405850000000  0.4492060000000 1.0
END
