TITL C-612601-4209-830 0.00463001550941014 125000 -760.784720686403 0 0 125 (C1) n - 1
REM
REM in /home/nfs/bkarasulu/CARBON/AIRSS/Generating-Clusters/TERSOFF/Only-C1/FIRE-HFTN
REM
REM
REM
REM
REM
REM ./C.cell (11c1c37f851c82e70ff6c80c92926a4b)
REM AIRSS Version 0.9.1 bugfix July 2018 build 013d7b7c2542+ Fri, 06 Jul 2018 19:26:36 +0100
REM compiler GCC version 9.2.1 20190827 (Red Hat 9.2.1-1)
REM options -cpp -mtune=generic -march=x86-64 -g -O0 -fpre-include=/usr/include/finclude/math-vector-fortran.h
REM seed -1468730250 -1422443540 -855139836 132326729 -276515486 -120803516 1578320067 -925687013 -721484636 -2130380888 1211344586 -2122919906 -2118222852 -1281509613 -640282326 -2033370435 -1919214503 1560304859 744039014 -918071920 571688038 -686484861 571522435 1892534135 483036220 149661423 -179580934 1786020930 632814978 -1127766472 776631964 1636211264 913256798
REM
CELL 1.54180   50.00000   50.00000   50.00000   90.00000   90.00000   90.00000
LATT -1
SFAC C  
C      1  0.4071710000000  0.5352020000000  0.4255580000000 1.0
C      1  0.4141630000000  0.4798370000000  0.5078320000000 1.0
C      1  0.4141190000000  0.5097650000000  0.4159840000000 1.0
C      1  0.5942500000000  0.4386250000000  0.5320180000000 1.0
C      1  0.4592220000000  0.4717180000000  0.4699480000000 1.0
C      1  0.4888210000000  0.3946420000000  0.5232090000000 1.0
C      1  0.5193710000000  0.4661900000000  0.4409550000000 1.0
C      1  0.5133250000000  0.4611970000000  0.5984090000000 1.0
C      1  0.5822310000000  0.4183920000000  0.5448340000000 1.0
C      1  0.5307490000000  0.4751170000000  0.5804740000000 1.0
C      1  0.4801850000000  0.4400520000000  0.4199830000000 1.0
C      1  0.5104280000000  0.6213890000000  0.5261320000000 1.0
C      1  0.4529920000000  0.5807970000000  0.5880460000000 1.0
C      1  0.5385230000000  0.5014930000000  0.5891920000000 1.0
C      1  0.5285190000000  0.4513610000000  0.5064080000000 1.0
C      1  0.5008660000000  0.5862740000000  0.4632120000000 1.0
C      1  0.3766580000000  0.5128210000000  0.5002950000000 1.0
C      1  0.5379040000000  0.4273370000000  0.4969790000000 1.0
C      1  0.4944730000000  0.6067610000000  0.4829920000000 1.0
C      1  0.5233930000000  0.4140900000000  0.5810050000000 1.0
C      1  0.6155650000000  0.5580820000000  0.5097380000000 1.0
C      1  0.4172580000000  0.4676540000000  0.4474770000000 1.0
C      1  0.5494780000000  0.5751650000000  0.5161680000000 1.0
C      1  0.4665530000000  0.5568540000000  0.4933890000000 1.0
C      1  0.4851360000000  0.4673030000000  0.5410900000000 1.0
C      1  0.5410050000000  0.4696920000000  0.5256720000000 1.0
C      1  0.5483520000000  0.4922580000000  0.5077310000000 1.0
C      1  0.4942180000000  0.5500370000000  0.5020650000000 1.0
C      1  0.5848930000000  0.5308160000000  0.4492000000000 1.0
C      1  0.4789490000000  0.4936640000000  0.6078240000000 1.0
C      1  0.4808610000000  0.5723280000000  0.4477350000000 1.0
C      1  0.4718240000000  0.5106830000000  0.5601930000000 1.0
C      1  0.4359510000000  0.4746340000000  0.5258290000000 1.0
C      1  0.5107210000000  0.4658230000000  0.4899880000000 1.0
C      1  0.4952280000000  0.5396940000000  0.5291090000000 1.0
C      1  0.4395580000000  0.4034760000000  0.5235550000000 1.0
C      1  0.5380270000000  0.4987960000000  0.4808630000000 1.0
C      1  0.5158870000000  0.6152070000000  0.5539530000000 1.0
C      1  0.5202770000000  0.5206100000000  0.6015550000000 1.0
C      1  0.5279000000000  0.5731780000000  0.4718650000000 1.0
C      1  0.4989400000000  0.5669670000000  0.5863400000000 1.0
C      1  0.5418830000000  0.5337150000000  0.5428810000000 1.0
C      1  0.4396140000000  0.6030280000000  0.4308200000000 1.0
C      1  0.4707610000000  0.5215700000000  0.4531110000000 1.0
C      1  0.4841860000000  0.4951580000000  0.3881310000000 1.0
C      1  0.5487570000000  0.4027080000000  0.5042500000000 1.0
C      1  0.4721340000000  0.6104230000000  0.5010940000000 1.0
C      1  0.4689150000000  0.5295980000000  0.5390650000000 1.0
C      1  0.4583980000000  0.5019330000000  0.3869890000000 1.0
C      1  0.5628460000000  0.5102420000000  0.5783240000000 1.0
C      1  0.5286750000000  0.5236020000000  0.4714770000000 1.0
C      1  0.5963690000000  0.4346250000000  0.4692290000000 1.0
C      1  0.5995270000000  0.4843260000000  0.4710150000000 1.0
C      1  0.5380540000000  0.5287830000000  0.4452020000000 1.0
C      1  0.4955860000000  0.4860390000000  0.5028860000000 1.0
C      1  0.4574480000000  0.5194500000000  0.5148510000000 1.0
C      1  0.5976290000000  0.5903760000000  0.4738210000000 1.0
C      1  0.6123970000000  0.5777770000000  0.4921040000000 1.0
C      1  0.5157690000000  0.5471440000000  0.5928780000000 1.0
C      1  0.4149510000000  0.4139690000000  0.5226840000000 1.0
C      1  0.5538930000000  0.4821820000000  0.4108600000000 1.0
C      1  0.4062620000000  0.4495900000000  0.4666200000000 1.0
C      1  0.5054670000000  0.4486400000000  0.5500780000000 1.0
C      1  0.4049460000000  0.5061420000000  0.5024760000000 1.0
C      1  0.4683850000000  0.4244930000000  0.4911210000000 1.0
C      1  0.5485790000000  0.4041750000000  0.5777550000000 1.0
C      1  0.4588770000000  0.5874160000000  0.4388390000000 1.0
C      1  0.5361980000000  0.5896160000000  0.4964240000000 1.0
C      1  0.4036820000000  0.4560460000000  0.4947270000000 1.0
C      1  0.4182470000000  0.5310960000000  0.4914030000000 1.0
C      1  0.5182510000000  0.6113830000000  0.5005590000000 1.0
C      1  0.5088060000000  0.4213500000000  0.5575830000000 1.0
C      1  0.4773450000000  0.4132730000000  0.4668580000000 1.0
C      1  0.4991180000000  0.5109110000000  0.6178140000000 1.0
C      1  0.4058910000000  0.4871750000000  0.4309590000000 1.0
C      1  0.5463850000000  0.5620090000000  0.5405830000000 1.0
C      1  0.4800990000000  0.6147220000000  0.5284270000000 1.0
C      1  0.4933050000000  0.5403920000000  0.4149090000000 1.0
C      1  0.5123060000000  0.4015040000000  0.5368450000000 1.0
C      1  0.5367020000000  0.6029560000000  0.5670710000000 1.0
C      1  0.5168890000000  0.5466260000000  0.4838580000000 1.0
C      1  0.4308340000000  0.4059350000000  0.4521590000000 1.0
C      1  0.4002960000000  0.4336700000000  0.5119310000000 1.0
C      1  0.5273660000000  0.4796320000000  0.4170590000000 1.0
C      1  0.4637880000000  0.5043490000000  0.5862560000000 1.0
C      1  0.5750750000000  0.5892930000000  0.4594900000000 1.0
C      1  0.5654070000000  0.5205090000000  0.5524810000000 1.0
C      1  0.5706610000000  0.3949590000000  0.4884120000000 1.0
C      1  0.5154660000000  0.5219890000000  0.5395350000000 1.0
C      1  0.6073560000000  0.5381190000000  0.5252940000000 1.0
C      1  0.4680740000000  0.4138780000000  0.4205860000000 1.0
C      1  0.4026740000000  0.5495090000000  0.4476580000000 1.0
C      1  0.5075660000000  0.4884810000000  0.3990910000000 1.0
C      1  0.5995660000000  0.4552520000000  0.5116380000000 1.0
C      1  0.3984200000000  0.5451120000000  0.4748230000000 1.0
C      1  0.5607920000000  0.5452280000000  0.4446920000000 1.0
C      1  0.5875490000000  0.4095070000000  0.4731980000000 1.0
C      1  0.5405610000000  0.3960070000000  0.5306760000000 1.0
C      1  0.4584320000000  0.4057190000000  0.4463540000000 1.0
C      1  0.5898070000000  0.5238930000000  0.5393460000000 1.0
C      1  0.4781890000000  0.5842980000000  0.5778830000000 1.0
C      1  0.5245170000000  0.4763930000000  0.4672760000000 1.0
C      1  0.4620370000000  0.4631940000000  0.5218390000000 1.0
C      1  0.4741250000000  0.5031460000000  0.4983980000000 1.0
C      1  0.4830780000000  0.6044660000000  0.5594700000000 1.0
C      1  0.5481210000000  0.5789930000000  0.5629940000000 1.0
C      1  0.4338770000000  0.5069140000000  0.3962180000000 1.0
C      1  0.3730230000000  0.5355500000000  0.4849810000000 1.0
C      1  0.5992800000000  0.4589340000000  0.4835250000000 1.0
C      1  0.4935900000000  0.4949160000000  0.5494340000000 1.0
C      1  0.5026810000000  0.4220450000000  0.4571140000000 1.0
C      1  0.4882330000000  0.4669010000000  0.6070390000000 1.0
C      1  0.5539390000000  0.5712030000000  0.4551790000000 1.0
C      1  0.4455660000000  0.4657190000000  0.4459920000000 1.0
C      1  0.4661920000000  0.5000990000000  0.4712710000000 1.0
C      1  0.4607770000000  0.4602390000000  0.4231390000000 1.0
C      1  0.5306750000000  0.4651670000000  0.5527440000000 1.0
C      1  0.5036700000000  0.4423370000000  0.4371700000000 1.0
C      1  0.4107630000000  0.4222000000000  0.4597970000000 1.0
C      1  0.5958050000000  0.5083160000000  0.4593900000000 1.0
C      1  0.4654030000000  0.4064790000000  0.5130730000000 1.0
C      1  0.4638270000000  0.4529300000000  0.4936160000000 1.0
C      1  0.4816130000000  0.5445110000000  0.4395270000000 1.0
C      1  0.4440260000000  0.5392940000000  0.4992060000000 1.0
C      1  0.5598270000000  0.4025680000000  0.5516610000000 1.0
END
