TITL C-612606-7351-532 0.866961646413337 125000 -370.934028017426 0 0 62 (C1) n - 1
REM
REM in /home/nfs/bkarasulu/CARBON/AIRSS/Generating-Clusters/TERSOFF/Only-C1/FIRE-HFTN
REM
REM
REM
REM
REM
REM ./C.cell (11c1c37f851c82e70ff6c80c92926a4b)
REM AIRSS Version 0.9.1 bugfix July 2018 build 013d7b7c2542+ Fri, 06 Jul 2018 19:26:36 +0100
REM compiler GCC version 9.2.1 20190827 (Red Hat 9.2.1-1)
REM options -cpp -mtune=generic -march=x86-64 -g -O0 -fpre-include=/usr/include/finclude/math-vector-fortran.h
REM seed -759526512 -427449859 -1153517031 -1823806767 190101190 -1937736082 258610209 58381142 -945556701 -1612542631 50045306 1740468427 -710378149 -1015045409 -1779585979 980606746 -2074857854 1180923121 552905510 -768819322 309301825 -1368900194 1408154118 499684414 2010901049 -1633507679 1747130423 -1522778500 513485165 -473119401 -2045212297 914188906 1612264319
REM
CELL 1.54180   50.00000   50.00000   50.00000   90.00000   90.00000   90.00000
LATT -1
SFAC C  
C      1  0.5454410000000  0.4368490000000  0.5511890000000 1.0
C      1  0.5236300000000  0.5065350000000  0.4714330000000 1.0
C      1  0.5346070000000  0.4795470000000  0.6026440000000 1.0
C      1  0.5712430000000  0.5272100000000  0.3732640000000 1.0
C      1  0.5928480000000  0.5214170000000  0.3877900000000 1.0
C      1  0.5455320000000  0.5250760000000  0.5803620000000 1.0
C      1  0.5104170000000  0.4735710000000  0.4200330000000 1.0
C      1  0.4814100000000  0.5018360000000  0.5818760000000 1.0
C      1  0.5071080000000  0.4280410000000  0.5252960000000 1.0
C      1  0.5456070000000  0.5342170000000  0.3749440000000 1.0
C      1  0.4624190000000  0.5425880000000  0.4779320000000 1.0
C      1  0.5046870000000  0.5767800000000  0.4223230000000 1.0
C      1  0.5052950000000  0.5230520000000  0.4018720000000 1.0
C      1  0.5352140000000  0.4318500000000  0.5757500000000 1.0
C      1  0.4711900000000  0.5390300000000  0.5045870000000 1.0
C      1  0.4665650000000  0.4006350000000  0.5424180000000 1.0
C      1  0.4896170000000  0.4177270000000  0.5444790000000 1.0
C      1  0.4415070000000  0.4529030000000  0.5785560000000 1.0
C      1  0.4348060000000  0.5425640000000  0.5430330000000 1.0
C      1  0.5057540000000  0.4877130000000  0.4821040000000 1.0
C      1  0.5242430000000  0.5416040000000  0.3911980000000 1.0
C      1  0.4483460000000  0.4071470000000  0.5621470000000 1.0
C      1  0.4389490000000  0.5289620000000  0.4703390000000 1.0
C      1  0.4577620000000  0.4302660000000  0.5770980000000 1.0
C      1  0.5522050000000  0.4870100000000  0.5237900000000 1.0
C      1  0.4746820000000  0.5607860000000  0.5231670000000 1.0
C      1  0.4569200000000  0.5260720000000  0.4081850000000 1.0
C      1  0.5000580000000  0.5662400000000  0.5335860000000 1.0
C      1  0.5098900000000  0.4406840000000  0.5852410000000 1.0
C      1  0.5049030000000  0.6023500000000  0.4316940000000 1.0
C      1  0.4510220000000  0.5641070000000  0.5387720000000 1.0
C      1  0.5364760000000  0.5444850000000  0.5645030000000 1.0
C      1  0.4867020000000  0.4975850000000  0.5273450000000 1.0
C      1  0.5104310000000  0.4651480000000  0.5998030000000 1.0
C      1  0.4701920000000  0.5252670000000  0.5901510000000 1.0
C      1  0.4771810000000  0.5556030000000  0.4581490000000 1.0
C      1  0.4821510000000  0.5346500000000  0.4141950000000 1.0
C      1  0.6006810000000  0.5183140000000  0.4130940000000 1.0
C      1  0.5459540000000  0.5022600000000  0.5941720000000 1.0
C      1  0.4919550000000  0.4699890000000  0.4646420000000 1.0
C      1  0.4404870000000  0.4794750000000  0.4653030000000 1.0
C      1  0.5921860000000  0.5179160000000  0.4383260000000 1.0
C      1  0.5218930000000  0.5677420000000  0.4017820000000 1.0
C      1  0.5152450000000  0.4323210000000  0.4447080000000 1.0
C      1  0.4874870000000  0.4813330000000  0.6001200000000 1.0
C      1  0.4641490000000  0.4672420000000  0.4661050000000 1.0
C      1  0.4653320000000  0.5143300000000  0.5185310000000 1.0
C      1  0.4894900000000  0.4972820000000  0.5553200000000 1.0
C      1  0.4413550000000  0.5158770000000  0.5351640000000 1.0
C      1  0.5060940000000  0.4580050000000  0.4429640000000 1.0
C      1  0.4301560000000  0.5040920000000  0.4661110000000 1.0
C      1  0.4869620000000  0.5566030000000  0.4320370000000 1.0
C      1  0.4303990000000  0.4936550000000  0.5480640000000 1.0
C      1  0.5104540000000  0.4958770000000  0.4055840000000 1.0
C      1  0.5210520000000  0.5590600000000  0.5483880000000 1.0
C      1  0.5292800000000  0.4721250000000  0.5211550000000 1.0
C      1  0.4307580000000  0.4735480000000  0.5655340000000 1.0
C      1  0.5722700000000  0.5184190000000  0.4559140000000 1.0
C      1  0.4868390000000  0.4313550000000  0.5711340000000 1.0
C      1  0.5473720000000  0.5164170000000  0.4648940000000 1.0
C      1  0.5293470000000  0.4449450000000  0.5292480000000 1.0
C      1  0.5057900000000  0.4847110000000  0.5104580000000 1.0
END
