TITL C-612603-7354-1326 6.33521985976462 125000 -774.96138271706 0 0 128 (C1) n - 1
REM
REM in /home/nfs/bkarasulu/CARBON/AIRSS/Generating-Clusters/TERSOFF/Only-C1/FIRE-HFTN
REM
REM
REM
REM
REM
REM ./C.cell (11c1c37f851c82e70ff6c80c92926a4b)
REM AIRSS Version 0.9.1 bugfix July 2018 build 013d7b7c2542+ Fri, 06 Jul 2018 19:26:36 +0100
REM compiler GCC version 9.2.1 20190827 (Red Hat 9.2.1-1)
REM options -cpp -mtune=generic -march=x86-64 -g -O0 -fpre-include=/usr/include/finclude/math-vector-fortran.h
REM seed 1524475313 1330013948 683520436 -1534605626 -854235238 -1217589419 -1440026094 1684459924 1479645367 987126145 -332819634 14471294 -1088191247 -470348673 -1717931120 -1628913905 2048237323 -21722552 -1692553981 -685978628 1461674798 309497341 701613780 -898358871 -610194996 1299304497 -462081270 -900740699 -1250200633 2139493309 -954221249 1730314549 -1333326961
REM
CELL 1.54180   50.00000   50.00000   50.00000   90.00000   90.00000   90.00000
LATT -1
SFAC C  
C      1  0.6497160000000  0.6081140000000  0.5124820000000 1.0
C      1  0.5942430000000  0.4999940000000  0.5469510000000 1.0
C      1  0.4157920000000  0.5532140000000  0.5116810000000 1.0
C      1  0.5182250000000  0.5387170000000  0.4104180000000 1.0
C      1  0.4206830000000  0.4923170000000  0.4222460000000 1.0
C      1  0.5639190000000  0.3840400000000  0.5273680000000 1.0
C      1  0.4479970000000  0.4001940000000  0.5081910000000 1.0
C      1  0.4210950000000  0.5186530000000  0.4676120000000 1.0
C      1  0.5374860000000  0.4484440000000  0.4242910000000 1.0
C      1  0.6580200000000  0.5363200000000  0.5230140000000 1.0
C      1  0.4760130000000  0.4478500000000  0.4503270000000 1.0
C      1  0.6482790000000  0.5604230000000  0.5179020000000 1.0
C      1  0.4710310000000  0.5584840000000  0.4490010000000 1.0
C      1  0.4893860000000  0.4317690000000  0.4331880000000 1.0
C      1  0.4756680000000  0.5926800000000  0.5511100000000 1.0
C      1  0.4096860000000  0.3704920000000  0.5073650000000 1.0
C      1  0.4016350000000  0.4486230000000  0.5067500000000 1.0
C      1  0.3761760000000  0.4229080000000  0.4748200000000 1.0
C      1  0.5915820000000  0.4988070000000  0.4987300000000 1.0
C      1  0.4493270000000  0.5252900000000  0.4001580000000 1.0
C      1  0.4708200000000  0.4136810000000  0.5058320000000 1.0
C      1  0.5850380000000  0.5469230000000  0.5403330000000 1.0
C      1  0.4674680000000  0.4662060000000  0.5354450000000 1.0
C      1  0.3385430000000  0.3878790000000  0.4638830000000 1.0
C      1  0.4992610000000  0.5110840000000  0.5429930000000 1.0
C      1  0.6674490000000  0.5125660000000  0.5281540000000 1.0
C      1  0.6116900000000  0.4619560000000  0.5195980000000 1.0
C      1  0.4297360000000  0.5334230000000  0.4451230000000 1.0
C      1  0.4135290000000  0.4713710000000  0.5522200000000 1.0
C      1  0.5126690000000  0.4953860000000  0.6025930000000 1.0
C      1  0.5610160000000  0.4647760000000  0.4793600000000 1.0
C      1  0.5093510000000  0.4592640000000  0.4829270000000 1.0
C      1  0.5287160000000  0.5019830000000  0.5821310000000 1.0
C      1  0.5330640000000  0.5981360000000  0.4551540000000 1.0
C      1  0.4851360000000  0.4676810000000  0.4685010000000 1.0
C      1  0.4895110000000  0.5192430000000  0.4737620000000 1.0
C      1  0.4728970000000  0.4945920000000  0.4714480000000 1.0
C      1  0.5481800000000  0.5348050000000  0.5144850000000 1.0
C      1  0.6354830000000  0.5847690000000  0.5128440000000 1.0
C      1  0.4901040000000  0.6389530000000  0.5455560000000 1.0
C      1  0.4750980000000  0.5967480000000  0.4193910000000 1.0
C      1  0.5321800000000  0.4506660000000  0.5265770000000 1.0
C      1  0.5578960000000  0.5883450000000  0.4551190000000 1.0
C      1  0.4270000000000  0.3872220000000  0.5215000000000 1.0
C      1  0.5371640000000  0.6075280000000  0.5214870000000 1.0
C      1  0.5329100000000  0.4745220000000  0.5413810000000 1.0
C      1  0.4171580000000  0.5253550000000  0.5145320000000 1.0
C      1  0.4871950000000  0.7158860000000  0.5635520000000 1.0
C      1  0.4379550000000  0.4100210000000  0.5954210000000 1.0
C      1  0.5701790000000  0.5543690000000  0.5165590000000 1.0
C      1  0.4921000000000  0.4260830000000  0.5189590000000 1.0
C      1  0.5116080000000  0.5979770000000  0.4709720000000 1.0
C      1  0.4851670000000  0.5735540000000  0.4297280000000 1.0
C      1  0.4058060000000  0.4572740000000  0.4584360000000 1.0
C      1  0.3946710000000  0.3533050000000  0.4947790000000 1.0
C      1  0.5339290000000  0.4638910000000  0.4686490000000 1.0
C      1  0.5430560000000  0.5040730000000  0.4440400000000 1.0
C      1  0.5001030000000  0.5285940000000  0.3912950000000 1.0
C      1  0.4728970000000  0.4687010000000  0.3862500000000 1.0
C      1  0.4365070000000  0.5686770000000  0.5012350000000 1.0
C      1  0.4918040000000  0.6120020000000  0.5388030000000 1.0
C      1  0.5096890000000  0.6027900000000  0.5187480000000 1.0
C      1  0.4705240000000  0.5178930000000  0.6048600000000 1.0
C      1  0.5747160000000  0.5785790000000  0.4734000000000 1.0
C      1  0.5098390000000  0.5632780000000  0.4210760000000 1.0
C      1  0.3948360000000  0.4430950000000  0.4800650000000 1.0
C      1  0.3572070000000  0.4052620000000  0.4692780000000 1.0
C      1  0.4665420000000  0.5418590000000  0.5916420000000 1.0
C      1  0.5706530000000  0.4916670000000  0.4816270000000 1.0
C      1  0.5656780000000  0.4164330000000  0.4869460000000 1.0
C      1  0.5812290000000  0.4455940000000  0.4031650000000 1.0
C      1  0.5792670000000  0.5795610000000  0.5026630000000 1.0
C      1  0.4877210000000  0.4786370000000  0.4058980000000 1.0
C      1  0.4950950000000  0.5015800000000  0.5166470000000 1.0
C      1  0.5672380000000  0.4132340000000  0.4366220000000 1.0
C      1  0.5515620000000  0.5102650000000  0.4712700000000 1.0
C      1  0.5489410000000  0.5195720000000  0.5401280000000 1.0
C      1  0.5764160000000  0.5213860000000  0.5505240000000 1.0
C      1  0.5271620000000  0.5027180000000  0.5525710000000 1.0
C      1  0.5483110000000  0.4281560000000  0.5324420000000 1.0
C      1  0.5354840000000  0.5224320000000  0.4920810000000 1.0
C      1  0.4116930000000  0.5163850000000  0.5400810000000 1.0
C      1  0.4843980000000  0.5653370000000  0.4954080000000 1.0
C      1  0.4572800000000  0.4262630000000  0.6042990000000 1.0
C      1  0.5139700000000  0.4320060000000  0.4220060000000 1.0
C      1  0.4749920000000  0.4690400000000  0.5881540000000 1.0
C      1  0.5624800000000  0.3895190000000  0.5545340000000 1.0
C      1  0.4647080000000  0.4745440000000  0.5624410000000 1.0
C      1  0.4844970000000  0.4925410000000  0.6027020000000 1.0
C      1  0.5626700000000  0.4360400000000  0.4206880000000 1.0
C      1  0.5768810000000  0.4426140000000  0.4874060000000 1.0
C      1  0.4780970000000  0.4410550000000  0.5925280000000 1.0
C      1  0.5538930000000  0.4156760000000  0.5581720000000 1.0
C      1  0.4668120000000  0.5670690000000  0.5432010000000 1.0
C      1  0.5372210000000  0.5232750000000  0.4242320000000 1.0
C      1  0.6012490000000  0.4451910000000  0.5013400000000 1.0
C      1  0.4246710000000  0.4972910000000  0.5551910000000 1.0
C      1  0.4338530000000  0.5739740000000  0.4733640000000 1.0
C      1  0.5569540000000  0.4076910000000  0.5120870000000 1.0
C      1  0.4622380000000  0.5654610000000  0.5141040000000 1.0
C      1  0.4706860000000  0.4855330000000  0.5149640000000 1.0
C      1  0.4890830000000  0.6647200000000  0.5516040000000 1.0
C      1  0.4526610000000  0.5002270000000  0.5597540000000 1.0
C      1  0.6079390000000  0.5848990000000  0.5081700000000 1.0
C      1  0.4056460000000  0.4553510000000  0.5322320000000 1.0
C      1  0.4835790000000  0.5472950000000  0.4720530000000 1.0
C      1  0.4266670000000  0.3978430000000  0.5745800000000 1.0
C      1  0.4427040000000  0.5581750000000  0.4513260000000 1.0
C      1  0.4683610000000  0.5460520000000  0.5629070000000 1.0
C      1  0.4295050000000  0.5102870000000  0.4932520000000 1.0
C      1  0.6024500000000  0.4882560000000  0.5227550000000 1.0
C      1  0.4734040000000  0.5272500000000  0.3887510000000 1.0
C      1  0.5650890000000  0.4042860000000  0.4617940000000 1.0
C      1  0.5620530000000  0.6010160000000  0.5148810000000 1.0
C      1  0.4881310000000  0.6905150000000  0.5576280000000 1.0
C      1  0.4320660000000  0.5181750000000  0.4210470000000 1.0
C      1  0.4735450000000  0.5197400000000  0.5536910000000 1.0
C      1  0.5083950000000  0.5139060000000  0.4946840000000 1.0
C      1  0.4123050000000  0.4716360000000  0.4369380000000 1.0
C      1  0.5315580000000  0.4749170000000  0.4396140000000 1.0
C      1  0.5103180000000  0.4455530000000  0.5082420000000 1.0
C      1  0.4236520000000  0.3907750000000  0.5491240000000 1.0
C      1  0.4945850000000  0.4208150000000  0.5468740000000 1.0
C      1  0.4534350000000  0.4943170000000  0.4937440000000 1.0
C      1  0.5011440000000  0.5886470000000  0.4953110000000 1.0
C      1  0.4931570000000  0.4272170000000  0.5728350000000 1.0
C      1  0.4576440000000  0.4584540000000  0.3677620000000 1.0
C      1  0.5055630000000  0.4823720000000  0.4252720000000 1.0
END
