TITL C-612603-7354-1266 5.35927648843161 125000 -941.671954113738 0 0 156 (C1) n - 1
REM
REM in /home/nfs/bkarasulu/CARBON/AIRSS/Generating-Clusters/TERSOFF/Only-C1/FIRE-HFTN
REM
REM
REM
REM
REM
REM ./C.cell (11c1c37f851c82e70ff6c80c92926a4b)
REM AIRSS Version 0.9.1 bugfix July 2018 build 013d7b7c2542+ Fri, 06 Jul 2018 19:26:36 +0100
REM compiler GCC version 9.2.1 20190827 (Red Hat 9.2.1-1)
REM options -cpp -mtune=generic -march=x86-64 -g -O0 -fpre-include=/usr/include/finclude/math-vector-fortran.h
REM seed 1112908211 1767428353 -2070011213 1962795071 615908842 -34382506 -687196094 -861794811 -1497915370 879889637 -1113127789 -1772404091 -1163611038 -813892420 1108342540 180792061 1514836313 1048669696 -899823758 -461267097 -1179769699 682738197 2021132176 878884327 1672171993 -2027666912 2093063394 1513687068 -1875116875 1685955152 425668748 -1810859415 -815867614
REM
CELL 1.54180   50.00000   50.00000   50.00000   90.00000   90.00000   90.00000
LATT -1
SFAC C  
C      1  0.4680590000000  0.5706840000000  0.5749380000000 1.0
C      1  0.5444140000000  0.5277280000000  0.3935030000000 1.0
C      1  0.3875590000000  0.4971820000000  0.5935660000000 1.0
C      1  0.5302190000000  0.5117880000000  0.5137430000000 1.0
C      1  0.5721350000000  0.4058160000000  0.5078460000000 1.0
C      1  0.4411650000000  0.4676520000000  0.4944010000000 1.0
C      1  0.5672520000000  0.5788750000000  0.4649060000000 1.0
C      1  0.4356140000000  0.4995590000000  0.5840090000000 1.0
C      1  0.5337150000000  0.4539830000000  0.5971990000000 1.0
C      1  0.4985600000000  0.4557210000000  0.5254050000000 1.0
C      1  0.4592520000000  0.5348840000000  0.4795150000000 1.0
C      1  0.4751650000000  0.5082230000000  0.3994090000000 1.0
C      1  0.4816880000000  0.4145130000000  0.5524170000000 1.0
C      1  0.4528990000000  0.4490860000000  0.5814830000000 1.0
C      1  0.4804650000000  0.4864020000000  0.5644890000000 1.0
C      1  0.4902680000000  0.4420760000000  0.4108620000000 1.0
C      1  0.5557860000000  0.4764450000000  0.4255350000000 1.0
C      1  0.3846720000000  0.4700120000000  0.4842710000000 1.0
C      1  0.5805660000000  0.4344420000000  0.4652830000000 1.0
C      1  0.5475170000000  0.5998980000000  0.4753770000000 1.0
C      1  0.5773890000000  0.4276700000000  0.5494680000000 1.0
C      1  0.5557560000000  0.4288320000000  0.4510970000000 1.0
C      1  0.5311400000000  0.4396200000000  0.4399270000000 1.0
C      1  0.4491750000000  0.5028820000000  0.4127520000000 1.0
C      1  0.4485850000000  0.4181650000000  0.4897080000000 1.0
C      1  0.4483750000000  0.4744810000000  0.5226990000000 1.0
C      1  0.4720320000000  0.4970390000000  0.4510960000000 1.0
C      1  0.4071440000000  0.5441840000000  0.4662900000000 1.0
C      1  0.4825570000000  0.4987800000000  0.4992440000000 1.0
C      1  0.4085630000000  0.5072600000000  0.5300790000000 1.0
C      1  0.5604930000000  0.5078590000000  0.4685580000000 1.0
C      1  0.5721830000000  0.4940750000000  0.4111510000000 1.0
C      1  0.5249160000000  0.5571410000000  0.5305440000000 1.0
C      1  0.4580690000000  0.4464200000000  0.4857890000000 1.0
C      1  0.5359170000000  0.5222860000000  0.4577430000000 1.0
C      1  0.4857500000000  0.4203740000000  0.4274550000000 1.0
C      1  0.5242740000000  0.4789030000000  0.4614080000000 1.0
C      1  0.4548110000000  0.5731860000000  0.4381870000000 1.0
C      1  0.5547780000000  0.4646070000000  0.5153230000000 1.0
C      1  0.4581510000000  0.5893160000000  0.4617350000000 1.0
C      1  0.5123230000000  0.6035240000000  0.4386850000000 1.0
C      1  0.4150520000000  0.5343190000000  0.4420260000000 1.0
C      1  0.5222010000000  0.5108530000000  0.3890300000000 1.0
C      1  0.4913710000000  0.3991420000000  0.4768200000000 1.0
C      1  0.4534640000000  0.4837900000000  0.4334490000000 1.0
C      1  0.4789200000000  0.4843600000000  0.4745220000000 1.0
C      1  0.5019400000000  0.6083410000000  0.5645860000000 1.0
C      1  0.5901060000000  0.5062950000000  0.4632680000000 1.0
C      1  0.4984690000000  0.5803810000000  0.4369970000000 1.0
C      1  0.6012950000000  0.4808160000000  0.4713690000000 1.0
C      1  0.5024210000000  0.4470610000000  0.4997990000000 1.0
C      1  0.4437470000000  0.5132080000000  0.4865140000000 1.0
C      1  0.4038820000000  0.4827310000000  0.5481760000000 1.0
C      1  0.4287180000000  0.4901870000000  0.4822640000000 1.0
C      1  0.6277160000000  0.4956870000000  0.5385990000000 1.0
C      1  0.5397060000000  0.5777670000000  0.5761330000000 1.0
C      1  0.4866540000000  0.4992960000000  0.6199920000000 1.0
C      1  0.5400040000000  0.5599710000000  0.4273860000000 1.0
C      1  0.5516290000000  0.5965040000000  0.5291980000000 1.0
C      1  0.5044130000000  0.5468790000000  0.3959940000000 1.0
C      1  0.5725320000000  0.3797310000000  0.4976880000000 1.0
C      1  0.5313170000000  0.5529190000000  0.4013360000000 1.0
C      1  0.6100190000000  0.5261090000000  0.5056880000000 1.0
C      1  0.5078900000000  0.4649590000000  0.4049550000000 1.0
C      1  0.4456410000000  0.5278860000000  0.5780440000000 1.0
C      1  0.5818220000000  0.5406120000000  0.4272370000000 1.0
C      1  0.3974600000000  0.5154310000000  0.5048920000000 1.0
C      1  0.4712730000000  0.4008350000000  0.4999450000000 1.0
C      1  0.4689570000000  0.5440830000000  0.5854860000000 1.0
C      1  0.5672010000000  0.5500670000000  0.5502020000000 1.0
C      1  0.5018120000000  0.5671480000000  0.4823110000000 1.0
C      1  0.4719840000000  0.4593710000000  0.5312430000000 1.0
C      1  0.5545590000000  0.5178290000000  0.4983300000000 1.0
C      1  0.5715400000000  0.3557700000000  0.4874940000000 1.0
C      1  0.5247100000000  0.4311720000000  0.4931910000000 1.0
C      1  0.4210770000000  0.5614370000000  0.5136720000000 1.0
C      1  0.4591920000000  0.5034860000000  0.5217290000000 1.0
C      1  0.3772260000000  0.4702750000000  0.5447170000000 1.0
C      1  0.4843740000000  0.3998460000000  0.5261000000000 1.0
C      1  0.4860330000000  0.4552330000000  0.4762850000000 1.0
C      1  0.5007110000000  0.4929290000000  0.3963310000000 1.0
C      1  0.4370130000000  0.6064110000000  0.4686490000000 1.0
C      1  0.5135710000000  0.3956520000000  0.5198630000000 1.0
C      1  0.5989260000000  0.5265520000000  0.4454790000000 1.0
C      1  0.4268940000000  0.4213110000000  0.5119650000000 1.0
C      1  0.5388090000000  0.4802200000000  0.6031620000000 1.0
C      1  0.4484520000000  0.4117780000000  0.4586730000000 1.0
C      1  0.5042960000000  0.5143760000000  0.6041670000000 1.0
C      1  0.5086220000000  0.5075590000000  0.4966110000000 1.0
C      1  0.5228020000000  0.4324280000000  0.5842590000000 1.0
C      1  0.5260300000000  0.5446660000000  0.4463900000000 1.0
C      1  0.5052030000000  0.6071870000000  0.5161420000000 1.0
C      1  0.5245690000000  0.5592090000000  0.5010150000000 1.0
C      1  0.4500920000000  0.4756590000000  0.5942900000000 1.0
C      1  0.4893910000000  0.5990220000000  0.5404440000000 1.0
C      1  0.4258490000000  0.4626060000000  0.5394360000000 1.0
C      1  0.4798770000000  0.5371400000000  0.4045260000000 1.0
C      1  0.4334820000000  0.4333890000000  0.5388050000000 1.0
C      1  0.4362780000000  0.5275300000000  0.4238730000000 1.0
C      1  0.5432440000000  0.4698540000000  0.5388450000000 1.0
C      1  0.3813100000000  0.4475940000000  0.5014200000000 1.0
C      1  0.4773760000000  0.4065660000000  0.4517350000000 1.0
C      1  0.5989850000000  0.5487830000000  0.4956430000000 1.0
C      1  0.5100930000000  0.4542190000000  0.4559090000000 1.0
C      1  0.4750770000000  0.5329980000000  0.4534530000000 1.0
C      1  0.5216200000000  0.5988790000000  0.5802010000000 1.0
C      1  0.5322820000000  0.5082590000000  0.6048570000000 1.0
C      1  0.5997040000000  0.4489130000000  0.5098840000000 1.0
C      1  0.5032010000000  0.4726530000000  0.5679390000000 1.0
C      1  0.6065560000000  0.4759990000000  0.4994610000000 1.0
C      1  0.4653730000000  0.5807090000000  0.5469570000000 1.0
C      1  0.5309780000000  0.4063500000000  0.5408010000000 1.0
C      1  0.3679320000000  0.4536790000000  0.5256030000000 1.0
C      1  0.4668300000000  0.4816280000000  0.6163640000000 1.0
C      1  0.4608630000000  0.5454740000000  0.4280200000000 1.0
C      1  0.4003210000000  0.4933680000000  0.4857180000000 1.0
C      1  0.5167020000000  0.4036670000000  0.4915030000000 1.0
C      1  0.5688220000000  0.5221630000000  0.4073190000000 1.0
C      1  0.5164240000000  0.5048050000000  0.4693650000000 1.0
C      1  0.4555500000000  0.4289800000000  0.5594500000000 1.0
C      1  0.5668440000000  0.5649940000000  0.4373850000000 1.0
C      1  0.4084740000000  0.4933600000000  0.5763180000000 1.0
C      1  0.4408820000000  0.5643550000000  0.5368690000000 1.0
C      1  0.5862910000000  0.4274810000000  0.4932730000000 1.0
C      1  0.4998690000000  0.5540680000000  0.4548390000000 1.0
C      1  0.4792150000000  0.5073850000000  0.5453790000000 1.0
C      1  0.5317870000000  0.6121100000000  0.4552260000000 1.0
C      1  0.4002970000000  0.4265370000000  0.5023780000000 1.0
C      1  0.5479950000000  0.5319410000000  0.6036810000000 1.0
C      1  0.6146400000000  0.4992480000000  0.5147090000000 1.0
C      1  0.4349770000000  0.5174550000000  0.5334280000000 1.0
C      1  0.5003050000000  0.5245580000000  0.5550740000000 1.0
C      1  0.4880960000000  0.6118620000000  0.4941230000000 1.0
C      1  0.5168210000000  0.4643180000000  0.5451240000000 1.0
C      1  0.5345010000000  0.4587320000000  0.4165030000000 1.0
C      1  0.5536500000000  0.5258800000000  0.5520470000000 1.0
C      1  0.4943830000000  0.5309760000000  0.5829920000000 1.0
C      1  0.5473480000000  0.5728510000000  0.5470400000000 1.0
C      1  0.5515530000000  0.5474440000000  0.4948410000000 1.0
C      1  0.4411500000000  0.4584140000000  0.4351620000000 1.0
C      1  0.5963480000000  0.4568360000000  0.4566500000000 1.0
C      1  0.5750280000000  0.5606910000000  0.4860550000000 1.0
C      1  0.5345290000000  0.6043380000000  0.5081030000000 1.0
C      1  0.5476450000000  0.4463550000000  0.4970690000000 1.0
C      1  0.5965900000000  0.4435160000000  0.5379990000000 1.0
C      1  0.4673740000000  0.5507990000000  0.4998660000000 1.0
C      1  0.4058510000000  0.5426640000000  0.4953370000000 1.0
C      1  0.4817080000000  0.5891920000000  0.4789850000000 1.0
C      1  0.5119020000000  0.4172290000000  0.5621460000000 1.0
C      1  0.4169290000000  0.6214210000000  0.4757510000000 1.0
C      1  0.4365770000000  0.4326980000000  0.4426030000000 1.0
C      1  0.4383640000000  0.5385250000000  0.5515320000000 1.0
C      1  0.5466820000000  0.5577030000000  0.5952620000000 1.0
C      1  0.5524270000000  0.4811510000000  0.4540320000000 1.0
C      1  0.5257890000000  0.5270600000000  0.5397150000000 1.0
C      1  0.5593940000000  0.4113240000000  0.5342110000000 1.0
END
