TITL C-612607-4507-332 4.02662157443675 125000 -650.864055599709 0 0 108 (C1) n - 1
REM
REM in /home/nfs/bkarasulu/CARBON/AIRSS/Generating-Clusters/TERSOFF/Only-C1/FIRE-HFTN
REM
REM
REM
REM
REM
REM ./C.cell (11c1c37f851c82e70ff6c80c92926a4b)
REM AIRSS Version 0.9.1 bugfix July 2018 build 013d7b7c2542+ Fri, 06 Jul 2018 19:26:36 +0100
REM compiler GCC version 9.2.1 20190827 (Red Hat 9.2.1-1)
REM options -cpp -mtune=generic -march=x86-64 -g -O0 -fpre-include=/usr/include/finclude/math-vector-fortran.h
REM seed 1410973780 1600517871 504556350 -820672688 -2021655711 -662643370 1345123931 -389846782 -1324842985 864684253 -1749271087 360987870 -754023961 35637319 879904618 -1952927487 1697072697 -1146831408 -894377691 1439181989 -971635846 1273992789 -1253417131 1191996421 -1639901502 -1450989591 1318371677 1334717410 1419462570 1331841805 -1137603511 -2135997814 -29447707
REM
CELL 1.54180   50.00000   50.00000   50.00000   90.00000   90.00000   90.00000
LATT -1
SFAC C  
C      1  0.4873130000000  0.5942830000000  0.4025410000000 1.0
C      1  0.3730690000000  0.5209660000000  0.5153820000000 1.0
C      1  0.3778510000000  0.4715550000000  0.5186070000000 1.0
C      1  0.5602580000000  0.5213260000000  0.5399730000000 1.0
C      1  0.4400470000000  0.5770480000000  0.4043560000000 1.0
C      1  0.5150950000000  0.4799090000000  0.5740520000000 1.0
C      1  0.4332120000000  0.5545110000000  0.4167990000000 1.0
C      1  0.5416960000000  0.5140070000000  0.4057980000000 1.0
C      1  0.4609540000000  0.5926930000000  0.3989260000000 1.0
C      1  0.5864430000000  0.5849470000000  0.5402550000000 1.0
C      1  0.4582330000000  0.5188400000000  0.4474290000000 1.0
C      1  0.4705850000000  0.4957850000000  0.4374310000000 1.0
C      1  0.3844180000000  0.5657950000000  0.5017610000000 1.0
C      1  0.3880450000000  0.4976740000000  0.5147170000000 1.0
C      1  0.5213340000000  0.5607750000000  0.4253090000000 1.0
C      1  0.3926390000000  0.4475360000000  0.5162960000000 1.0
C      1  0.6033990000000  0.4694870000000  0.4719160000000 1.0
C      1  0.5257380000000  0.5612520000000  0.4529640000000 1.0
C      1  0.6162500000000  0.5181990000000  0.5015890000000 1.0
C      1  0.4651850000000  0.4368470000000  0.5546260000000 1.0
C      1  0.5290450000000  0.4566080000000  0.5638320000000 1.0
C      1  0.5027590000000  0.3880250000000  0.5262740000000 1.0
C      1  0.5927920000000  0.5600350000000  0.4984180000000 1.0
C      1  0.5088450000000  0.5823050000000  0.4125620000000 1.0
C      1  0.5726010000000  0.4527050000000  0.5380200000000 1.0
C      1  0.5875510000000  0.4506150000000  0.5132700000000 1.0
C      1  0.5280670000000  0.5378740000000  0.4106770000000 1.0
C      1  0.5176980000000  0.4098480000000  0.5243080000000 1.0
C      1  0.5787770000000  0.5457140000000  0.3603940000000 1.0
C      1  0.4678510000000  0.5205180000000  0.5008130000000 1.0
C      1  0.5406090000000  0.5952090000000  0.5284160000000 1.0
C      1  0.2685530000000  0.5811880000000  0.5416820000000 1.0
C      1  0.3404970000000  0.5565370000000  0.5200600000000 1.0
C      1  0.5417460000000  0.5219820000000  0.5181330000000 1.0
C      1  0.5299210000000  0.5555630000000  0.4785560000000 1.0
C      1  0.5224230000000  0.5797040000000  0.5407190000000 1.0
C      1  0.5531420000000  0.4814820000000  0.4983800000000 1.0
C      1  0.5367610000000  0.5440200000000  0.5015260000000 1.0
C      1  0.5832950000000  0.5390020000000  0.5441700000000 1.0
C      1  0.5676220000000  0.5954170000000  0.5203940000000 1.0
C      1  0.6056410000000  0.4692800000000  0.5007020000000 1.0
C      1  0.4570310000000  0.3639740000000  0.5341790000000 1.0
C      1  0.4326480000000  0.4748380000000  0.5082160000000 1.0
C      1  0.4070020000000  0.3777050000000  0.5377910000000 1.0
C      1  0.6164450000000  0.4930240000000  0.5109950000000 1.0
C      1  0.2922750000000  0.5730600000000  0.5345520000000 1.0
C      1  0.5664580000000  0.5298510000000  0.5858740000000 1.0
C      1  0.5936880000000  0.5268680000000  0.4603780000000 1.0
C      1  0.5279850000000  0.4352980000000  0.5189560000000 1.0
C      1  0.3658800000000  0.5478000000000  0.5124350000000 1.0
C      1  0.5576320000000  0.4666370000000  0.4548300000000 1.0
C      1  0.5868430000000  0.4568240000000  0.5617890000000 1.0
C      1  0.4277060000000  0.4307320000000  0.4861220000000 1.0
C      1  0.5079900000000  0.4694150000000  0.4539520000000 1.0
C      1  0.3163950000000  0.5647960000000  0.5273030000000 1.0
C      1  0.6001760000000  0.4618030000000  0.5836180000000 1.0
C      1  0.4568930000000  0.5359120000000  0.5215250000000 1.0
C      1  0.5547650000000  0.5128720000000  0.5673670000000 1.0
C      1  0.5944890000000  0.5589360000000  0.5272200000000 1.0
C      1  0.4553110000000  0.5235360000000  0.5704390000000 1.0
C      1  0.4053490000000  0.5783850000000  0.4914890000000 1.0
C      1  0.5735400000000  0.4362110000000  0.4927530000000 1.0
C      1  0.4512390000000  0.5962270000000  0.4731170000000 1.0
C      1  0.4703070000000  0.4474130000000  0.4329780000000 1.0
C      1  0.4636910000000  0.5264390000000  0.4738390000000 1.0
C      1  0.5845590000000  0.5782250000000  0.5682520000000 1.0
C      1  0.5317910000000  0.4976420000000  0.5077790000000 1.0
C      1  0.6018810000000  0.5366890000000  0.4853740000000 1.0
C      1  0.3903400000000  0.3980960000000  0.5342660000000 1.0
C      1  0.5334090000000  0.4739380000000  0.4410470000000 1.0
C      1  0.5018310000000  0.4749270000000  0.6000960000000 1.0
C      1  0.4388300000000  0.4224350000000  0.4634960000000 1.0
C      1  0.4598000000000  0.4752180000000  0.5169710000000 1.0
C      1  0.5076560000000  0.4650360000000  0.4822590000000 1.0
C      1  0.5237450000000  0.4332390000000  0.5795750000000 1.0
C      1  0.4786660000000  0.4948260000000  0.5074060000000 1.0
C      1  0.4185150000000  0.4500750000000  0.5039470000000 1.0
C      1  0.5128160000000  0.5566700000000  0.5504770000000 1.0
C      1  0.5753910000000  0.4991600000000  0.3508570000000 1.0
C      1  0.4541200000000  0.4286130000000  0.4426240000000 1.0
C      1  0.5779750000000  0.4108450000000  0.4842050000000 1.0
C      1  0.5889490000000  0.5053170000000  0.4427240000000 1.0
C      1  0.5529590000000  0.4550770000000  0.4824550000000 1.0
C      1  0.5769080000000  0.5841860000000  0.4947700000000 1.0
C      1  0.4819890000000  0.3718980000000  0.5298420000000 1.0
C      1  0.4663560000000  0.4562530000000  0.5364890000000 1.0
C      1  0.5822270000000  0.5498170000000  0.5726350000000 1.0
C      1  0.4755760000000  0.5076150000000  0.5808650000000 1.0
C      1  0.4835510000000  0.4710960000000  0.4397240000000 1.0
C      1  0.5683050000000  0.5148480000000  0.3957520000000 1.0
C      1  0.5013220000000  0.5057030000000  0.5660550000000 1.0
C      1  0.5260940000000  0.4453750000000  0.4921070000000 1.0
C      1  0.5432640000000  0.4501100000000  0.5393400000000 1.0
C      1  0.4307430000000  0.3658060000000  0.5374030000000 1.0
C      1  0.4768070000000  0.4213860000000  0.5730380000000 1.0
C      1  0.5742500000000  0.5199830000000  0.3686080000000 1.0
C      1  0.4786090000000  0.4895990000000  0.6028310000000 1.0
C      1  0.4280640000000  0.5880860000000  0.4818580000000 1.0
C      1  0.5338310000000  0.4901600000000  0.4182420000000 1.0
C      1  0.5839500000000  0.4791660000000  0.4532950000000 1.0
C      1  0.5013600000000  0.4188650000000  0.5835620000000 1.0
C      1  0.4158280000000  0.4975770000000  0.5093030000000 1.0
C      1  0.3847510000000  0.4229780000000  0.5267960000000 1.0
C      1  0.5053410000000  0.4878010000000  0.5001950000000 1.0
C      1  0.5096060000000  0.5305380000000  0.5555600000000 1.0
C      1  0.4406700000000  0.5338500000000  0.4317520000000 1.0
C      1  0.5879180000000  0.5099540000000  0.4151460000000 1.0
C      1  0.4497530000000  0.5357020000000  0.5472670000000 1.0
END
