TITL C-612606-7351-95 0.0281587915477814 125000 -631.073627862766 0 0 104 (C1) n - 1
REM
REM in /home/nfs/bkarasulu/CARBON/AIRSS/Generating-Clusters/TERSOFF/Only-C1/FIRE-HFTN
REM
REM
REM
REM
REM
REM ./C.cell (11c1c37f851c82e70ff6c80c92926a4b)
REM AIRSS Version 0.9.1 bugfix July 2018 build 013d7b7c2542+ Fri, 06 Jul 2018 19:26:36 +0100
REM compiler GCC version 9.2.1 20190827 (Red Hat 9.2.1-1)
REM options -cpp -mtune=generic -march=x86-64 -g -O0 -fpre-include=/usr/include/finclude/math-vector-fortran.h
REM seed -2013277279 855755366 171529470 1426834682 -1705422720 1646682759 -118653761 -1521224219 1542514047 -2097426870 -1298986112 -404127499 -177095205 191839371 -249384735 538382002 488031249 1985118372 -588868915 -1858213242 -1384391890 -2137879539 1877720147 1061670230 1584055022 980854654 827472804 -829285668 -869797991 -450225387 467663381 -828771442 526321847
REM
CELL 1.54180   50.00000   50.00000   50.00000   90.00000   90.00000   90.00000
LATT -1
SFAC C  
C      1  0.5114880000000  0.5066050000000  0.4755400000000 1.0
C      1  0.5298890000000  0.4937120000000  0.4575290000000 1.0
C      1  0.5845500000000  0.4996120000000  0.4794580000000 1.0
C      1  0.4283160000000  0.5164220000000  0.5716560000000 1.0
C      1  0.5591960000000  0.5134400000000  0.5412030000000 1.0
C      1  0.5021580000000  0.5508200000000  0.4298910000000 1.0
C      1  0.5837740000000  0.5017680000000  0.5482520000000 1.0
C      1  0.4805680000000  0.4110440000000  0.5649330000000 1.0
C      1  0.5756860000000  0.5513320000000  0.4995260000000 1.0
C      1  0.4840000000000  0.5177570000000  0.3956630000000 1.0
C      1  0.4670550000000  0.5834690000000  0.5337140000000 1.0
C      1  0.4653860000000  0.5005520000000  0.5082180000000 1.0
C      1  0.5938460000000  0.5275350000000  0.4386460000000 1.0
C      1  0.5712950000000  0.5230520000000  0.4954830000000 1.0
C      1  0.5107930000000  0.5563130000000  0.5062160000000 1.0
C      1  0.5697910000000  0.4464840000000  0.5296820000000 1.0
C      1  0.6210800000000  0.4938680000000  0.5168720000000 1.0
C      1  0.5476330000000  0.5316010000000  0.5601040000000 1.0
C      1  0.5047620000000  0.4465220000000  0.3999600000000 1.0
C      1  0.5827410000000  0.4799310000000  0.4333070000000 1.0
C      1  0.4865000000000  0.5414900000000  0.4081940000000 1.0
C      1  0.4610570000000  0.4647690000000  0.4132090000000 1.0
C      1  0.4873620000000  0.5063890000000  0.5567600000000 1.0
C      1  0.4045930000000  0.4750250000000  0.5623060000000 1.0
C      1  0.4927640000000  0.5957260000000  0.5263190000000 1.0
C      1  0.3935570000000  0.5175690000000  0.5380030000000 1.0
C      1  0.5383720000000  0.4735090000000  0.5928780000000 1.0
C      1  0.5634090000000  0.3655390000000  0.4455390000000 1.0
C      1  0.5404870000000  0.5210490000000  0.5851800000000 1.0
C      1  0.5737090000000  0.4566240000000  0.5053510000000 1.0
C      1  0.5320480000000  0.5081920000000  0.4331550000000 1.0
C      1  0.5503560000000  0.5134700000000  0.5136200000000 1.0
C      1  0.4039960000000  0.5397710000000  0.5243710000000 1.0
C      1  0.4345760000000  0.5566800000000  0.4920210000000 1.0
C      1  0.4944870000000  0.5640110000000  0.5962690000000 1.0
C      1  0.5015840000000  0.4639700000000  0.5034350000000 1.0
C      1  0.5219380000000  0.4542560000000  0.4859380000000 1.0
C      1  0.4489790000000  0.4727850000000  0.5810240000000 1.0
C      1  0.4447390000000  0.5678080000000  0.5193940000000 1.0
C      1  0.4993900000000  0.5016970000000  0.6025200000000 1.0
C      1  0.4340470000000  0.5430950000000  0.5631680000000 1.0
C      1  0.4907190000000  0.5681620000000  0.4494340000000 1.0
C      1  0.4768020000000  0.5568040000000  0.4711900000000 1.0
C      1  0.6086830000000  0.4958980000000  0.5405640000000 1.0
C      1  0.4482600000000  0.4959480000000  0.4848210000000 1.0
C      1  0.4775440000000  0.5135000000000  0.5856850000000 1.0
C      1  0.5263220000000  0.5363160000000  0.4343290000000 1.0
C      1  0.4264600000000  0.4584440000000  0.5683880000000 1.0
C      1  0.4163730000000  0.4773060000000  0.4276600000000 1.0
C      1  0.4768480000000  0.4735630000000  0.5185500000000 1.0
C      1  0.5578190000000  0.4110850000000  0.4307740000000 1.0
C      1  0.5300700000000  0.4394810000000  0.4045450000000 1.0
C      1  0.5244000000000  0.4961180000000  0.4089470000000 1.0
C      1  0.5471750000000  0.3867740000000  0.4399190000000 1.0
C      1  0.4060630000000  0.5029990000000  0.5588110000000 1.0
C      1  0.3722660000000  0.5056320000000  0.4239280000000 1.0
C      1  0.4493490000000  0.5010460000000  0.5846780000000 1.0
C      1  0.5671090000000  0.4743020000000  0.4843920000000 1.0
C      1  0.5716210000000  0.4576670000000  0.4235160000000 1.0
C      1  0.4081300000000  0.5456170000000  0.4968620000000 1.0
C      1  0.4553830000000  0.5565630000000  0.5745030000000 1.0
C      1  0.5269540000000  0.4988880000000  0.5964870000000 1.0
C      1  0.4727820000000  0.4610190000000  0.5681350000000 1.0
C      1  0.4375610000000  0.4387890000000  0.5243070000000 1.0
C      1  0.5539750000000  0.4362180000000  0.4189700000000 1.0
C      1  0.5986930000000  0.5513350000000  0.4292050000000 1.0
C      1  0.4659170000000  0.4335870000000  0.5622270000000 1.0
C      1  0.4771230000000  0.5254690000000  0.5134250000000 1.0
C      1  0.4872520000000  0.5463980000000  0.4953940000000 1.0
C      1  0.5606580000000  0.4459150000000  0.5546930000000 1.0
C      1  0.4979540000000  0.4935120000000  0.3988540000000 1.0
C      1  0.5561080000000  0.5708530000000  0.5075750000000 1.0
C      1  0.5870260000000  0.5027530000000  0.4495760000000 1.0
C      1  0.5193370000000  0.3849580000000  0.4431680000000 1.0
C      1  0.5354030000000  0.5540440000000  0.5483110000000 1.0
C      1  0.4258650000000  0.5532930000000  0.5381530000000 1.0
C      1  0.5248830000000  0.4271110000000  0.4833640000000 1.0
C      1  0.4940790000000  0.3920210000000  0.4474940000000 1.0
C      1  0.3939810000000  0.4912800000000  0.4253820000000 1.0
C      1  0.5119050000000  0.5466420000000  0.5339620000000 1.0
C      1  0.4864190000000  0.4677480000000  0.4018460000000 1.0
C      1  0.4888880000000  0.5863770000000  0.5806640000000 1.0
C      1  0.4445740000000  0.4675290000000  0.4823880000000 1.0
C      1  0.4930040000000  0.5953000000000  0.4469020000000 1.0
C      1  0.4383810000000  0.4369100000000  0.5524300000000 1.0
C      1  0.4567650000000  0.5163050000000  0.4665900000000 1.0
C      1  0.4664450000000  0.5808210000000  0.5627410000000 1.0
C      1  0.4458700000000  0.4528920000000  0.4581180000000 1.0
C      1  0.4409230000000  0.4650910000000  0.4327950000000 1.0
C      1  0.5248790000000  0.5100950000000  0.5009770000000 1.0
C      1  0.4505630000000  0.5449650000000  0.4711090000000 1.0
C      1  0.5320230000000  0.5679760000000  0.4920430000000 1.0
C      1  0.6117680000000  0.4956640000000  0.4917730000000 1.0
C      1  0.5497450000000  0.4552940000000  0.5771020000000 1.0
C      1  0.5409710000000  0.4717500000000  0.4724160000000 1.0
C      1  0.4856710000000  0.5108650000000  0.4637590000000 1.0
C      1  0.5438800000000  0.5783170000000  0.5340640000000 1.0
C      1  0.4724810000000  0.4063830000000  0.4533180000000 1.0
C      1  0.4831060000000  0.4787240000000  0.5481430000000 1.0
C      1  0.4559800000000  0.4266730000000  0.4580280000000 1.0
C      1  0.4531290000000  0.4552490000000  0.5078210000000 1.0
C      1  0.5201930000000  0.5966900000000  0.5314980000000 1.0
C      1  0.4919840000000  0.5268990000000  0.5382910000000 1.0
C      1  0.4755480000000  0.5429100000000  0.5904980000000 1.0
END
