TITL C-612601-4209-1047 -0.0781078242367097 125000 -1172.47696226986 0 0 190 (C1) n - 1
REM
REM in /home/nfs/bkarasulu/CARBON/AIRSS/Generating-Clusters/TERSOFF/Only-C1/FIRE-HFTN
REM
REM
REM
REM
REM
REM ./C.cell (11c1c37f851c82e70ff6c80c92926a4b)
REM AIRSS Version 0.9.1 bugfix July 2018 build 013d7b7c2542+ Fri, 06 Jul 2018 19:26:36 +0100
REM compiler GCC version 9.2.1 20190827 (Red Hat 9.2.1-1)
REM options -cpp -mtune=generic -march=x86-64 -g -O0 -fpre-include=/usr/include/finclude/math-vector-fortran.h
REM seed -1210963563 -1256921927 1098394997 1461208549 459308057 -655274965 -1032836866 -784114941 -1726134446 2103049870 120815229 1740455042 749209349 -725981840 1686681118 1805534732 -781788133 -2006267553 1560060723 -1174978075 -432526873 -1593489887 -1529096260 628671952 -1307821680 382356211 -158699289 -183673095 1120795549 -1355442139 2059805098 657180998 -2036821587
REM
CELL 1.54180   50.00000   50.00000   50.00000   90.00000   90.00000   90.00000
LATT -1
SFAC C  
C      1  0.4199330000000  0.4860240000000  0.4244820000000 1.0
C      1  0.5652700000000  0.5898280000000  0.5117140000000 1.0
C      1  0.5311270000000  0.4446500000000  0.6201100000000 1.0
C      1  0.5833660000000  0.5617570000000  0.4382220000000 1.0
C      1  0.4159500000000  0.4420370000000  0.3631290000000 1.0
C      1  0.5112750000000  0.4699220000000  0.4371350000000 1.0
C      1  0.5309270000000  0.5578250000000  0.6137770000000 1.0
C      1  0.5416280000000  0.5750970000000  0.4266810000000 1.0
C      1  0.5106950000000  0.4910330000000  0.4814010000000 1.0
C      1  0.4635310000000  0.4040630000000  0.5630300000000 1.0
C      1  0.4780980000000  0.5294970000000  0.5688110000000 1.0
C      1  0.4274120000000  0.4967690000000  0.5280640000000 1.0
C      1  0.5756310000000  0.4245000000000  0.4563320000000 1.0
C      1  0.5863840000000  0.4506520000000  0.4629030000000 1.0
C      1  0.5884160000000  0.4781000000000  0.4190260000000 1.0
C      1  0.4067060000000  0.5390280000000  0.5095850000000 1.0
C      1  0.5254480000000  0.4848200000000  0.4586330000000 1.0
C      1  0.5322950000000  0.5556910000000  0.4451360000000 1.0
C      1  0.4639480000000  0.6305140000000  0.5109400000000 1.0
C      1  0.5956030000000  0.5581070000000  0.5829420000000 1.0
C      1  0.6531730000000  0.5524060000000  0.4485780000000 1.0
C      1  0.4932840000000  0.5725310000000  0.5881790000000 1.0
C      1  0.6208070000000  0.4777400000000  0.5471410000000 1.0
C      1  0.4492150000000  0.6087260000000  0.5517130000000 1.0
C      1  0.5406600000000  0.4678300000000  0.6077780000000 1.0
C      1  0.6003380000000  0.4857290000000  0.4932690000000 1.0
C      1  0.5182120000000  0.4627000000000  0.4088600000000 1.0
C      1  0.4334980000000  0.5327700000000  0.6041210000000 1.0
C      1  0.4838170000000  0.5619300000000  0.4925710000000 1.0
C      1  0.4532040000000  0.5247900000000  0.5592900000000 1.0
C      1  0.6101780000000  0.5359820000000  0.5860530000000 1.0
C      1  0.5481030000000  0.5870640000000  0.5353570000000 1.0
C      1  0.4942690000000  0.4808610000000  0.5431050000000 1.0
C      1  0.4471120000000  0.3794650000000  0.4976330000000 1.0
C      1  0.5006430000000  0.4160130000000  0.4398040000000 1.0
C      1  0.4646820000000  0.4832550000000  0.4397200000000 1.0
C      1  0.4748100000000  0.5693100000000  0.5372380000000 1.0
C      1  0.4197390000000  0.4092750000000  0.5321820000000 1.0
C      1  0.4067490000000  0.5178170000000  0.4667040000000 1.0
C      1  0.3716790000000  0.5747020000000  0.5180050000000 1.0
C      1  0.4405520000000  0.4714630000000  0.4825540000000 1.0
C      1  0.5440290000000  0.3960900000000  0.5219270000000 1.0
C      1  0.4819600000000  0.4171800000000  0.4189420000000 1.0
C      1  0.3864470000000  0.5013280000000  0.4562390000000 1.0
C      1  0.4891500000000  0.5953950000000  0.4500900000000 1.0
C      1  0.4717790000000  0.4847960000000  0.5591930000000 1.0
C      1  0.5233940000000  0.4975930000000  0.5066820000000 1.0
C      1  0.4760840000000  0.5105850000000  0.5066860000000 1.0
C      1  0.4870060000000  0.4259070000000  0.5157460000000 1.0
C      1  0.4594350000000  0.5827020000000  0.5577360000000 1.0
C      1  0.6456080000000  0.5352910000000  0.4673500000000 1.0
C      1  0.5093360000000  0.3934980000000  0.4566140000000 1.0
C      1  0.5316380000000  0.4503120000000  0.4974650000000 1.0
C      1  0.5516720000000  0.5441070000000  0.3951380000000 1.0
C      1  0.4259970000000  0.6107820000000  0.5340510000000 1.0
C      1  0.4784210000000  0.5821700000000  0.5121950000000 1.0
C      1  0.5745070000000  0.4973970000000  0.4885430000000 1.0
C      1  0.4999110000000  0.6023830000000  0.5154200000000 1.0
C      1  0.4224920000000  0.5722570000000  0.4479140000000 1.0
C      1  0.3831490000000  0.5538650000000  0.5055070000000 1.0
C      1  0.5674850000000  0.4680110000000  0.5986550000000 1.0
C      1  0.5686630000000  0.4968890000000  0.4604360000000 1.0
C      1  0.5732000000000  0.5687730000000  0.4926050000000 1.0
C      1  0.4374390000000  0.6166840000000  0.5075200000000 1.0
C      1  0.5360320000000  0.4262440000000  0.3674710000000 1.0
C      1  0.6231570000000  0.5001900000000  0.5019970000000 1.0
C      1  0.5646000000000  0.5617020000000  0.4153440000000 1.0
C      1  0.4517930000000  0.4527380000000  0.4021360000000 1.0
C      1  0.4485480000000  0.4990690000000  0.5482490000000 1.0
C      1  0.4547200000000  0.5343760000000  0.4602790000000 1.0
C      1  0.5780370000000  0.4165570000000  0.4293250000000 1.0
C      1  0.6009130000000  0.4415110000000  0.5110620000000 1.0
C      1  0.4450180000000  0.4719560000000  0.4222420000000 1.0
C      1  0.3925660000000  0.5223610000000  0.5526510000000 1.0
C      1  0.5837450000000  0.5673060000000  0.4654940000000 1.0
C      1  0.5266290000000  0.4020770000000  0.5917470000000 1.0
C      1  0.5695770000000  0.5683330000000  0.5798770000000 1.0
C      1  0.4278120000000  0.4504800000000  0.5540170000000 1.0
C      1  0.5530220000000  0.5682120000000  0.6027130000000 1.0
C      1  0.6092050000000  0.4848990000000  0.5726620000000 1.0
C      1  0.5445610000000  0.4119800000000  0.5466280000000 1.0
C      1  0.5563750000000  0.5467540000000  0.5010680000000 1.0
C      1  0.4091740000000  0.4376820000000  0.5344830000000 1.0
C      1  0.4442970000000  0.4260600000000  0.4969820000000 1.0
C      1  0.4257250000000  0.5068020000000  0.6024000000000 1.0
C      1  0.6102850000000  0.4650210000000  0.4089500000000 1.0
C      1  0.3908230000000  0.4488600000000  0.4860630000000 1.0
C      1  0.5587900000000  0.5284110000000  0.5221900000000 1.0
C      1  0.4254830000000  0.5150870000000  0.4240340000000 1.0
C      1  0.5017620000000  0.5205790000000  0.4314510000000 1.0
C      1  0.4244370000000  0.4769750000000  0.5068840000000 1.0
C      1  0.4437370000000  0.5597140000000  0.4045100000000 1.0
C      1  0.5999110000000  0.4572500000000  0.4876210000000 1.0
C      1  0.4940430000000  0.5239510000000  0.6097980000000 1.0
C      1  0.4625380000000  0.4512150000000  0.5881010000000 1.0
C      1  0.5054760000000  0.5479870000000  0.5069500000000 1.0
C      1  0.5632940000000  0.4049960000000  0.5015020000000 1.0
C      1  0.4675340000000  0.5579960000000  0.3882410000000 1.0
C      1  0.4644310000000  0.5728510000000  0.5841210000000 1.0
C      1  0.5745100000000  0.4963960000000  0.4025770000000 1.0
C      1  0.4822190000000  0.4960310000000  0.4824170000000 1.0
C      1  0.5850620000000  0.4691200000000  0.5769840000000 1.0
C      1  0.5237620000000  0.4882510000000  0.5978430000000 1.0
C      1  0.4610480000000  0.4846160000000  0.4681350000000 1.0
C      1  0.5195320000000  0.5958460000000  0.5390030000000 1.0
C      1  0.4235470000000  0.4808760000000  0.5945540000000 1.0
C      1  0.4970140000000  0.5497790000000  0.5346380000000 1.0
C      1  0.5277770000000  0.3749080000000  0.5938630000000 1.0
C      1  0.4663950000000  0.6297980000000  0.5406270000000 1.0
C      1  0.5628990000000  0.5182810000000  0.3925240000000 1.0
C      1  0.3930070000000  0.4548690000000  0.4593540000000 1.0
C      1  0.4332170000000  0.4470520000000  0.3819930000000 1.0
C      1  0.3797630000000  0.5859660000000  0.5426650000000 1.0
C      1  0.4278490000000  0.5716900000000  0.4770020000000 1.0
C      1  0.4991580000000  0.5007290000000  0.5235840000000 1.0
C      1  0.4077130000000  0.5180180000000  0.5292180000000 1.0
C      1  0.5272760000000  0.4188980000000  0.6142220000000 1.0
C      1  0.5230550000000  0.5497990000000  0.3876900000000 1.0
C      1  0.5805400000000  0.4224910000000  0.5167040000000 1.0
C      1  0.3998300000000  0.6054420000000  0.5415450000000 1.0
C      1  0.5246930000000  0.4152730000000  0.5665330000000 1.0
C      1  0.6053770000000  0.4566130000000  0.5355750000000 1.0
C      1  0.5298400000000  0.5263530000000  0.5616850000000 1.0
C      1  0.4312530000000  0.5979110000000  0.4877140000000 1.0
C      1  0.5599500000000  0.4063930000000  0.4731720000000 1.0
C      1  0.5090180000000  0.4566560000000  0.5450590000000 1.0
C      1  0.5144060000000  0.4381090000000  0.4792390000000 1.0
C      1  0.4738020000000  0.5540130000000  0.4674200000000 1.0
C      1  0.5083940000000  0.4417510000000  0.4513900000000 1.0
C      1  0.4042090000000  0.4549680000000  0.5108820000000 1.0
C      1  0.5296660000000  0.5513370000000  0.4939390000000 1.0
C      1  0.3979630000000  0.4781130000000  0.4432650000000 1.0
C      1  0.5809630000000  0.4744810000000  0.4463200000000 1.0
C      1  0.4517850000000  0.4509060000000  0.5379870000000 1.0
C      1  0.5031620000000  0.5342790000000  0.5568510000000 1.0
C      1  0.4308010000000  0.5222220000000  0.4523110000000 1.0
C      1  0.5564930000000  0.4170900000000  0.3818020000000 1.0
C      1  0.5291110000000  0.5272390000000  0.4410590000000 1.0
C      1  0.4544670000000  0.5305520000000  0.5050090000000 1.0
C      1  0.5010990000000  0.4497110000000  0.3901870000000 1.0
C      1  0.4764570000000  0.4777630000000  0.5873340000000 1.0
C      1  0.4996770000000  0.4454020000000  0.3417660000000 1.0
C      1  0.5119050000000  0.4405250000000  0.3656540000000 1.0
C      1  0.3771260000000  0.5686010000000  0.5647890000000 1.0
C      1  0.5623640000000  0.4796650000000  0.5343760000000 1.0
C      1  0.4900130000000  0.6151350000000  0.4691380000000 1.0
C      1  0.6140080000000  0.5096640000000  0.5845080000000 1.0
C      1  0.5271560000000  0.4527010000000  0.5238590000000 1.0
C      1  0.4992820000000  0.4179870000000  0.4925220000000 1.0
C      1  0.5768980000000  0.4576160000000  0.5499480000000 1.0
C      1  0.5672910000000  0.4295800000000  0.5428050000000 1.0
C      1  0.6320290000000  0.4952240000000  0.5283700000000 1.0
C      1  0.4958550000000  0.4949490000000  0.6022020000000 1.0
C      1  0.6594330000000  0.5694450000000  0.4298670000000 1.0
C      1  0.5275920000000  0.5653720000000  0.4703270000000 1.0
C      1  0.5033340000000  0.4345230000000  0.5630230000000 1.0
C      1  0.5435740000000  0.5051800000000  0.4512550000000 1.0
C      1  0.4903680000000  0.4927480000000  0.4312280000000 1.0
C      1  0.4847530000000  0.3729300000000  0.5260710000000 1.0
C      1  0.4618260000000  0.4364180000000  0.5168820000000 1.0
C      1  0.5344270000000  0.6005920000000  0.4211470000000 1.0
C      1  0.3818980000000  0.5422230000000  0.5671990000000 1.0
C      1  0.5709580000000  0.4137880000000  0.4038600000000 1.0
C      1  0.5086270000000  0.5884310000000  0.5670520000000 1.0
C      1  0.4853560000000  0.5671150000000  0.4448800000000 1.0
C      1  0.4318720000000  0.4021290000000  0.5061080000000 1.0
C      1  0.4763360000000  0.4286910000000  0.5739660000000 1.0
C      1  0.4423380000000  0.5793810000000  0.4271230000000 1.0
C      1  0.4887580000000  0.6227540000000  0.4969800000000 1.0
C      1  0.6360290000000  0.5183650000000  0.4853290000000 1.0
C      1  0.4396670000000  0.4435740000000  0.4761090000000 1.0
C      1  0.5571170000000  0.5662080000000  0.5541690000000 1.0
C      1  0.4937420000000  0.3920380000000  0.4815190000000 1.0
C      1  0.5544390000000  0.4997520000000  0.5130590000000 1.0
C      1  0.4759520000000  0.3767340000000  0.4989590000000 1.0
C      1  0.4311890000000  0.5480040000000  0.4969220000000 1.0
C      1  0.5044720000000  0.5516060000000  0.6057290000000 1.0
C      1  0.5378970000000  0.3922440000000  0.4609420000000 1.0
C      1  0.5506140000000  0.5389540000000  0.5471770000000 1.0
C      1  0.4358350000000  0.4018800000000  0.5552430000000 1.0
C      1  0.4210380000000  0.5406700000000  0.4112850000000 1.0
C      1  0.4798680000000  0.3842240000000  0.5502290000000 1.0
C      1  0.4460300000000  0.5562100000000  0.5983700000000 1.0
C      1  0.5357260000000  0.5060130000000  0.5795850000000 1.0
C      1  0.4045460000000  0.5563950000000  0.4312240000000 1.0
C      1  0.4338240000000  0.4573700000000  0.5814840000000 1.0
C      1  0.3598000000000  0.5065300000000  0.4575900000000 1.0
C      1  0.4769430000000  0.4390390000000  0.4016010000000 1.0
C      1  0.4918580000000  0.5471840000000  0.4244240000000 1.0
C      1  0.4950590000000  0.5531950000000  0.3964700000000 1.0
END
