TITL C-612605-9286-1161 0.940201088677269 125000 -288.120190208737 0 0 48 (C1) n - 1
REM
REM in /home/nfs/bkarasulu/CARBON/AIRSS/Generating-Clusters/TERSOFF/Only-C1/FIRE-HFTN
REM
REM
REM
REM
REM
REM ./C.cell (11c1c37f851c82e70ff6c80c92926a4b)
REM AIRSS Version 0.9.1 bugfix July 2018 build 013d7b7c2542+ Fri, 06 Jul 2018 19:26:36 +0100
REM compiler GCC version 9.2.1 20190827 (Red Hat 9.2.1-1)
REM options -cpp -mtune=generic -march=x86-64 -g -O0 -fpre-include=/usr/include/finclude/math-vector-fortran.h
REM seed -994773613 1945128054 -816224775 490726159 -850445606 667414200 701004718 -28235793 -1168633727 1923781647 1294358245 1968937685 1806907093 -343937671 -1755844782 -1300224459 -963898078 2043703776 -381752354 1251535719 492572075 -321931873 -484807033 837073470 558407715 -1951459202 1445716460 204047905 1117080295 -252198183 -93279116 193910455 1642086519
REM
CELL 1.54180   50.00000   50.00000   50.00000   90.00000   90.00000   90.00000
LATT -1
SFAC C  
C      1  0.4658410000000  0.4832470000000  0.5012600000000 1.0
C      1  0.5790600000000  0.3959450000000  0.5031270000000 1.0
C      1  0.5818750000000  0.4167130000000  0.4863170000000 1.0
C      1  0.5843410000000  0.5233350000000  0.5495780000000 1.0
C      1  0.5456810000000  0.4825040000000  0.4826920000000 1.0
C      1  0.5390630000000  0.5418480000000  0.4167350000000 1.0
C      1  0.5470070000000  0.4557500000000  0.4905140000000 1.0
C      1  0.4067900000000  0.5409970000000  0.4994150000000 1.0
C      1  0.5404010000000  0.5061000000000  0.4687260000000 1.0
C      1  0.4557720000000  0.5334640000000  0.5626730000000 1.0
C      1  0.4143340000000  0.5037070000000  0.4697810000000 1.0
C      1  0.4297780000000  0.4565390000000  0.4695290000000 1.0
C      1  0.4374420000000  0.4833090000000  0.5080450000000 1.0
C      1  0.4533770000000  0.5336550000000  0.4497330000000 1.0
C      1  0.5358250000000  0.5342790000000  0.5313910000000 1.0
C      1  0.4521410000000  0.5394420000000  0.5891930000000 1.0
C      1  0.4910920000000  0.5555890000000  0.5259340000000 1.0
C      1  0.5026810000000  0.5186990000000  0.4978310000000 1.0
C      1  0.5145770000000  0.5428300000000  0.4277320000000 1.0
C      1  0.3969730000000  0.5219080000000  0.4828970000000 1.0
C      1  0.4759120000000  0.5096080000000  0.5003470000000 1.0
C      1  0.4994290000000  0.4478240000000  0.4944160000000 1.0
C      1  0.4557800000000  0.5297540000000  0.5036020000000 1.0
C      1  0.4769010000000  0.5678440000000  0.4779570000000 1.0
C      1  0.6325840000000  0.5106370000000  0.5661790000000 1.0
C      1  0.5686430000000  0.4396830000000  0.4827870000000 1.0
C      1  0.5281440000000  0.4322450000000  0.5306120000000 1.0
C      1  0.4217330000000  0.4798200000000  0.4838390000000 1.0
C      1  0.4318480000000  0.4940210000000  0.5335280000000 1.0
C      1  0.4554170000000  0.4474640000000  0.4715140000000 1.0
C      1  0.4411500000000  0.5118750000000  0.5514290000000 1.0
C      1  0.5603940000000  0.5295800000000  0.4277440000000 1.0
C      1  0.5186900000000  0.4446210000000  0.5531200000000 1.0
C      1  0.5611310000000  0.3923660000000  0.5228220000000 1.0
C      1  0.5598040000000  0.5154660000000  0.4505990000000 1.0
C      1  0.4766880000000  0.5473260000000  0.4582070000000 1.0
C      1  0.5153930000000  0.5197270000000  0.4721860000000 1.0
C      1  0.5250880000000  0.4446990000000  0.5051080000000 1.0
C      1  0.6086620000000  0.5169350000000  0.5579490000000 1.0
C      1  0.4749730000000  0.4594170000000  0.4884510000000 1.0
C      1  0.5111200000000  0.5361450000000  0.5189190000000 1.0
C      1  0.4739920000000  0.5491140000000  0.5475420000000 1.0
C      1  0.5412200000000  0.4074440000000  0.5324260000000 1.0
C      1  0.4830080000000  0.5719950000000  0.5040380000000 1.0
C      1  0.4327240000000  0.5432800000000  0.5062930000000 1.0
C      1  0.5022080000000  0.5358320000000  0.4519650000000 1.0
C      1  0.5600290000000  0.5294740000000  0.5410100000000 1.0
C      1  0.4332820000000  0.5159430000000  0.4523080000000 1.0
END
