TITL C-612604-1799-1092 447.591020257077 125000 -928.067587677209 0 0 153 (C1) n - 1
REM
REM in /home/nfs/bkarasulu/CARBON/AIRSS/Generating-Clusters/TERSOFF/Only-C1/FIRE-HFTN
REM
REM
REM
REM
REM
REM ./C.cell (11c1c37f851c82e70ff6c80c92926a4b)
REM AIRSS Version 0.9.1 bugfix July 2018 build 013d7b7c2542+ Fri, 06 Jul 2018 19:26:36 +0100
REM compiler GCC version 9.2.1 20190827 (Red Hat 9.2.1-1)
REM options -cpp -mtune=generic -march=x86-64 -g -O0 -fpre-include=/usr/include/finclude/math-vector-fortran.h
REM seed 558482931 1715157125 -1394105248 -1782897775 2019715265 1013409036 -1713744774 647486604 1626216634 2077369409 462312701 1046892245 -1330331171 1695020177 1687399943 1776337939 -444529800 804266692 1133235086 1680491927 980866302 799730042 -815306630 -1671867976 -781256411 258745988 -217036451 842122602 1028627993 -1763345925 -1105576117 642221826 624294228
REM
CELL 1.54180   50.00000   50.00000   50.00000   90.00000   90.00000   90.00000
LATT -1
SFAC C  
C      1  0.3948480000000  0.4716020000000  0.5210930000000 1.0
C      1  0.5406340000000  0.4641270000000  0.3964670000000 1.0
C      1  0.4440810000000  0.5368380000000  0.4359970000000 1.0
C      1  0.5070690000000  0.5194240000000  0.6150390000000 1.0
C      1  0.4938340000000  0.4027220000000  0.4988780000000 1.0
C      1  0.5280190000000  0.6016330000000  0.4258700000000 1.0
C      1  0.5323200000000  0.4194060000000  0.4577920000000 1.0
C      1  0.4739610000000  0.5783930000000  0.5708960000000 1.0
C      1  0.5163560000000  0.5577510000000  0.5512160000000 1.0
C      1  0.5630110000000  0.5484220000000  0.4353550000000 1.0
C      1  0.5469230000000  0.4039660000000  0.6036090000000 1.0
C      1  0.4557010000000  0.5147400000000  0.4953740000000 1.0
C      1  0.5642490000000  0.5031290000000  0.4631640000000 1.0
C      1  0.4380350000000  0.5815310000000  0.4624740000000 1.0
C      1  0.5360010000000  0.5423980000000  0.5149140000000 1.0
C      1  0.3908880000000  0.4470120000000  0.5346540000000 1.0
C      1  0.4545300000000  0.5338490000000  0.5739250000000 1.0
C      1  0.3833230000000  0.5276450000000  0.4801870000000 1.0
C      1  0.5152480000000  0.4764590000000  0.3952850000000 1.0
C      1  0.4117420000000  0.4805050000000  0.4330250000000 1.0
C      1  0.5201800000000  0.6015470000000  0.5549130000000 1.0
C      1  0.4652270000000  0.5069740000000  0.5727640000000 1.0
C      1  0.5217750000000  0.5598550000000  0.4598080000000 1.0
C      1  0.5581300000000  0.4357240000000  0.4622510000000 1.0
C      1  0.4729520000000  0.5530480000000  0.5881870000000 1.0
C      1  0.4585910000000  0.4810670000000  0.5833490000000 1.0
C      1  0.4762500000000  0.4478790000000  0.3846740000000 1.0
C      1  0.4044310000000  0.4091070000000  0.6122700000000 1.0
C      1  0.4592780000000  0.4911350000000  0.4108170000000 1.0
C      1  0.4700210000000  0.5384350000000  0.4468950000000 1.0
C      1  0.4434780000000  0.4279550000000  0.5031890000000 1.0
C      1  0.5824640000000  0.5503240000000  0.5249920000000 1.0
C      1  0.4204010000000  0.4432490000000  0.5737240000000 1.0
C      1  0.5701940000000  0.4214210000000  0.5184580000000 1.0
C      1  0.5155970000000  0.5172580000000  0.5685790000000 1.0
C      1  0.4444730000000  0.4689180000000  0.4748660000000 1.0
C      1  0.4621550000000  0.5791730000000  0.4106390000000 1.0
C      1  0.5879840000000  0.5574130000000  0.4466150000000 1.0
C      1  0.4607350000000  0.6007350000000  0.4579820000000 1.0
C      1  0.4435240000000  0.5469720000000  0.5506270000000 1.0
C      1  0.4789120000000  0.4650050000000  0.5949100000000 1.0
C      1  0.5372810000000  0.4668310000000  0.5292100000000 1.0
C      1  0.6026200000000  0.4568030000000  0.4537010000000 1.0
C      1  0.4493420000000  0.5610570000000  0.4805690000000 1.0
C      1  0.3880610000000  0.5147130000000  0.5054100000000 1.0
C      1  0.5463250000000  0.4287070000000  0.5907100000000 1.0
C      1  0.5265500000000  0.5287110000000  0.4051410000000 1.0
C      1  0.5164740000000  0.4688420000000  0.4799550000000 1.0
C      1  0.4902750000000  0.5200120000000  0.5313270000000 1.0
C      1  0.5349330000000  0.5082060000000  0.5506710000000 1.0
C      1  0.5494790000000  0.5239550000000  0.4742310000000 1.0
C      1  0.5047910000000  0.5078900000000  0.4587690000000 1.0
C      1  0.4987310000000  0.4441050000000  0.4280890000000 1.0
C      1  0.4757750000000  0.5568840000000  0.4687190000000 1.0
C      1  0.4193590000000  0.5284730000000  0.4308350000000 1.0
C      1  0.4901650000000  0.5400460000000  0.6077600000000 1.0
C      1  0.4647060000000  0.6129200000000  0.4845620000000 1.0
C      1  0.5947240000000  0.5472610000000  0.4968630000000 1.0
C      1  0.4362060000000  0.4791350000000  0.4186010000000 1.0
C      1  0.3987980000000  0.4640530000000  0.4541560000000 1.0
C      1  0.5495030000000  0.5222770000000  0.5016850000000 1.0
C      1  0.5602560000000  0.5268430000000  0.4158980000000 1.0
C      1  0.5281140000000  0.4497320000000  0.5995480000000 1.0
C      1  0.5441940000000  0.5451720000000  0.4566120000000 1.0
C      1  0.4917020000000  0.6158190000000  0.4910410000000 1.0
C      1  0.5367300000000  0.6002160000000  0.4904900000000 1.0
C      1  0.5880170000000  0.5043130000000  0.4266870000000 1.0
C      1  0.5243030000000  0.5438410000000  0.5747640000000 1.0
C      1  0.6207680000000  0.4953070000000  0.4988710000000 1.0
C      1  0.5243500000000  0.4300660000000  0.4295470000000 1.0
C      1  0.5784730000000  0.4603980000000  0.5702770000000 1.0
C      1  0.4122510000000  0.4256680000000  0.5937310000000 1.0
C      1  0.5455330000000  0.4469190000000  0.4181900000000 1.0
C      1  0.3671150000000  0.4339410000000  0.5364270000000 1.0
C      1  0.4921130000000  0.4541420000000  0.4800630000000 1.0
C      1  0.4630550000000  0.4070110000000  0.4962270000000 1.0
C      1  0.5387830000000  0.4767210000000  0.5984470000000 1.0
C      1  0.4836550000000  0.4121300000000  0.4557420000000 1.0
C      1  0.5955870000000  0.4981210000000  0.5073730000000 1.0
C      1  0.4266590000000  0.5421910000000  0.5248960000000 1.0
C      1  0.5561350000000  0.4576250000000  0.4422380000000 1.0
C      1  0.4533270000000  0.5758570000000  0.5497990000000 1.0
C      1  0.5348790000000  0.5794320000000  0.5437850000000 1.0
C      1  0.5537500000000  0.4264190000000  0.5414360000000 1.0
C      1  0.4194100000000  0.4873530000000  0.5283370000000 1.0
C      1  0.3835070000000  0.5088380000000  0.4585380000000 1.0
C      1  0.5468740000000  0.3802470000000  0.6154090000000 1.0
C      1  0.4468250000000  0.4954150000000  0.4770780000000 1.0
C      1  0.4220340000000  0.5802600000000  0.4390150000000 1.0
C      1  0.4852880000000  0.4543330000000  0.5091570000000 1.0
C      1  0.4851030000000  0.4413180000000  0.4535190000000 1.0
C      1  0.4955730000000  0.5972360000000  0.5671340000000 1.0
C      1  0.5849570000000  0.4398290000000  0.4726000000000 1.0
C      1  0.4389400000000  0.5901500000000  0.5281820000000 1.0
C      1  0.5970240000000  0.5392820000000  0.4676810000000 1.0
C      1  0.5643740000000  0.4339960000000  0.5679260000000 1.0
C      1  0.3824170000000  0.4815220000000  0.4710500000000 1.0
C      1  0.4372890000000  0.4413550000000  0.5280310000000 1.0
C      1  0.5486720000000  0.4832680000000  0.4509790000000 1.0
C      1  0.5031820000000  0.5196950000000  0.4832790000000 1.0
C      1  0.5014830000000  0.4382640000000  0.5273280000000 1.0
C      1  0.5993350000000  0.4752770000000  0.5562290000000 1.0
C      1  0.4431690000000  0.4702280000000  0.5278060000000 1.0
C      1  0.5896840000000  0.5129260000000  0.4548620000000 1.0
C      1  0.5072480000000  0.5583190000000  0.4078390000000 1.0
C      1  0.5752400000000  0.5433000000000  0.5735000000000 1.0
C      1  0.4778230000000  0.5929020000000  0.4325710000000 1.0
C      1  0.5323290000000  0.4730320000000  0.5026130000000 1.0
C      1  0.4340770000000  0.4673510000000  0.5800550000000 1.0
C      1  0.4330270000000  0.4434740000000  0.4801210000000 1.0
C      1  0.4838130000000  0.5052450000000  0.4149160000000 1.0
C      1  0.4868020000000  0.5173630000000  0.4399930000000 1.0
C      1  0.5084300000000  0.4069210000000  0.4723930000000 1.0
C      1  0.5894790000000  0.4337350000000  0.5009550000000 1.0
C      1  0.3974370000000  0.4154330000000  0.4608530000000 1.0
C      1  0.5094270000000  0.5946110000000  0.4875580000000 1.0
C      1  0.3820290000000  0.4855660000000  0.4997490000000 1.0
C      1  0.5884160000000  0.5330150000000  0.5499250000000 1.0
C      1  0.6109220000000  0.4449920000000  0.5156820000000 1.0
C      1  0.5248960000000  0.4986940000000  0.6114280000000 1.0
C      1  0.5214490000000  0.4854640000000  0.4581850000000 1.0
C      1  0.4167820000000  0.5714840000000  0.5217090000000 1.0
C      1  0.4944840000000  0.4571160000000  0.4028870000000 1.0
C      1  0.4695910000000  0.4764070000000  0.5195080000000 1.0
C      1  0.5701970000000  0.5055990000000  0.5113030000000 1.0
C      1  0.4899270000000  0.5107940000000  0.5589800000000 1.0
C      1  0.5288160000000  0.4400340000000  0.5351840000000 1.0
C      1  0.6287700000000  0.4623310000000  0.4640420000000 1.0
C      1  0.4604780000000  0.4003400000000  0.4674990000000 1.0
C      1  0.5101820000000  0.5411700000000  0.5279360000000 1.0
C      1  0.4339750000000  0.5802990000000  0.4143160000000 1.0
C      1  0.5094180000000  0.5039610000000  0.4011750000000 1.0
C      1  0.5507630000000  0.5474690000000  0.5841370000000 1.0
C      1  0.6359430000000  0.4808460000000  0.4821970000000 1.0
C      1  0.5467280000000  0.3568710000000  0.6269480000000 1.0
C      1  0.5958690000000  0.4751900000000  0.4300450000000 1.0
C      1  0.4434820000000  0.5402350000000  0.4991890000000 1.0
C      1  0.5446740000000  0.4831890000000  0.5505200000000 1.0
C      1  0.6144260000000  0.4598860000000  0.5378380000000 1.0
C      1  0.5006050000000  0.5705760000000  0.4741460000000 1.0
C      1  0.5609330000000  0.6097950000000  0.4888880000000 1.0
C      1  0.5543130000000  0.5633410000000  0.5264600000000 1.0
C      1  0.4739810000000  0.5043550000000  0.5145590000000 1.0
C      1  0.5562060000000  0.4775360000000  0.5757560000000 1.0
C      1  0.5069510000000  0.5844840000000  0.4244750000000 1.0
C      1  0.4109050000000  0.5161630000000  0.5237060000000 1.0
C      1  0.4016720000000  0.5078250000000  0.4366540000000 1.0
C      1  0.5982860000000  0.5050500000000  0.5537190000000 1.0
C      1  0.4092430000000  0.4396420000000  0.4648120000000 1.0
C      1  0.4479790000000  0.6076050000000  0.5075320000000 1.0
C      1  0.4796590000000  0.5600960000000  0.3969480000000 1.0
C      1  0.4154000000000  0.4374050000000  0.5461060000000 1.0
C      1  0.5000050000000  0.4491850000000  0.5995760000000 1.0
END
