TITL C-612604-1799-665 0.0568455522698689 125000 -644.477737640771 0 0 105 (C1) n - 1
REM
REM in /home/nfs/bkarasulu/CARBON/AIRSS/Generating-Clusters/TERSOFF/Only-C1/FIRE-HFTN
REM
REM
REM
REM
REM
REM ./C.cell (11c1c37f851c82e70ff6c80c92926a4b)
REM AIRSS Version 0.9.1 bugfix July 2018 build 013d7b7c2542+ Fri, 06 Jul 2018 19:26:36 +0100
REM compiler GCC version 9.2.1 20190827 (Red Hat 9.2.1-1)
REM options -cpp -mtune=generic -march=x86-64 -g -O0 -fpre-include=/usr/include/finclude/math-vector-fortran.h
REM seed 765736852 350451210 -734443532 1930886620 -916242492 2092528161 282454902 -1532012761 -2091752073 2142966422 -2023028535 -1543777031 -1231968240 -1043595429 123942714 1125041168 272293490 -1667187747 648251016 766250996 1278112024 -906409856 179934830 203026223 -1221305923 -1613255032 170592855 -96439576 608498496 1606254220 111665992 -1491335390 1469877569
REM
CELL 1.54180   50.00000   50.00000   50.00000   90.00000   90.00000   90.00000
LATT -1
SFAC C  
C      1  0.4295860000000  0.5543000000000  0.4222950000000 1.0
C      1  0.5269040000000  0.5939600000000  0.5439730000000 1.0
C      1  0.5014220000000  0.5360780000000  0.5860860000000 1.0
C      1  0.5270950000000  0.4159070000000  0.4778560000000 1.0
C      1  0.4052560000000  0.4987630000000  0.5019190000000 1.0
C      1  0.5763020000000  0.5152350000000  0.5306440000000 1.0
C      1  0.5876680000000  0.5215100000000  0.5043180000000 1.0
C      1  0.4764670000000  0.4813980000000  0.4044130000000 1.0
C      1  0.4651050000000  0.5422640000000  0.4882110000000 1.0
C      1  0.5388200000000  0.5149700000000  0.4433790000000 1.0
C      1  0.5032780000000  0.4105190000000  0.4937540000000 1.0
C      1  0.5461470000000  0.5457190000000  0.5630200000000 1.0
C      1  0.4394760000000  0.4780460000000  0.4726060000000 1.0
C      1  0.4563110000000  0.5012590000000  0.5426840000000 1.0
C      1  0.4487220000000  0.4363680000000  0.4385050000000 1.0
C      1  0.4743590000000  0.5457580000000  0.5825340000000 1.0
C      1  0.5768380000000  0.5502740000000  0.4646590000000 1.0
C      1  0.5808260000000  0.4956610000000  0.4347510000000 1.0
C      1  0.5008870000000  0.4601610000000  0.5810440000000 1.0
C      1  0.5858780000000  0.4913810000000  0.4623130000000 1.0
C      1  0.5238000000000  0.4841790000000  0.5448440000000 1.0
C      1  0.5291880000000  0.4987170000000  0.4646150000000 1.0
C      1  0.5690090000000  0.4691630000000  0.4731880000000 1.0
C      1  0.5687240000000  0.4821940000000  0.5685840000000 1.0
C      1  0.5451630000000  0.4777470000000  0.5275430000000 1.0
C      1  0.4915940000000  0.4218900000000  0.5182390000000 1.0
C      1  0.5214420000000  0.4245110000000  0.4506240000000 1.0
C      1  0.4737250000000  0.4662750000000  0.5049190000000 1.0
C      1  0.4932320000000  0.5467470000000  0.4344590000000 1.0
C      1  0.4899020000000  0.5688110000000  0.4578660000000 1.0
C      1  0.5089050000000  0.5761950000000  0.5567870000000 1.0
C      1  0.5545830000000  0.4987490000000  0.4248810000000 1.0
C      1  0.4864120000000  0.4859690000000  0.5833540000000 1.0
C      1  0.4674850000000  0.5278020000000  0.5392260000000 1.0
C      1  0.4574130000000  0.4234590000000  0.4837110000000 1.0
C      1  0.5314380000000  0.4944100000000  0.5957770000000 1.0
C      1  0.4901270000000  0.4376440000000  0.5668230000000 1.0
C      1  0.5321570000000  0.4872010000000  0.4089160000000 1.0
C      1  0.4815670000000  0.4112260000000  0.4727460000000 1.0
C      1  0.5268070000000  0.4107310000000  0.5494460000000 1.0
C      1  0.5317590000000  0.4708090000000  0.5034010000000 1.0
C      1  0.4654730000000  0.4274770000000  0.5756010000000 1.0
C      1  0.5723930000000  0.5697900000000  0.5069900000000 1.0
C      1  0.4372490000000  0.4306610000000  0.4646140000000 1.0
C      1  0.5687170000000  0.4887390000000  0.5399790000000 1.0
C      1  0.4789580000000  0.5016870000000  0.4704160000000 1.0
C      1  0.5291730000000  0.5954710000000  0.5161090000000 1.0
C      1  0.4682980000000  0.4761630000000  0.4762470000000 1.0
C      1  0.4311430000000  0.4874140000000  0.4996170000000 1.0
C      1  0.4726770000000  0.5313120000000  0.4158780000000 1.0
C      1  0.5993900000000  0.5009000000000  0.4877750000000 1.0
C      1  0.3865080000000  0.4791240000000  0.4929340000000 1.0
C      1  0.4238340000000  0.5521140000000  0.4494880000000 1.0
C      1  0.5114990000000  0.5333650000000  0.4882720000000 1.0
C      1  0.5489270000000  0.3971570000000  0.5518240000000 1.0
C      1  0.5039650000000  0.5928240000000  0.5014850000000 1.0
C      1  0.5194840000000  0.4618600000000  0.4162270000000 1.0
C      1  0.5186760000000  0.5302860000000  0.4287100000000 1.0
C      1  0.5201550000000  0.5533280000000  0.5713230000000 1.0
C      1  0.4409630000000  0.4194010000000  0.5815790000000 1.0
C      1  0.5747200000000  0.5188030000000  0.6029290000000 1.0
C      1  0.4339280000000  0.5265200000000  0.4588210000000 1.0
C      1  0.4949070000000  0.5255240000000  0.5318460000000 1.0
C      1  0.5396200000000  0.5812030000000  0.4722400000000 1.0
C      1  0.5327110000000  0.4418530000000  0.4316210000000 1.0
C      1  0.5423910000000  0.4772860000000  0.4782360000000 1.0
C      1  0.5502940000000  0.5859280000000  0.4994830000000 1.0
C      1  0.5084940000000  0.5406600000000  0.5133990000000 1.0
C      1  0.4628350000000  0.4900350000000  0.5680860000000 1.0
C      1  0.4565750000000  0.5833240000000  0.5001860000000 1.0
C      1  0.5137800000000  0.5106780000000  0.4062420000000 1.0
C      1  0.5086010000000  0.5054570000000  0.5443510000000 1.0
C      1  0.4765560000000  0.4382350000000  0.4312670000000 1.0
C      1  0.5570870000000  0.5666800000000  0.4554640000000 1.0
C      1  0.4309150000000  0.5733770000000  0.5085340000000 1.0
C      1  0.4106700000000  0.4375960000000  0.4721760000000 1.0
C      1  0.4142050000000  0.5518920000000  0.5102100000000 1.0
C      1  0.5820480000000  0.5470460000000  0.4925570000000 1.0
C      1  0.4441510000000  0.5298540000000  0.4152870000000 1.0
C      1  0.4330090000000  0.5096260000000  0.4344470000000 1.0
C      1  0.5537450000000  0.4579920000000  0.5767370000000 1.0
C      1  0.5651640000000  0.5359870000000  0.5467480000000 1.0
C      1  0.5870520000000  0.4564020000000  0.4920770000000 1.0
C      1  0.4665700000000  0.5520380000000  0.5553410000000 1.0
C      1  0.3920090000000  0.4547710000000  0.4817870000000 1.0
C      1  0.5036590000000  0.4682550000000  0.5064150000000 1.0
C      1  0.4304380000000  0.4837690000000  0.4459130000000 1.0
C      1  0.4899530000000  0.4590430000000  0.4157730000000 1.0
C      1  0.5025910000000  0.4240230000000  0.5445120000000 1.0
C      1  0.5282730000000  0.4648350000000  0.5889820000000 1.0
C      1  0.5106110000000  0.5836290000000  0.4729290000000 1.0
C      1  0.4042460000000  0.5266990000000  0.5077410000000 1.0
C      1  0.4821690000000  0.5746520000000  0.5442070000000 1.0
C      1  0.4166020000000  0.4118400000000  0.5869640000000 1.0
C      1  0.6057930000000  0.4752000000000  0.5005080000000 1.0
C      1  0.4679210000000  0.4366300000000  0.5079090000000 1.0
C      1  0.5589770000000  0.5014500000000  0.5890530000000 1.0
C      1  0.4525350000000  0.4842560000000  0.5197130000000 1.0
C      1  0.4925870000000  0.4211270000000  0.4478320000000 1.0
C      1  0.4676550000000  0.5681110000000  0.4775860000000 1.0
C      1  0.5055820000000  0.5078500000000  0.5919740000000 1.0
C      1  0.5056540000000  0.5096950000000  0.4747510000000 1.0
C      1  0.4582620000000  0.5214980000000  0.4723730000000 1.0
C      1  0.4856230000000  0.5081560000000  0.4034080000000 1.0
C      1  0.4795690000000  0.5874770000000  0.5174010000000 1.0
END
