TITL C-612604-1799-1016 194123.552173451 125000 -811.034977412397 0 0 133 (C1) n - 1
REM
REM in /home/nfs/bkarasulu/CARBON/AIRSS/Generating-Clusters/TERSOFF/Only-C1/FIRE-HFTN
REM
REM
REM
REM
REM
REM ./C.cell (11c1c37f851c82e70ff6c80c92926a4b)
REM AIRSS Version 0.9.1 bugfix July 2018 build 013d7b7c2542+ Fri, 06 Jul 2018 19:26:36 +0100
REM compiler GCC version 9.2.1 20190827 (Red Hat 9.2.1-1)
REM options -cpp -mtune=generic -march=x86-64 -g -O0 -fpre-include=/usr/include/finclude/math-vector-fortran.h
REM seed -216934960 1394381559 1834511136 -1982846975 -248480608 -779395538 -530133300 1121110996 114392097 -184257261 -661240684 -888158597 -680801293 -2009469538 -1331866482 -2023424006 1604758397 390017808 -583563937 558811501 1490247666 -1072423154 -499139284 -1238171725 -1975573128 -1559354080 1014227910 -44525032 -200125030 -396674737 -976190125 1641924155 -1365667309
REM
CELL 1.54180   50.00000   50.00000   50.00000   90.00000   90.00000   90.00000
LATT -1
SFAC C  
C      1  0.4790890000000  0.4479400000000  0.4875300000000 1.0
C      1  0.5328590000000  0.4369340000000  0.4690380000000 1.0
C      1  0.4864470000000  0.5184580000000  0.4054170000000 1.0
C      1  0.4578810000000  0.4770510000000  0.5228710000000 1.0
C      1  0.4815480000000  0.4680600000000  0.3954990000000 1.0
C      1  0.4606820000000  0.5631950000000  0.5141780000000 1.0
C      1  0.5735470000000  0.5161000000000  0.4308900000000 1.0
C      1  0.5904090000000  0.5067010000000  0.4542270000000 1.0
C      1  0.4085860000000  0.4499560000000  0.5365820000000 1.0
C      1  0.4148960000000  0.5232860000000  0.4614120000000 1.0
C      1  0.4932940000000  0.5753390000000  0.4068260000000 1.0
C      1  0.5352800000000  0.4918140000000  0.4998550000000 1.0
C      1  0.4419830000000  0.5254140000000  0.5669930000000 1.0
C      1  0.4763020000000  0.5532750000000  0.5908320000000 1.0
C      1  0.4997700000000  0.5375710000000  0.5938450000000 1.0
C      1  0.5121670000000  0.4508320000000  0.4551790000000 1.0
C      1  0.4861960000000  0.4432050000000  0.4604170000000 1.0
C      1  0.5508660000000  0.4153460000000  0.5303920000000 1.0
C      1  0.6299830000000  0.5527160000000  0.5368710000000 1.0
C      1  0.5007050000000  0.5944880000000  0.4284290000000 1.0
C      1  0.4770010000000  0.5908490000000  0.4713260000000 1.0
C      1  0.5434070000000  0.4840390000000  0.5865900000000 1.0
C      1  0.5722570000000  0.4829010000000  0.5784200000000 1.0
C      1  0.4622500000000  0.5077640000000  0.5580580000000 1.0
C      1  0.4021540000000  0.4940280000000  0.5542320000000 1.0
C      1  0.5301980000000  0.4577910000000  0.4123790000000 1.0
C      1  0.5105440000000  0.5272920000000  0.3940840000000 1.0
C      1  0.5163670000000  0.5552140000000  0.3999970000000 1.0
C      1  0.4854060000000  0.4906560000000  0.6009920000000 1.0
C      1  0.5076380000000  0.3977830000000  0.5396320000000 1.0
C      1  0.4807330000000  0.6051950000000  0.4466520000000 1.0
C      1  0.5329270000000  0.4544050000000  0.5839890000000 1.0
C      1  0.5863920000000  0.4722350000000  0.4247190000000 1.0
C      1  0.4265770000000  0.4577340000000  0.4416650000000 1.0
C      1  0.5022730000000  0.4460680000000  0.5896410000000 1.0
C      1  0.5078100000000  0.5053350000000  0.4999800000000 1.0
C      1  0.6139230000000  0.5394350000000  0.5194740000000 1.0
C      1  0.4569420000000  0.3963760000000  0.5150330000000 1.0
C      1  0.5014670000000  0.5746880000000  0.5425240000000 1.0
C      1  0.4921520000000  0.5954850000000  0.4963190000000 1.0
C      1  0.4891730000000  0.5500660000000  0.4478590000000 1.0
C      1  0.4251160000000  0.4317520000000  0.4940260000000 1.0
C      1  0.5381220000000  0.4822850000000  0.4720910000000 1.0
C      1  0.4622620000000  0.5694860000000  0.4060270000000 1.0
C      1  0.4765890000000  0.4943690000000  0.3948910000000 1.0
C      1  0.5069440000000  0.5184100000000  0.4746510000000 1.0
C      1  0.4638850000000  0.5487520000000  0.4898380000000 1.0
C      1  0.4434580000000  0.4331610000000  0.4459260000000 1.0
C      1  0.5762980000000  0.4619630000000  0.5586050000000 1.0
C      1  0.5268420000000  0.4355010000000  0.4958090000000 1.0
C      1  0.5622950000000  0.5408650000000  0.4224900000000 1.0
C      1  0.4103110000000  0.4485320000000  0.5664130000000 1.0
C      1  0.5801920000000  0.5162390000000  0.4996270000000 1.0
C      1  0.4816890000000  0.4543970000000  0.6338930000000 1.0
C      1  0.5287010000000  0.5057660000000  0.3900870000000 1.0
C      1  0.5294070000000  0.5048960000000  0.5680030000000 1.0
C      1  0.5753430000000  0.6205950000000  0.5448250000000 1.0
C      1  0.5165960000000  0.5581080000000  0.4537560000000 1.0
C      1  0.5878330000000  0.5283380000000  0.5252080000000 1.0
C      1  0.4539680000000  0.3968190000000  0.4874770000000 1.0
C      1  0.5500320000000  0.4423220000000  0.4277880000000 1.0
C      1  0.4776070000000  0.5341410000000  0.4273410000000 1.0
C      1  0.4332000000000  0.5261730000000  0.4371970000000 1.0
C      1  0.5169050000000  0.4786480000000  0.4536270000000 1.0
C      1  0.4352970000000  0.4774680000000  0.4233070000000 1.0
C      1  0.4010890000000  0.4741500000000  0.5752100000000 1.0
C      1  0.6199450000000  0.5339420000000  0.4913200000000 1.0
C      1  0.4576260000000  0.4682260000000  0.4949800000000 1.0
C      1  0.5220690000000  0.5849640000000  0.4463360000000 1.0
C      1  0.4893700000000  0.4636350000000  0.6093670000000 1.0
C      1  0.5391900000000  0.5420200000000  0.4994460000000 1.0
C      1  0.4137310000000  0.5595400000000  0.5011410000000 1.0
C      1  0.5057310000000  0.4885490000000  0.5587530000000 1.0
C      1  0.4309620000000  0.4327300000000  0.5778600000000 1.0
C      1  0.4387470000000  0.4164790000000  0.4723300000000 1.0
C      1  0.4095900000000  0.5458230000000  0.4782750000000 1.0
C      1  0.4481000000000  0.5005480000000  0.4337570000000 1.0
C      1  0.5583680000000  0.4409980000000  0.4565260000000 1.0
C      1  0.4656450000000  0.5029500000000  0.5303800000000 1.0
C      1  0.4075750000000  0.4968270000000  0.4741190000000 1.0
C      1  0.4974530000000  0.4225920000000  0.5481950000000 1.0
C      1  0.4330230000000  0.5670490000000  0.5188120000000 1.0
C      1  0.5415280000000  0.4843580000000  0.4037850000000 1.0
C      1  0.5599190000000  0.4173770000000  0.5567620000000 1.0
C      1  0.5566910000000  0.4419080000000  0.5692130000000 1.0
C      1  0.4719130000000  0.5625580000000  0.4669760000000 1.0
C      1  0.4715870000000  0.4374830000000  0.4375980000000 1.0
C      1  0.5857460000000  0.4581430000000  0.5012010000000 1.0
C      1  0.4513410000000  0.5463620000000  0.4218670000000 1.0
C      1  0.3998350000000  0.4933720000000  0.5028500000000 1.0
C      1  0.5229960000000  0.5423920000000  0.4758930000000 1.0
C      1  0.4842910000000  0.5789910000000  0.5195710000000 1.0
C      1  0.5197180000000  0.5524640000000  0.5473260000000 1.0
C      1  0.4830280000000  0.4282430000000  0.5724980000000 1.0
C      1  0.4172870000000  0.4706230000000  0.4658560000000 1.0
C      1  0.5673440000000  0.4915420000000  0.4147620000000 1.0
C      1  0.5030170000000  0.6147390000000  0.5789920000000 1.0
C      1  0.5800860000000  0.4568410000000  0.4711030000000 1.0
C      1  0.4605840000000  0.4919060000000  0.4780400000000 1.0
C      1  0.4515950000000  0.5476480000000  0.5813740000000 1.0
C      1  0.5316830000000  0.3944910000000  0.5275070000000 1.0
C      1  0.5537270000000  0.6213570000000  0.5302290000000 1.0
C      1  0.5436590000000  0.5564450000000  0.4100330000000 1.0
C      1  0.5128110000000  0.4698630000000  0.5390630000000 1.0
C      1  0.5001890000000  0.4455050000000  0.5320750000000 1.0
C      1  0.5454900000000  0.4397510000000  0.5159330000000 1.0
C      1  0.5015930000000  0.5952360000000  0.5617640000000 1.0
C      1  0.5987600000000  0.5191880000000  0.4781250000000 1.0
C      1  0.5185780000000  0.6062920000000  0.4928360000000 1.0
C      1  0.4304950000000  0.4584320000000  0.4875340000000 1.0
C      1  0.5412240000000  0.5472000000000  0.5284610000000 1.0
C      1  0.4020550000000  0.4792780000000  0.5281770000000 1.0
C      1  0.5621430000000  0.5285100000000  0.5390120000000 1.0
C      1  0.5495040000000  0.5040230000000  0.5452780000000 1.0
C      1  0.4541740000000  0.4602700000000  0.5435890000000 1.0
C      1  0.5383120000000  0.4757790000000  0.5243150000000 1.0
C      1  0.5918200000000  0.4767520000000  0.4530150000000 1.0
C      1  0.4538870000000  0.4214780000000  0.5641890000000 1.0
C      1  0.4948320000000  0.4506720000000  0.4123410000000 1.0
C      1  0.4700360000000  0.4971390000000  0.4523740000000 1.0
C      1  0.4985160000000  0.5002520000000  0.4536810000000 1.0
C      1  0.4816030000000  0.4935790000000  0.5729590000000 1.0
C      1  0.5528410000000  0.5160550000000  0.4973040000000 1.0
C      1  0.4883910000000  0.5125380000000  0.5179690000000 1.0
C      1  0.4156830000000  0.5180330000000  0.5600380000000 1.0
C      1  0.5304600000000  0.6019460000000  0.4673230000000 1.0
C      1  0.4452680000000  0.4132530000000  0.5355700000000 1.0
C      1  0.4228420000000  0.4287400000000  0.5226590000000 1.0
C      1  0.4962420000000  0.5148620000000  0.6114730000000 1.0
C      1  0.5000540000000  0.4404680000000  0.5047140000000 1.0
C      1  0.5336580000000  0.6175000000000  0.5133670000000 1.0
C      1  0.5181720000000  0.5340920000000  0.5712510000000 1.0
C      1  0.5856020000000  0.4610470000000  0.5296180000000 1.0
END
