TITL C-612601-4209-213 0.960147863536145 125000 -487.572561633065 0 0 81 (C1) n - 1
REM
REM in /home/nfs/bkarasulu/CARBON/AIRSS/Generating-Clusters/TERSOFF/Only-C1/FIRE-HFTN
REM
REM
REM
REM
REM
REM ./C.cell (11c1c37f851c82e70ff6c80c92926a4b)
REM AIRSS Version 0.9.1 bugfix July 2018 build 013d7b7c2542+ Fri, 06 Jul 2018 19:26:36 +0100
REM compiler GCC version 9.2.1 20190827 (Red Hat 9.2.1-1)
REM options -cpp -mtune=generic -march=x86-64 -g -O0 -fpre-include=/usr/include/finclude/math-vector-fortran.h
REM seed 1394064029 430988640 -2014792486 -483015683 -1277423453 -360170263 -1897493066 -1080038264 595539052 1523760641 -1711182550 -1839583369 533545337 918172202 2003349897 666805444 -1401976339 142214851 -1490558919 280066711 -370300217 50137968 -1530723799 -1760146274 -2124469989 -646784639 1635387387 1124323138 -159119781 660657919 -1796199374 787272421 -1095183054
REM
CELL 1.54180   50.00000   50.00000   50.00000   90.00000   90.00000   90.00000
LATT -1
SFAC C  
C      1  0.4120400000000  0.4871770000000  0.4109380000000 1.0
C      1  0.5098090000000  0.4853590000000  0.4170060000000 1.0
C      1  0.5863870000000  0.5290730000000  0.4481730000000 1.0
C      1  0.4398490000000  0.4512650000000  0.5275020000000 1.0
C      1  0.4408660000000  0.5338620000000  0.4087440000000 1.0
C      1  0.5175780000000  0.5977370000000  0.5739630000000 1.0
C      1  0.4946330000000  0.5884440000000  0.5645020000000 1.0
C      1  0.4938950000000  0.4467060000000  0.6166160000000 1.0
C      1  0.6202910000000  0.5412040000000  0.6114330000000 1.0
C      1  0.5153480000000  0.5372970000000  0.4506620000000 1.0
C      1  0.4238760000000  0.4418900000000  0.4330720000000 1.0
C      1  0.5170810000000  0.4738580000000  0.5760610000000 1.0
C      1  0.4532970000000  0.4774330000000  0.5655830000000 1.0
C      1  0.4173010000000  0.5074580000000  0.4984800000000 1.0
C      1  0.4559560000000  0.5274380000000  0.5791940000000 1.0
C      1  0.4996870000000  0.4924000000000  0.4433470000000 1.0
C      1  0.4978140000000  0.5048980000000  0.3983940000000 1.0
C      1  0.4200380000000  0.4612520000000  0.5101490000000 1.0
C      1  0.5366440000000  0.5574430000000  0.4118600000000 1.0
C      1  0.4082920000000  0.4871260000000  0.5169370000000 1.0
C      1  0.6450400000000  0.5378970000000  0.6202760000000 1.0
C      1  0.5781900000000  0.5225790000000  0.5960480000000 1.0
C      1  0.4608120000000  0.5304020000000  0.5040620000000 1.0
C      1  0.5258690000000  0.4783430000000  0.5278640000000 1.0
C      1  0.4225650000000  0.4635830000000  0.4809350000000 1.0
C      1  0.5825270000000  0.5464380000000  0.4283540000000 1.0
C      1  0.4169040000000  0.4468820000000  0.4595310000000 1.0
C      1  0.4673660000000  0.4144450000000  0.4836070000000 1.0
C      1  0.5767380000000  0.5127970000000  0.4668020000000 1.0
C      1  0.4943600000000  0.5327680000000  0.4062360000000 1.0
C      1  0.5145470000000  0.5441400000000  0.4227650000000 1.0
C      1  0.4875010000000  0.4499640000000  0.5448350000000 1.0
C      1  0.5358710000000  0.4257080000000  0.4622990000000 1.0
C      1  0.4639940000000  0.5515720000000  0.5717610000000 1.0
C      1  0.4601540000000  0.4586180000000  0.5459420000000 1.0
C      1  0.4880170000000  0.4863470000000  0.4989220000000 1.0
C      1  0.4722760000000  0.4927330000000  0.3944720000000 1.0
C      1  0.5163860000000  0.5097450000000  0.4588390000000 1.0
C      1  0.5079080000000  0.4581560000000  0.4089770000000 1.0
C      1  0.5004910000000  0.3973060000000  0.5401800000000 1.0
C      1  0.4708900000000  0.5071440000000  0.4906620000000 1.0
C      1  0.4930550000000  0.4226570000000  0.5421420000000 1.0
C      1  0.5540520000000  0.4762320000000  0.5272390000000 1.0
C      1  0.4608770000000  0.4349430000000  0.4030810000000 1.0
C      1  0.5942310000000  0.5446700000000  0.6021220000000 1.0
C      1  0.5835970000000  0.5702930000000  0.5986650000000 1.0
C      1  0.5150640000000  0.4909280000000  0.5044860000000 1.0
C      1  0.5105090000000  0.5563170000000  0.4705190000000 1.0
C      1  0.4519200000000  0.5013320000000  0.5769580000000 1.0
C      1  0.5582370000000  0.5066600000000  0.5889150000000 1.0
C      1  0.4320210000000  0.5069980000000  0.4145630000000 1.0
C      1  0.4553270000000  0.4988950000000  0.4677690000000 1.0
C      1  0.5690880000000  0.4863710000000  0.5071960000000 1.0
C      1  0.6941630000000  0.5313310000000  0.6378260000000 1.0
C      1  0.6698050000000  0.5345870000000  0.6291240000000 1.0
C      1  0.5367650000000  0.4928870000000  0.5817340000000 1.0
C      1  0.4669610000000  0.5423920000000  0.4058420000000 1.0
C      1  0.5306760000000  0.5011780000000  0.4822800000000 1.0
C      1  0.4187760000000  0.4593860000000  0.4096700000000 1.0
C      1  0.5097030000000  0.4679600000000  0.5490560000000 1.0
C      1  0.4816510000000  0.4596840000000  0.4921840000000 1.0
C      1  0.5632580000000  0.5579960000000  0.4139470000000 1.0
C      1  0.5113550000000  0.4285090000000  0.4706810000000 1.0
C      1  0.5593160000000  0.5002740000000  0.4845270000000 1.0
C      1  0.4287990000000  0.4917940000000  0.4757340000000 1.0
C      1  0.4963910000000  0.5612550000000  0.4924640000000 1.0
C      1  0.4883590000000  0.4406230000000  0.4025880000000 1.0
C      1  0.4394180000000  0.4503980000000  0.3903230000000 1.0
C      1  0.5052510000000  0.4599230000000  0.5972370000000 1.0
C      1  0.4749470000000  0.5544430000000  0.5090440000000 1.0
C      1  0.5654860000000  0.5885660000000  0.5922390000000 1.0
C      1  0.5422840000000  0.5980780000000  0.5835950000000 1.0
C      1  0.5078830000000  0.3725150000000  0.5369750000000 1.0
C      1  0.4472860000000  0.4258780000000  0.4270590000000 1.0
C      1  0.4325170000000  0.5295300000000  0.5069820000000 1.0
C      1  0.4701270000000  0.4930850000000  0.4441650000000 1.0
C      1  0.4863700000000  0.4340230000000  0.4820060000000 1.0
C      1  0.4656540000000  0.5731910000000  0.5283050000000 1.0
C      1  0.4746520000000  0.5713430000000  0.5551710000000 1.0
C      1  0.4569410000000  0.4930540000000  0.4186100000000 1.0
C      1  0.4481390000000  0.5929350000000  0.5209890000000 1.0
END
