TITL C-612602-9376-260 0.15733147133749 125000 -123.929651700889 0 0 22 (C1) n - 1
REM
REM in /home/nfs/bkarasulu/CARBON/AIRSS/Generating-Clusters/TERSOFF/Only-C1/FIRE-HFTN
REM
REM
REM
REM
REM
REM ./C.cell (11c1c37f851c82e70ff6c80c92926a4b)
REM AIRSS Version 0.9.1 bugfix July 2018 build 013d7b7c2542+ Fri, 06 Jul 2018 19:26:36 +0100
REM compiler GCC version 9.2.1 20190827 (Red Hat 9.2.1-1)
REM options -cpp -mtune=generic -march=x86-64 -g -O0 -fpre-include=/usr/include/finclude/math-vector-fortran.h
REM seed -1725681881 -505367045 996137742 -2099864525 -449921422 668344794 -325953723 -2029187085 1628612526 -542472294 270466439 1733199925 -1822220289 -1106109729 -1718145388 285814487 1317504897 1219715186 -58559867 808587649 -509775113 1224391635 -346343338 1562804172 1344517101 -1785067228 961578061 -571673413 -1830246051 -416707870 1120469620 -1779452878 -768982853
REM
CELL 1.54180   50.00000   50.00000   50.00000   90.00000   90.00000   90.00000
LATT -1
SFAC C  
C      1  0.4882160000000  0.4345520000000  0.5090040000000 1.0
C      1  0.4707990000000  0.5189600000000  0.5464820000000 1.0
C      1  0.4947170000000  0.5207280000000  0.4443760000000 1.0
C      1  0.4505080000000  0.5323260000000  0.5356870000000 1.0
C      1  0.5178830000000  0.4927150000000  0.5412770000000 1.0
C      1  0.4411240000000  0.5453250000000  0.4868010000000 1.0
C      1  0.4937770000000  0.5056950000000  0.5471820000000 1.0
C      1  0.4724650000000  0.4141920000000  0.5048840000000 1.0
C      1  0.4264880000000  0.5323430000000  0.4653180000000 1.0
C      1  0.4385130000000  0.5426550000000  0.5142580000000 1.0
C      1  0.5663840000000  0.4821380000000  0.5018230000000 1.0
C      1  0.5390400000000  0.4853210000000  0.4971190000000 1.0
C      1  0.4708410000000  0.5334490000000  0.4501970000000 1.0
C      1  0.6172820000000  0.4761770000000  0.5135100000000 1.0
C      1  0.5202340000000  0.4778110000000  0.5171280000000 1.0
C      1  0.5920700000000  0.4791250000000  0.5075710000000 1.0
C      1  0.4434950000000  0.5255100000000  0.4443980000000 1.0
C      1  0.4674980000000  0.5491910000000  0.4746380000000 1.0
C      1  0.5041410000000  0.4553120000000  0.5131550000000 1.0
C      1  0.5155480000000  0.5071190000000  0.4537580000000 1.0
C      1  0.5301290000000  0.4954150000000  0.4726000000000 1.0
C      1  0.5388470000000  0.4939400000000  0.5588350000000 1.0
END
