TITL C-612605-9286-969 -0.0172206423715027 125000 -308.293707693366 0 0 52 (C1) n - 1
REM
REM in /home/nfs/bkarasulu/CARBON/AIRSS/Generating-Clusters/TERSOFF/Only-C1/FIRE-HFTN
REM
REM
REM
REM
REM
REM ./C.cell (11c1c37f851c82e70ff6c80c92926a4b)
REM AIRSS Version 0.9.1 bugfix July 2018 build 013d7b7c2542+ Fri, 06 Jul 2018 19:26:36 +0100
REM compiler GCC version 9.2.1 20190827 (Red Hat 9.2.1-1)
REM options -cpp -mtune=generic -march=x86-64 -g -O0 -fpre-include=/usr/include/finclude/math-vector-fortran.h
REM seed -377777832 168030882 -1232430086 1671029180 1665259247 1003689891 -772661761 1746017532 -1231083738 -1926835024 -945025494 -403118574 1568929738 -352288218 -300839585 -1799518794 1285954519 258666471 253052729 1839113478 1768821673 -2118365677 886557700 -1373797383 556245803 1316606272 -164976128 -1817717977 819874413 260833525 -1357909919 -2016573632 759341370
REM
CELL 1.54180   50.00000   50.00000   50.00000   90.00000   90.00000   90.00000
LATT -1
SFAC C  
C      1  0.5004070000000  0.4934270000000  0.5453660000000 1.0
C      1  0.5034120000000  0.5370530000000  0.4650640000000 1.0
C      1  0.5821670000000  0.4993570000000  0.5308060000000 1.0
C      1  0.4759350000000  0.5735020000000  0.5364330000000 1.0
C      1  0.4310570000000  0.4879210000000  0.4664820000000 1.0
C      1  0.5415670000000  0.5063330000000  0.5597610000000 1.0
C      1  0.5097090000000  0.5966640000000  0.4963620000000 1.0
C      1  0.5089400000000  0.5414220000000  0.5475290000000 1.0
C      1  0.4666650000000  0.4454130000000  0.5444530000000 1.0
C      1  0.5014990000000  0.4587030000000  0.5099550000000 1.0
C      1  0.5421030000000  0.5615020000000  0.5047390000000 1.0
C      1  0.5878460000000  0.4530670000000  0.4407120000000 1.0
C      1  0.5104370000000  0.4444580000000  0.4864980000000 1.0
C      1  0.4933190000000  0.4221550000000  0.4799180000000 1.0
C      1  0.4790720000000  0.4429410000000  0.5198110000000 1.0
C      1  0.5946140000000  0.5159470000000  0.5135120000000 1.0
C      1  0.5356800000000  0.4953850000000  0.5132680000000 1.0
C      1  0.5032550000000  0.5660820000000  0.5343180000000 1.0
C      1  0.4722180000000  0.4229140000000  0.4998290000000 1.0
C      1  0.5370510000000  0.5146810000000  0.4921030000000 1.0
C      1  0.4129300000000  0.4525900000000  0.4937610000000 1.0
C      1  0.4963970000000  0.4042640000000  0.4591470000000 1.0
C      1  0.5653070000000  0.4660720000000  0.4422620000000 1.0
C      1  0.5159460000000  0.6228340000000  0.5012110000000 1.0
C      1  0.4566020000000  0.5546670000000  0.5389990000000 1.0
C      1  0.4949020000000  0.5621900000000  0.4656110000000 1.0
C      1  0.4221120000000  0.4790070000000  0.4914700000000 1.0
C      1  0.4457040000000  0.4150660000000  0.4963750000000 1.0
C      1  0.4617930000000  0.5267480000000  0.5395640000000 1.0
C      1  0.5545570000000  0.4976240000000  0.5355770000000 1.0
C      1  0.4890490000000  0.5198040000000  0.5447360000000 1.0
C      1  0.5195650000000  0.5759120000000  0.5132350000000 1.0
C      1  0.4767810000000  0.6066550000000  0.4618890000000 1.0
C      1  0.4990090000000  0.3877090000000  0.4391900000000 1.0
C      1  0.5424920000000  0.4792890000000  0.4448380000000 1.0
C      1  0.4647210000000  0.4832450000000  0.4013430000000 1.0
C      1  0.5108520000000  0.4826390000000  0.5206760000000 1.0
C      1  0.5165640000000  0.4734790000000  0.5890250000000 1.0
C      1  0.4220670000000  0.4274920000000  0.4946800000000 1.0
C      1  0.4934930000000  0.5888590000000  0.4741970000000 1.0
C      1  0.4473590000000  0.4897840000000  0.4456500000000 1.0
C      1  0.4949650000000  0.4865910000000  0.4384920000000 1.0
C      1  0.4278220000000  0.4941360000000  0.5142880000000 1.0
C      1  0.5539810000000  0.5377380000000  0.4958850000000 1.0
C      1  0.5190820000000  0.4931730000000  0.4510220000000 1.0
C      1  0.5335180000000  0.5338200000000  0.5596980000000 1.0
C      1  0.5192270000000  0.4892920000000  0.5672300000000 1.0
C      1  0.4532830000000  0.4472660000000  0.5667390000000 1.0
C      1  0.5196190000000  0.5146080000000  0.4696190000000 1.0
C      1  0.5818330000000  0.5335100000000  0.4974560000000 1.0
C      1  0.4425530000000  0.5085090000000  0.5310570000000 1.0
C      1  0.4689620000000  0.4865030000000  0.4281590000000 1.0
END
