TITL C-612600-6631-463 3.71107931277849 125000 -953.848333613129 0 0 155 (C1) n - 1
REM
REM in /home/nfs/bkarasulu/CARBON/AIRSS/Generating-Clusters/TERSOFF/Only-C1/FIRE-HFTN
REM
REM
REM
REM
REM
REM ./C.cell (11c1c37f851c82e70ff6c80c92926a4b)
REM AIRSS Version 0.9.1 bugfix July 2018 build 013d7b7c2542+ Fri, 06 Jul 2018 19:26:36 +0100
REM compiler GCC version 9.2.1 20190827 (Red Hat 9.2.1-1)
REM options -cpp -mtune=generic -march=x86-64 -g -O0 -fpre-include=/usr/include/finclude/math-vector-fortran.h
REM seed 1431253455 -483018671 1065536523 852673729 -1105571872 2102036529 718805931 575581777 -592018135 -2144920230 -1342701593 1707990685 -1687863937 65834508 482742800 1082794587 1152103441 -1121059293 679915497 112536109 -1722141414 -649347019 -693057973 -652540527 2110219515 404600860 1984641984 -775425338 1167219250 2083614594 -1600622326 747096718 1774949184
REM
CELL 1.54180   50.00000   50.00000   50.00000   90.00000   90.00000   90.00000
LATT -1
SFAC C  
C      1  0.4008680000000  0.4890720000000  0.5701090000000 1.0
C      1  0.5162140000000  0.4890980000000  0.4064790000000 1.0
C      1  0.4448650000000  0.5735870000000  0.5290820000000 1.0
C      1  0.4828660000000  0.5450620000000  0.5248310000000 1.0
C      1  0.4719700000000  0.5741950000000  0.4273810000000 1.0
C      1  0.3613460000000  0.5154130000000  0.5112920000000 1.0
C      1  0.4772640000000  0.5038090000000  0.4640880000000 1.0
C      1  0.6022660000000  0.4655510000000  0.4968030000000 1.0
C      1  0.4777740000000  0.4599580000000  0.4582740000000 1.0
C      1  0.5342260000000  0.5413520000000  0.5905560000000 1.0
C      1  0.4843420000000  0.5968630000000  0.5776450000000 1.0
C      1  0.5103950000000  0.5321690000000  0.5774340000000 1.0
C      1  0.4944800000000  0.5063880000000  0.4132250000000 1.0
C      1  0.4338850000000  0.5908510000000  0.4820530000000 1.0
C      1  0.4707930000000  0.6039990000000  0.5534930000000 1.0
C      1  0.4220720000000  0.5555380000000  0.4218140000000 1.0
C      1  0.5049450000000  0.5994090000000  0.4581890000000 1.0
C      1  0.4936640000000  0.5564300000000  0.5012360000000 1.0
C      1  0.4845150000000  0.6140850000000  0.5304110000000 1.0
C      1  0.3961620000000  0.4609570000000  0.4686910000000 1.0
C      1  0.3900480000000  0.5695980000000  0.4678950000000 1.0
C      1  0.5155720000000  0.3829450000000  0.5202430000000 1.0
C      1  0.3915000000000  0.4742100000000  0.5227740000000 1.0
C      1  0.6336070000000  0.3878410000000  0.4981760000000 1.0
C      1  0.4944430000000  0.4819930000000  0.4607980000000 1.0
C      1  0.5048550000000  0.4643870000000  0.5009120000000 1.0
C      1  0.4567280000000  0.5476240000000  0.5343140000000 1.0
C      1  0.5622830000000  0.5684420000000  0.4266350000000 1.0
C      1  0.4789200000000  0.4528250000000  0.4066320000000 1.0
C      1  0.5629750000000  0.3804030000000  0.5935860000000 1.0
C      1  0.5992640000000  0.5454550000000  0.4515370000000 1.0
C      1  0.4796710000000  0.4731290000000  0.5422590000000 1.0
C      1  0.4197830000000  0.5347070000000  0.4414480000000 1.0
C      1  0.4188010000000  0.5320290000000  0.5579360000000 1.0
C      1  0.6042490000000  0.5690220000000  0.4669350000000 1.0
C      1  0.5577780000000  0.5819500000000  0.5373210000000 1.0
C      1  0.3939940000000  0.4626890000000  0.4961780000000 1.0
C      1  0.5087470000000  0.4360650000000  0.4992140000000 1.0
C      1  0.5678180000000  0.5904610000000  0.4454460000000 1.0
C      1  0.3658780000000  0.5329980000000  0.4917620000000 1.0
C      1  0.4802780000000  0.4061200000000  0.5445910000000 1.0
C      1  0.5147540000000  0.6108010000000  0.4844250000000 1.0
C      1  0.4090220000000  0.5893290000000  0.4678060000000 1.0
C      1  0.4225750000000  0.5024030000000  0.4863060000000 1.0
C      1  0.5077090000000  0.4612350000000  0.4051880000000 1.0
C      1  0.5038880000000  0.3903850000000  0.5454270000000 1.0
C      1  0.4803850000000  0.4721490000000  0.5134360000000 1.0
C      1  0.5429910000000  0.5389740000000  0.5129990000000 1.0
C      1  0.5845790000000  0.3709490000000  0.6410360000000 1.0
C      1  0.5547570000000  0.4478730000000  0.4128900000000 1.0
C      1  0.5516000000000  0.3853710000000  0.5686130000000 1.0
C      1  0.4821100000000  0.5700590000000  0.5864380000000 1.0
C      1  0.4319250000000  0.5463220000000  0.4942030000000 1.0
C      1  0.5482350000000  0.4487010000000  0.5209450000000 1.0
C      1  0.5432190000000  0.5012450000000  0.4107300000000 1.0
C      1  0.5024610000000  0.5285690000000  0.4303200000000 1.0
C      1  0.4142330000000  0.5586910000000  0.5670850000000 1.0
C      1  0.5218250000000  0.5586340000000  0.4988530000000 1.0
C      1  0.3708940000000  0.4938130000000  0.5237130000000 1.0
C      1  0.4836010000000  0.4087600000000  0.4589340000000 1.0
C      1  0.3787760000000  0.4838670000000  0.5853130000000 1.0
C      1  0.4498700000000  0.4658720000000  0.4594650000000 1.0
C      1  0.4187810000000  0.5104010000000  0.5762180000000 1.0
C      1  0.4924700000000  0.5545150000000  0.4196800000000 1.0
C      1  0.4601570000000  0.4526250000000  0.5502360000000 1.0
C      1  0.4636770000000  0.4271330000000  0.5357170000000 1.0
C      1  0.4982520000000  0.6154510000000  0.5920410000000 1.0
C      1  0.4310150000000  0.5730870000000  0.5049510000000 1.0
C      1  0.5562290000000  0.5247610000000  0.4865500000000 1.0
C      1  0.4969920000000  0.6163860000000  0.5064750000000 1.0
C      1  0.5953860000000  0.3662200000000  0.6647730000000 1.0
C      1  0.4612150000000  0.5885230000000  0.4723940000000 1.0
C      1  0.5223830000000  0.5789370000000  0.4489000000000 1.0
C      1  0.4147910000000  0.4154140000000  0.4809680000000 1.0
C      1  0.5650440000000  0.5561010000000  0.5269870000000 1.0
C      1  0.5232520000000  0.3886350000000  0.5661930000000 1.0
C      1  0.4247380000000  0.5852590000000  0.5694150000000 1.0
C      1  0.4040810000000  0.5229590000000  0.4627800000000 1.0
C      1  0.5766150000000  0.5425500000000  0.4311970000000 1.0
C      1  0.5143750000000  0.5656950000000  0.4050170000000 1.0
C      1  0.5407330000000  0.5365280000000  0.4646890000000 1.0
C      1  0.5420960000000  0.4072880000000  0.4436600000000 1.0
C      1  0.5508730000000  0.6032860000000  0.5198940000000 1.0
C      1  0.4647240000000  0.5244250000000  0.5949630000000 1.0
C      1  0.4775330000000  0.5939310000000  0.4494910000000 1.0
C      1  0.5594370000000  0.5862460000000  0.4752640000000 1.0
C      1  0.4563420000000  0.4049270000000  0.4644970000000 1.0
C      1  0.5518370000000  0.5827270000000  0.5648450000000 1.0
C      1  0.4428010000000  0.4143620000000  0.4895530000000 1.0
C      1  0.5434720000000  0.6060700000000  0.4923080000000 1.0
C      1  0.5752180000000  0.4673900000000  0.4541220000000 1.0
C      1  0.4398940000000  0.4775930000000  0.4839110000000 1.0
C      1  0.5201880000000  0.4928170000000  0.4652740000000 1.0
C      1  0.5636300000000  0.5154040000000  0.5496290000000 1.0
C      1  0.6060160000000  0.3615680000000  0.6881190000000 1.0
C      1  0.4736190000000  0.5628710000000  0.4817590000000 1.0
C      1  0.5207440000000  0.4175130000000  0.4277410000000 1.0
C      1  0.4267630000000  0.5214860000000  0.5080840000000 1.0
C      1  0.6174300000000  0.5058940000000  0.5257850000000 1.0
C      1  0.5359980000000  0.5648330000000  0.4717140000000 1.0
C      1  0.5138320000000  0.5145120000000  0.5546260000000 1.0
C      1  0.5366200000000  0.5189110000000  0.5370140000000 1.0
C      1  0.5076610000000  0.3616670000000  0.5052950000000 1.0
C      1  0.4930990000000  0.4125590000000  0.4322790000000 1.0
C      1  0.3847020000000  0.5417830000000  0.4730840000000 1.0
C      1  0.4852620000000  0.5419910000000  0.5866750000000 1.0
C      1  0.4449220000000  0.5703710000000  0.4181350000000 1.0
C      1  0.6093590000000  0.5307980000000  0.5360830000000 1.0
C      1  0.5772150000000  0.4572440000000  0.4831760000000 1.0
C      1  0.5430720000000  0.5675180000000  0.5850840000000 1.0
C      1  0.5751330000000  0.4258120000000  0.4794260000000 1.0
C      1  0.4353700000000  0.5279530000000  0.5349270000000 1.0
C      1  0.6088960000000  0.3961100000000  0.4984290000000 1.0
C      1  0.4414630000000  0.5109310000000  0.5931410000000 1.0
C      1  0.5272720000000  0.4410770000000  0.4117650000000 1.0
C      1  0.4550660000000  0.4619680000000  0.5032970000000 1.0
C      1  0.5657080000000  0.5075610000000  0.5766360000000 1.0
C      1  0.5305000000000  0.4276470000000  0.5147300000000 1.0
C      1  0.4104280000000  0.4486520000000  0.4458220000000 1.0
C      1  0.4352550000000  0.4619920000000  0.4348210000000 1.0
C      1  0.5214250000000  0.5198100000000  0.4526030000000 1.0
C      1  0.5737750000000  0.3756770000000  0.6173060000000 1.0
C      1  0.4668920000000  0.4981440000000  0.4183080000000 1.0
C      1  0.4365950000000  0.4056080000000  0.4431730000000 1.0
C      1  0.4969710000000  0.4917990000000  0.5537300000000 1.0
C      1  0.4567800000000  0.4708670000000  0.4144200000000 1.0
C      1  0.6022910000000  0.5231350000000  0.4690180000000 1.0
C      1  0.4158610000000  0.6029900000000  0.5881130000000 1.0
C      1  0.4607050000000  0.5111310000000  0.4430180000000 1.0
C      1  0.4327080000000  0.4598290000000  0.5515830000000 1.0
C      1  0.5817660000000  0.5354350000000  0.5391900000000 1.0
C      1  0.6277280000000  0.5498520000000  0.5428400000000 1.0
C      1  0.5369490000000  0.4004820000000  0.5137850000000 1.0
C      1  0.5284130000000  0.4787580000000  0.4894120000000 1.0
C      1  0.5779330000000  0.5102700000000  0.4752800000000 1.0
C      1  0.4462150000000  0.5324500000000  0.4509020000000 1.0
C      1  0.5695670000000  0.4457540000000  0.4366420000000 1.0
C      1  0.4528290000000  0.5443080000000  0.4752270000000 1.0
C      1  0.5343360000000  0.5726540000000  0.4229920000000 1.0
C      1  0.4451810000000  0.5915750000000  0.5503050000000 1.0
C      1  0.4133450000000  0.4204290000000  0.4516830000000 1.0
C      1  0.4762480000000  0.4251680000000  0.4131140000000 1.0
C      1  0.5826390000000  0.4057710000000  0.4988440000000 1.0
C      1  0.5647960000000  0.5129610000000  0.4277840000000 1.0
C      1  0.4988580000000  0.4187210000000  0.4800180000000 1.0
C      1  0.5643110000000  0.3952700000000  0.5184690000000 1.0
C      1  0.5866400000000  0.5793410000000  0.4853440000000 1.0
C      1  0.4079370000000  0.4726840000000  0.5472530000000 1.0
C      1  0.5682980000000  0.3872140000000  0.5453980000000 1.0
C      1  0.6149880000000  0.4829610000000  0.5124740000000 1.0
C      1  0.4526820000000  0.4326910000000  0.5089310000000 1.0
C      1  0.5532280000000  0.5211890000000  0.5964580000000 1.0
C      1  0.5720240000000  0.4952200000000  0.4508550000000 1.0
C      1  0.5648820000000  0.4216040000000  0.4524080000000 1.0
C      1  0.5530570000000  0.4667030000000  0.4990770000000 1.0
END
