TITL C-612607-4507-1179 92511.8972039036 125000 -1042.57746183925 0 0 171 (C1) n - 1
REM
REM in /home/nfs/bkarasulu/CARBON/AIRSS/Generating-Clusters/TERSOFF/Only-C1/FIRE-HFTN
REM
REM
REM
REM
REM
REM ./C.cell (11c1c37f851c82e70ff6c80c92926a4b)
REM AIRSS Version 0.9.1 bugfix July 2018 build 013d7b7c2542+ Fri, 06 Jul 2018 19:26:36 +0100
REM compiler GCC version 9.2.1 20190827 (Red Hat 9.2.1-1)
REM options -cpp -mtune=generic -march=x86-64 -g -O0 -fpre-include=/usr/include/finclude/math-vector-fortran.h
REM seed -792700087 526261036 -1877132362 -485001376 335300663 1193814862 883414524 1949990022 -1122937844 1103153047 1847596213 -841274185 -840271932 -1999397686 -396353273 -1263886528 1955382936 -2052119902 1417933010 -1368233089 -648791768 921350335 962477922 187867719 -74157555 1641271076 -666507001 486646779 1045747649 1884779602 969288333 2014069498 -2038871339
REM
CELL 1.54180   50.00000   50.00000   50.00000   90.00000   90.00000   90.00000
LATT -1
SFAC C  
C      1  0.5126140000000  0.4245670000000  0.4010040000000 1.0
C      1  0.3951180000000  0.3863430000000  0.5371050000000 1.0
C      1  0.4477460000000  0.5703430000000  0.4659220000000 1.0
C      1  0.4416200000000  0.4504730000000  0.4704420000000 1.0
C      1  0.6090020000000  0.5621960000000  0.5088370000000 1.0
C      1  0.4919710000000  0.3898510000000  0.4677550000000 1.0
C      1  0.5371880000000  0.4119580000000  0.4457210000000 1.0
C      1  0.5213770000000  0.4203250000000  0.5223840000000 1.0
C      1  0.4696150000000  0.4258520000000  0.4225970000000 1.0
C      1  0.5330080000000  0.5561150000000  0.4836500000000 1.0
C      1  0.5271040000000  0.6100390000000  0.4622100000000 1.0
C      1  0.6462520000000  0.5113930000000  0.5282120000000 1.0
C      1  0.4867250000000  0.5988730000000  0.4329490000000 1.0
C      1  0.4457490000000  0.5289510000000  0.5997700000000 1.0
C      1  0.4422130000000  0.4309200000000  0.4154410000000 1.0
C      1  0.5240550000000  0.5051320000000  0.5748410000000 1.0
C      1  0.5162280000000  0.5504860000000  0.6074430000000 1.0
C      1  0.5543480000000  0.6161980000000  0.5568800000000 1.0
C      1  0.5406100000000  0.4535670000000  0.4976240000000 1.0
C      1  0.3942910000000  0.5268200000000  0.5338020000000 1.0
C      1  0.4155620000000  0.5413740000000  0.5224340000000 1.0
C      1  0.4030910000000  0.4925180000000  0.4780200000000 1.0
C      1  0.4696040000000  0.4553780000000  0.3877680000000 1.0
C      1  0.5154490000000  0.5488580000000  0.5325950000000 1.0
C      1  0.5173160000000  0.5584230000000  0.5802360000000 1.0
C      1  0.3585670000000  0.5131640000000  0.4708600000000 1.0
C      1  0.5418940000000  0.4436700000000  0.5977720000000 1.0
C      1  0.5123010000000  0.6125350000000  0.5323150000000 1.0
C      1  0.5954030000000  0.5111470000000  0.4677080000000 1.0
C      1  0.5656050000000  0.4578820000000  0.4855590000000 1.0
C      1  0.4098620000000  0.5491490000000  0.4951810000000 1.0
C      1  0.4532720000000  0.5984860000000  0.4663290000000 1.0
C      1  0.5735780000000  0.5140780000000  0.5379560000000 1.0
C      1  0.4602550000000  0.5937710000000  0.5166760000000 1.0
C      1  0.3807080000000  0.5038240000000  0.5327020000000 1.0
C      1  0.6202470000000  0.5187220000000  0.5353990000000 1.0
C      1  0.4901690000000  0.5755680000000  0.4202970000000 1.0
C      1  0.5690580000000  0.6034150000000  0.5748040000000 1.0
C      1  0.5875690000000  0.5118550000000  0.4403180000000 1.0
C      1  0.4799090000000  0.6059840000000  0.4595560000000 1.0
C      1  0.5035460000000  0.6133580000000  0.5050070000000 1.0
C      1  0.5836820000000  0.5763550000000  0.5086440000000 1.0
C      1  0.5005990000000  0.5979490000000  0.5540730000000 1.0
C      1  0.4354410000000  0.5354060000000  0.3756980000000 1.0
C      1  0.4337020000000  0.6169850000000  0.4708910000000 1.0
C      1  0.4566300000000  0.5545590000000  0.4876110000000 1.0
C      1  0.5753650000000  0.5025580000000  0.4856340000000 1.0
C      1  0.6034150000000  0.4492320000000  0.5280140000000 1.0
C      1  0.5638900000000  0.4981810000000  0.4003660000000 1.0
C      1  0.5985930000000  0.4993450000000  0.5348550000000 1.0
C      1  0.4275630000000  0.5107540000000  0.5920340000000 1.0
C      1  0.5689270000000  0.4071740000000  0.4880980000000 1.0
C      1  0.5322880000000  0.5298140000000  0.4433750000000 1.0
C      1  0.5319750000000  0.4291480000000  0.4222140000000 1.0
C      1  0.4485650000000  0.3916430000000  0.5014340000000 1.0
C      1  0.4310430000000  0.4978950000000  0.4714560000000 1.0
C      1  0.4705610000000  0.4622790000000  0.6059800000000 1.0
C      1  0.4950100000000  0.4476610000000  0.6052630000000 1.0
C      1  0.6078790000000  0.5447800000000  0.5323830000000 1.0
C      1  0.5855090000000  0.4583160000000  0.5749520000000 1.0
C      1  0.4966940000000  0.5781430000000  0.5740110000000 1.0
C      1  0.5819250000000  0.4773570000000  0.4963550000000 1.0
C      1  0.4962760000000  0.4319550000000  0.5805060000000 1.0
C      1  0.4222010000000  0.4740390000000  0.4018320000000 1.0
C      1  0.4398290000000  0.4559750000000  0.5205490000000 1.0
C      1  0.3772710000000  0.4531530000000  0.4688130000000 1.0
C      1  0.5416510000000  0.6508420000000  0.5261440000000 1.0
C      1  0.5701290000000  0.4465530000000  0.4597240000000 1.0
C      1  0.5252980000000  0.5329440000000  0.3983420000000 1.0
C      1  0.4915660000000  0.4751620000000  0.5072040000000 1.0
C      1  0.3904510000000  0.4684870000000  0.4876540000000 1.0
C      1  0.5668880000000  0.4633810000000  0.4360100000000 1.0
C      1  0.5156780000000  0.4479000000000  0.4824240000000 1.0
C      1  0.4357770000000  0.5738330000000  0.5513070000000 1.0
C      1  0.4841150000000  0.4484060000000  0.5152700000000 1.0
C      1  0.5481300000000  0.5028700000000  0.5356940000000 1.0
C      1  0.4442170000000  0.5961400000000  0.5383710000000 1.0
C      1  0.5204500000000  0.4623650000000  0.6052450000000 1.0
C      1  0.5533760000000  0.5703390000000  0.4675260000000 1.0
C      1  0.3913200000000  0.3709010000000  0.5577720000000 1.0
C      1  0.3856430000000  0.5145280000000  0.4730380000000 1.0
C      1  0.3926970000000  0.4307790000000  0.5183820000000 1.0
C      1  0.5262380000000  0.4613580000000  0.5484490000000 1.0
C      1  0.4825780000000  0.5466310000000  0.4228220000000 1.0
C      1  0.5976590000000  0.4753840000000  0.5196530000000 1.0
C      1  0.4825920000000  0.4463230000000  0.4382250000000 1.0
C      1  0.4758540000000  0.5142310000000  0.4663680000000 1.0
C      1  0.5155060000000  0.3965960000000  0.4563200000000 1.0
C      1  0.4965580000000  0.5290050000000  0.4014850000000 1.0
C      1  0.4563920000000  0.3967130000000  0.5280400000000 1.0
C      1  0.4626550000000  0.4453230000000  0.5359970000000 1.0
C      1  0.5627820000000  0.5613330000000  0.5222800000000 1.0
C      1  0.4876020000000  0.5554890000000  0.5266470000000 1.0
C      1  0.4718880000000  0.5694220000000  0.5070980000000 1.0
C      1  0.4947600000000  0.4694360000000  0.4251660000000 1.0
C      1  0.4112210000000  0.4954110000000  0.4142130000000 1.0
C      1  0.4830370000000  0.4778240000000  0.4001260000000 1.0
C      1  0.4514210000000  0.5196320000000  0.4846910000000 1.0
C      1  0.4375810000000  0.5568110000000  0.4436980000000 1.0
C      1  0.5659180000000  0.4784640000000  0.5732120000000 1.0
C      1  0.5859400000000  0.4280640000000  0.5363900000000 1.0
C      1  0.5015340000000  0.4536970000000  0.5606780000000 1.0
C      1  0.5353580000000  0.5479320000000  0.4205610000000 1.0
C      1  0.5164150000000  0.5410050000000  0.4648980000000 1.0
C      1  0.5764190000000  0.4332280000000  0.5638340000000 1.0
C      1  0.4777290000000  0.4130620000000  0.5703630000000 1.0
C      1  0.4014760000000  0.4748040000000  0.5626920000000 1.0
C      1  0.5294070000000  0.5019230000000  0.4398240000000 1.0
C      1  0.5384330000000  0.5760580000000  0.4244440000000 1.0
C      1  0.6435160000000  0.5090830000000  0.4801300000000 1.0
C      1  0.4527940000000  0.5483030000000  0.4208710000000 1.0
C      1  0.4148220000000  0.5228500000000  0.4201560000000 1.0
C      1  0.4377190000000  0.4841120000000  0.5204760000000 1.0
C      1  0.4134530000000  0.5405620000000  0.4446560000000 1.0
C      1  0.5756370000000  0.5577940000000  0.4551200000000 1.0
C      1  0.4100200000000  0.3872030000000  0.4718030000000 1.0
C      1  0.4845330000000  0.4298970000000  0.3967240000000 1.0
C      1  0.4494680000000  0.4763280000000  0.4629010000000 1.0
C      1  0.4757960000000  0.5127160000000  0.5276730000000 1.0
C      1  0.5783020000000  0.5421070000000  0.5375420000000 1.0
C      1  0.4389690000000  0.5479020000000  0.5393710000000 1.0
C      1  0.4688650000000  0.3883130000000  0.4816760000000 1.0
C      1  0.5019040000000  0.4292030000000  0.5028760000000 1.0
C      1  0.4974050000000  0.4710420000000  0.4790060000000 1.0
C      1  0.4934240000000  0.5345790000000  0.6144890000000 1.0
C      1  0.3896340000000  0.4589110000000  0.5151330000000 1.0
C      1  0.4025920000000  0.4042220000000  0.5168420000000 1.0
C      1  0.5762210000000  0.4898090000000  0.4253710000000 1.0
C      1  0.5360720000000  0.5562860000000  0.5129160000000 1.0
C      1  0.4773910000000  0.4853360000000  0.4640680000000 1.0
C      1  0.4004140000000  0.5385220000000  0.4700430000000 1.0
C      1  0.4358110000000  0.4432150000000  0.4956140000000 1.0
C      1  0.4688390000000  0.5449430000000  0.6027860000000 1.0
C      1  0.4352800000000  0.5350330000000  0.4027950000000 1.0
C      1  0.5213570000000  0.4767800000000  0.4302350000000 1.0
C      1  0.5407010000000  0.4564690000000  0.4257210000000 1.0
C      1  0.5363160000000  0.6269390000000  0.5383590000000 1.0
C      1  0.5768160000000  0.4113870000000  0.5142500000000 1.0
C      1  0.6198760000000  0.5237230000000  0.4753250000000 1.0
C      1  0.4676190000000  0.5378300000000  0.5387070000000 1.0
C      1  0.5261330000000  0.4011160000000  0.5421540000000 1.0
C      1  0.4532710000000  0.5057350000000  0.5117920000000 1.0
C      1  0.5024920000000  0.6117860000000  0.4765530000000 1.0
C      1  0.4625960000000  0.4169330000000  0.5463920000000 1.0
C      1  0.5836420000000  0.5399840000000  0.4361230000000 1.0
C      1  0.4738950000000  0.4638280000000  0.5573750000000 1.0
C      1  0.5166270000000  0.4918030000000  0.6000510000000 1.0
C      1  0.4407770000000  0.4533690000000  0.3968260000000 1.0
C      1  0.6193550000000  0.5502390000000  0.4856080000000 1.0
C      1  0.5529600000000  0.4244800000000  0.5783170000000 1.0
C      1  0.4612580000000  0.4710630000000  0.5817370000000 1.0
C      1  0.5476010000000  0.5091090000000  0.4907020000000 1.0
C      1  0.5409020000000  0.4858570000000  0.5583010000000 1.0
C      1  0.4999240000000  0.5073120000000  0.6171040000000 1.0
C      1  0.6559260000000  0.5052720000000  0.5037860000000 1.0
C      1  0.5441760000000  0.5134140000000  0.3892980000000 1.0
C      1  0.4728220000000  0.5697300000000  0.5880960000000 1.0
C      1  0.4203300000000  0.3943560000000  0.4961920000000 1.0
C      1  0.5297740000000  0.5054070000000  0.5137190000000 1.0
C      1  0.5413570000000  0.5894300000000  0.4497040000000 1.0
C      1  0.5382660000000  0.4035770000000  0.5662080000000 1.0
C      1  0.5006240000000  0.4998730000000  0.5183600000000 1.0
C      1  0.5823820000000  0.5889210000000  0.5919240000000 1.0
C      1  0.3885250000000  0.4771390000000  0.5374570000000 1.0
C      1  0.5360230000000  0.4461500000000  0.5258590000000 1.0
C      1  0.4135510000000  0.4906430000000  0.5809470000000 1.0
C      1  0.4850070000000  0.5047110000000  0.3930580000000 1.0
C      1  0.5206470000000  0.5373140000000  0.5606060000000 1.0
C      1  0.4900480000000  0.5352800000000  0.4553370000000 1.0
C      1  0.5609130000000  0.4184820000000  0.4621940000000 1.0
C      1  0.6096580000000  0.4614780000000  0.5871770000000 1.0
END
