TITL C-612600-6631-319 5.06555053129321e-05 125000 -368.509226070137 0 0 61 (C1) n - 1
REM
REM in /home/nfs/bkarasulu/CARBON/AIRSS/Generating-Clusters/TERSOFF/Only-C1/FIRE-HFTN
REM
REM
REM
REM
REM
REM ./C.cell (11c1c37f851c82e70ff6c80c92926a4b)
REM AIRSS Version 0.9.1 bugfix July 2018 build 013d7b7c2542+ Fri, 06 Jul 2018 19:26:36 +0100
REM compiler GCC version 9.2.1 20190827 (Red Hat 9.2.1-1)
REM options -cpp -mtune=generic -march=x86-64 -g -O0 -fpre-include=/usr/include/finclude/math-vector-fortran.h
REM seed -1160228301 -1672688864 -334418580 -951558414 1130630535 797305122 206247398 15611928 7010812 -556904454 975962327 770723482 742771488 -449599208 -30049717 -613106395 -776177058 -792521913 -815990260 2105759410 120049134 -428781673 -1015739749 -874379862 -1084560399 -1586716964 894002202 1363440156 1704844516 -946588744 -174712489 -1787487862 -384045489
REM
CELL 1.54180   50.00000   50.00000   50.00000   90.00000   90.00000   90.00000
LATT -1
SFAC C  
C      1  0.5241690000000  0.5684420000000  0.4916800000000 1.0
C      1  0.4724800000000  0.5007210000000  0.5559180000000 1.0
C      1  0.4982340000000  0.4719350000000  0.4504910000000 1.0
C      1  0.4776150000000  0.4959120000000  0.5286720000000 1.0
C      1  0.5617170000000  0.4892660000000  0.5059130000000 1.0
C      1  0.4573990000000  0.5384390000000  0.5842040000000 1.0
C      1  0.5502950000000  0.5666970000000  0.4814480000000 1.0
C      1  0.4294460000000  0.4906180000000  0.5062090000000 1.0
C      1  0.5171740000000  0.5494000000000  0.5109360000000 1.0
C      1  0.5043020000000  0.5828350000000  0.4781740000000 1.0
C      1  0.4898190000000  0.5538080000000  0.6200760000000 1.0
C      1  0.5301930000000  0.4145740000000  0.4336500000000 1.0
C      1  0.4714500000000  0.4983580000000  0.4843550000000 1.0
C      1  0.5532370000000  0.4746190000000  0.5560670000000 1.0
C      1  0.5815160000000  0.5298050000000  0.4844630000000 1.0
C      1  0.4737650000000  0.4532370000000  0.5611410000000 1.0
C      1  0.5323290000000  0.5280790000000  0.5505980000000 1.0
C      1  0.5812290000000  0.5089380000000  0.5015720000000 1.0
C      1  0.5180780000000  0.5261830000000  0.5265690000000 1.0
C      1  0.5214110000000  0.3928370000000  0.4462840000000 1.0
C      1  0.4851310000000  0.5814550000000  0.4596420000000 1.0
C      1  0.4640420000000  0.4955740000000  0.4154390000000 1.0
C      1  0.4770360000000  0.4304360000000  0.5122180000000 1.0
C      1  0.5644670000000  0.5458750000000  0.4687400000000 1.0
C      1  0.5409540000000  0.4893660000000  0.4852530000000 1.0
C      1  0.4573010000000  0.4907680000000  0.5092500000000 1.0
C      1  0.5078050000000  0.3824150000000  0.4666690000000 1.0
C      1  0.4334950000000  0.5216140000000  0.4424200000000 1.0
C      1  0.5163130000000  0.5529280000000  0.6169070000000 1.0
C      1  0.4824080000000  0.4785280000000  0.5712000000000 1.0
C      1  0.4631050000000  0.5422140000000  0.5076060000000 1.0
C      1  0.5347080000000  0.4767800000000  0.5755570000000 1.0
C      1  0.5396980000000  0.5369760000000  0.5745220000000 1.0
C      1  0.4912340000000  0.4751120000000  0.4794130000000 1.0
C      1  0.5535280000000  0.5374400000000  0.4441400000000 1.0
C      1  0.4673020000000  0.5481540000000  0.6069300000000 1.0
C      1  0.5052380000000  0.5337750000000  0.4242460000000 1.0
C      1  0.5041020000000  0.5024930000000  0.5188450000000 1.0
C      1  0.5317610000000  0.4411340000000  0.4325620000000 1.0
C      1  0.4739480000000  0.5653930000000  0.4414230000000 1.0
C      1  0.4588840000000  0.5418670000000  0.5345100000000 1.0
C      1  0.4176350000000  0.5129100000000  0.4621720000000 1.0
C      1  0.5268950000000  0.4611840000000  0.5182230000000 1.0
C      1  0.4147710000000  0.5006070000000  0.4858610000000 1.0
C      1  0.4616080000000  0.5270720000000  0.5591450000000 1.0
C      1  0.5314330000000  0.5336590000000  0.4295170000000 1.0
C      1  0.4576280000000  0.5204940000000  0.4278510000000 1.0
C      1  0.4797670000000  0.4778900000000  0.4304170000000 1.0
C      1  0.4553490000000  0.4895270000000  0.3902850000000 1.0
C      1  0.4781930000000  0.5402560000000  0.4295290000000 1.0
C      1  0.5086670000000  0.4794450000000  0.5817580000000 1.0
C      1  0.5525040000000  0.4721320000000  0.5280730000000 1.0
C      1  0.4706260000000  0.5271540000000  0.4858740000000 1.0
C      1  0.5439530000000  0.4811660000000  0.4585910000000 1.0
C      1  0.5253340000000  0.4655120000000  0.4444750000000 1.0
C      1  0.4801000000000  0.4494750000000  0.4914840000000 1.0
C      1  0.5349070000000  0.5462360000000  0.5990030000000 1.0
C      1  0.5148430000000  0.4820440000000  0.4988050000000 1.0
C      1  0.4818860000000  0.4036550000000  0.5054540000000 1.0
C      1  0.4932490000000  0.3864440000000  0.4886040000000 1.0
C      1  0.4723330000000  0.4381390000000  0.5389670000000 1.0
END
