TITL C-612604-1799-64 0.38521889995564 125000 -653.896043204251 0 0 109 (C1) n - 1
REM
REM in /home/nfs/bkarasulu/CARBON/AIRSS/Generating-Clusters/TERSOFF/Only-C1/FIRE-HFTN
REM
REM
REM
REM
REM
REM ./C.cell (11c1c37f851c82e70ff6c80c92926a4b)
REM AIRSS Version 0.9.1 bugfix July 2018 build 013d7b7c2542+ Fri, 06 Jul 2018 19:26:36 +0100
REM compiler GCC version 9.2.1 20190827 (Red Hat 9.2.1-1)
REM options -cpp -mtune=generic -march=x86-64 -g -O0 -fpre-include=/usr/include/finclude/math-vector-fortran.h
REM seed -1911641356 -1800680185 -883747642 -1673720106 403329869 568136704 1830900540 -294115175 -1123874126 593244392 2027866988 -1807830726 1307402852 1907024032 82941890 -1135269309 -1570506474 1955936069 1413263306 -678885236 328541604 1025486768 1427417575 131396881 -1201221415 -734438273 537345342 236898989 548774419 1448781340 -1621338686 477021915 1628032006
REM
CELL 1.54180   50.00000   50.00000   50.00000   90.00000   90.00000   90.00000
LATT -1
SFAC C  
C      1  0.3889120000000  0.5323660000000  0.4842050000000 1.0
C      1  0.4896180000000  0.5129470000000  0.5848500000000 1.0
C      1  0.5326800000000  0.4863410000000  0.4543120000000 1.0
C      1  0.5807200000000  0.5093190000000  0.4478690000000 1.0
C      1  0.4681830000000  0.5189680000000  0.4973650000000 1.0
C      1  0.4229130000000  0.4796210000000  0.4414060000000 1.0
C      1  0.4998840000000  0.5795200000000  0.4548600000000 1.0
C      1  0.4116650000000  0.5059820000000  0.4434040000000 1.0
C      1  0.5206090000000  0.4696200000000  0.5795100000000 1.0
C      1  0.5401530000000  0.4952490000000  0.4283410000000 1.0
C      1  0.5265180000000  0.5821020000000  0.5600950000000 1.0
C      1  0.6044510000000  0.5093640000000  0.5449490000000 1.0
C      1  0.5416340000000  0.5745260000000  0.5366340000000 1.0
C      1  0.4122710000000  0.5022920000000  0.5429200000000 1.0
C      1  0.4592880000000  0.5552020000000  0.5826550000000 1.0
C      1  0.5595980000000  0.5335900000000  0.5105790000000 1.0
C      1  0.5404860000000  0.4280030000000  0.5532730000000 1.0
C      1  0.4556610000000  0.5267240000000  0.4356650000000 1.0
C      1  0.4131300000000  0.4161580000000  0.5154810000000 1.0
C      1  0.5461490000000  0.5278530000000  0.5560140000000 1.0
C      1  0.4058190000000  0.4751980000000  0.5386870000000 1.0
C      1  0.5840710000000  0.5085670000000  0.5927260000000 1.0
C      1  0.5824070000000  0.4312870000000  0.4895760000000 1.0
C      1  0.5422030000000  0.5663460000000  0.4298170000000 1.0
C      1  0.5455800000000  0.5758550000000  0.4875040000000 1.0
C      1  0.5066450000000  0.5930660000000  0.5025570000000 1.0
C      1  0.5743920000000  0.5020610000000  0.4752630000000 1.0
C      1  0.4984700000000  0.5798320000000  0.5643140000000 1.0
C      1  0.4265830000000  0.5268910000000  0.4311860000000 1.0
C      1  0.5250340000000  0.4431180000000  0.5696030000000 1.0
C      1  0.6050200000000  0.4745990000000  0.5109720000000 1.0
C      1  0.4397710000000  0.4218550000000  0.5254650000000 1.0
C      1  0.5017990000000  0.4519730000000  0.4059880000000 1.0
C      1  0.5732710000000  0.4627540000000  0.4261510000000 1.0
C      1  0.5689040000000  0.4908100000000  0.4284360000000 1.0
C      1  0.5442300000000  0.4854490000000  0.5777210000000 1.0
C      1  0.5355390000000  0.5890020000000  0.5113880000000 1.0
C      1  0.4892240000000  0.5543620000000  0.5211400000000 1.0
C      1  0.4758700000000  0.5430820000000  0.4784650000000 1.0
C      1  0.4830880000000  0.4288830000000  0.4470190000000 1.0
C      1  0.5507840000000  0.4846760000000  0.4768090000000 1.0
C      1  0.5210140000000  0.5076440000000  0.4989220000000 1.0
C      1  0.4958430000000  0.5031580000000  0.5345240000000 1.0
C      1  0.4853640000000  0.5744160000000  0.5400000000000 1.0
C      1  0.4550730000000  0.4164820000000  0.5015510000000 1.0
C      1  0.4981910000000  0.5092210000000  0.4094250000000 1.0
C      1  0.4576980000000  0.5246930000000  0.5465480000000 1.0
C      1  0.4158190000000  0.4497150000000  0.5792780000000 1.0
C      1  0.3934610000000  0.5477530000000  0.5060060000000 1.0
C      1  0.5530130000000  0.5468680000000  0.5358530000000 1.0
C      1  0.5473040000000  0.4822760000000  0.5280710000000 1.0
C      1  0.5377750000000  0.4850990000000  0.5020960000000 1.0
C      1  0.4814220000000  0.5732710000000  0.5860910000000 1.0
C      1  0.5807660000000  0.5370160000000  0.4416260000000 1.0
C      1  0.5398950000000  0.5292340000000  0.5851110000000 1.0
C      1  0.4399040000000  0.5668280000000  0.4508840000000 1.0
C      1  0.4029720000000  0.5591340000000  0.5286470000000 1.0
C      1  0.5618950000000  0.4405160000000  0.4402300000000 1.0
C      1  0.4253590000000  0.4966080000000  0.4896890000000 1.0
C      1  0.4822500000000  0.4186970000000  0.5037030000000 1.0
C      1  0.5658650000000  0.5608390000000  0.4445370000000 1.0
C      1  0.5386510000000  0.5136590000000  0.3834410000000 1.0
C      1  0.4952730000000  0.4846850000000  0.5761900000000 1.0
C      1  0.5805850000000  0.5155160000000  0.5009240000000 1.0
C      1  0.4672190000000  0.4644600000000  0.5344030000000 1.0
C      1  0.4198150000000  0.5549070000000  0.4358690000000 1.0
C      1  0.4410370000000  0.4594760000000  0.4430850000000 1.0
C      1  0.4798920000000  0.5265070000000  0.5255880000000 1.0
C      1  0.5335510000000  0.4322580000000  0.4409550000000 1.0
C      1  0.3964350000000  0.4526060000000  0.4918310000000 1.0
C      1  0.4549920000000  0.4371220000000  0.4548240000000 1.0
C      1  0.4389260000000  0.5146750000000  0.5047000000000 1.0
C      1  0.5361280000000  0.4227610000000  0.4887750000000 1.0
C      1  0.5254490000000  0.5544500000000  0.4849200000000 1.0
C      1  0.5557550000000  0.4205930000000  0.5321920000000 1.0
C      1  0.4121710000000  0.4291460000000  0.4886720000000 1.0
C      1  0.4746750000000  0.5136500000000  0.4205820000000 1.0
C      1  0.3930350000000  0.4669520000000  0.5146900000000 1.0
C      1  0.6007670000000  0.5101890000000  0.5715400000000 1.0
C      1  0.4449190000000  0.4465090000000  0.5400520000000 1.0
C      1  0.4666920000000  0.5285080000000  0.5737460000000 1.0
C      1  0.4340430000000  0.5167310000000  0.5329880000000 1.0
C      1  0.5257320000000  0.5060060000000  0.4069950000000 1.0
C      1  0.5125610000000  0.5283160000000  0.5926930000000 1.0
C      1  0.5517660000000  0.5214280000000  0.3623040000000 1.0
C      1  0.4342670000000  0.5643470000000  0.5717940000000 1.0
C      1  0.5265290000000  0.4138620000000  0.4634490000000 1.0
C      1  0.4770310000000  0.4658770000000  0.5069560000000 1.0
C      1  0.5666550000000  0.5751500000000  0.4691650000000 1.0
C      1  0.4219080000000  0.4568380000000  0.5536410000000 1.0
C      1  0.5984320000000  0.5011520000000  0.5185890000000 1.0
C      1  0.5788550000000  0.4308450000000  0.4612900000000 1.0
C      1  0.4981680000000  0.4075880000000  0.4606330000000 1.0
C      1  0.4936520000000  0.4440830000000  0.5015630000000 1.0
C      1  0.4966760000000  0.5637250000000  0.4920050000000 1.0
C      1  0.5994770000000  0.4501770000000  0.5015390000000 1.0
C      1  0.4403560000000  0.4255110000000  0.4776950000000 1.0
C      1  0.5173860000000  0.5746630000000  0.4363660000000 1.0
C      1  0.5600740000000  0.4205620000000  0.5039860000000 1.0
C      1  0.4163200000000  0.5649060000000  0.5514830000000 1.0
C      1  0.5058130000000  0.4406820000000  0.4303910000000 1.0
C      1  0.5474030000000  0.4980610000000  0.5511570000000 1.0
C      1  0.5205660000000  0.4439950000000  0.4981480000000 1.0
C      1  0.4762990000000  0.4899600000000  0.4915700000000 1.0
C      1  0.5559220000000  0.5061390000000  0.5947900000000 1.0
C      1  0.4614860000000  0.5478660000000  0.4551300000000 1.0
C      1  0.3931690000000  0.5156750000000  0.4631900000000 1.0
C      1  0.4844510000000  0.4811600000000  0.5498670000000 1.0
C      1  0.5349250000000  0.5311820000000  0.4956790000000 1.0
END
