TITL C-612607-4507-204 -12092.6425545826 125000 -1009.85545556062 0 0 166 (C1) n - 1
REM
REM in /home/nfs/bkarasulu/CARBON/AIRSS/Generating-Clusters/TERSOFF/Only-C1/FIRE-HFTN
REM
REM
REM
REM
REM
REM ./C.cell (11c1c37f851c82e70ff6c80c92926a4b)
REM AIRSS Version 0.9.1 bugfix July 2018 build 013d7b7c2542+ Fri, 06 Jul 2018 19:26:36 +0100
REM compiler GCC version 9.2.1 20190827 (Red Hat 9.2.1-1)
REM options -cpp -mtune=generic -march=x86-64 -g -O0 -fpre-include=/usr/include/finclude/math-vector-fortran.h
REM seed -441976289 846600515 1268188344 -660525734 582886212 -1342468550 631989545 -678552590 436248119 -1955183548 918043935 -1155189093 1398100410 125052843 287477701 -1261603008 -235805611 -1700964522 -949105586 -819029951 -1028241520 -213677996 -1993128292 -1776391512 -989796160 415514767 -183077409 -1768491781 915251764 -1397994486 749388209 -260544728 1270291768
REM
CELL 1.54180   50.00000   50.00000   50.00000   90.00000   90.00000   90.00000
LATT -1
SFAC C  
C      1  0.4547670000000  0.6008050000000  0.5086140000000 1.0
C      1  0.5146340000000  0.4659540000000  0.3803160000000 1.0
C      1  0.3838820000000  0.5578350000000  0.4915380000000 1.0
C      1  0.5159250000000  0.4437350000000  0.4961860000000 1.0
C      1  0.5380850000000  0.5379000000000  0.3702450000000 1.0
C      1  0.4698380000000  0.4966550000000  0.3893260000000 1.0
C      1  0.5759430000000  0.5415610000000  0.5503460000000 1.0
C      1  0.4451210000000  0.4823810000000  0.3965320000000 1.0
C      1  0.3908060000000  0.4669580000000  0.5355360000000 1.0
C      1  0.5671820000000  0.5813380000000  0.5255100000000 1.0
C      1  0.5008000000000  0.5610650000000  0.5927480000000 1.0
C      1  0.4169430000000  0.5934930000000  0.4747170000000 1.0
C      1  0.4490350000000  0.5692360000000  0.4465610000000 1.0
C      1  0.4508420000000  0.4287390000000  0.4995020000000 1.0
C      1  0.5102950000000  0.4142890000000  0.5726860000000 1.0
C      1  0.5202130000000  0.4884090000000  0.4945120000000 1.0
C      1  0.5199840000000  0.4382640000000  0.3856280000000 1.0
C      1  0.4774270000000  0.4375720000000  0.6032300000000 1.0
C      1  0.5298620000000  0.6009050000000  0.4426250000000 1.0
C      1  0.6271050000000  0.4689690000000  0.5157230000000 1.0
C      1  0.5863410000000  0.4526230000000  0.4233110000000 1.0
C      1  0.5004300000000  0.3836280000000  0.5393900000000 1.0
C      1  0.4748910000000  0.4818860000000  0.4975630000000 1.0
C      1  0.4658590000000  0.4666490000000  0.4735980000000 1.0
C      1  0.5081400000000  0.4298830000000  0.4730490000000 1.0
C      1  0.4118240000000  0.5834410000000  0.5206120000000 1.0
C      1  0.4585500000000  0.5567620000000  0.4702780000000 1.0
C      1  0.4699350000000  0.5487130000000  0.4062920000000 1.0
C      1  0.5012030000000  0.6045580000000  0.4486520000000 1.0
C      1  0.4200210000000  0.4973670000000  0.4868670000000 1.0
C      1  0.5023850000000  0.5244770000000  0.4778890000000 1.0
C      1  0.4130900000000  0.4579050000000  0.5512400000000 1.0
C      1  0.4261670000000  0.5587110000000  0.5838450000000 1.0
C      1  0.5495250000000  0.6007230000000  0.5366340000000 1.0
C      1  0.4995270000000  0.4680440000000  0.5032740000000 1.0
C      1  0.3771120000000  0.4487940000000  0.5192920000000 1.0
C      1  0.5213420000000  0.5950910000000  0.5362430000000 1.0
C      1  0.4329360000000  0.4368460000000  0.5472160000000 1.0
C      1  0.4496480000000  0.3861140000000  0.4705430000000 1.0
C      1  0.3817510000000  0.4944340000000  0.5368730000000 1.0
C      1  0.4936760000000  0.6104630000000  0.6130180000000 1.0
C      1  0.5279090000000  0.3912410000000  0.5342360000000 1.0
C      1  0.5622390000000  0.3909320000000  0.4920480000000 1.0
C      1  0.5380590000000  0.4972990000000  0.5349730000000 1.0
C      1  0.4325350000000  0.5230180000000  0.4976610000000 1.0
C      1  0.3797720000000  0.5073730000000  0.5618230000000 1.0
C      1  0.4855650000000  0.5913700000000  0.4282370000000 1.0
C      1  0.5153190000000  0.4602270000000  0.5891360000000 1.0
C      1  0.5620300000000  0.4188590000000  0.5574480000000 1.0
C      1  0.5392980000000  0.4515650000000  0.5122730000000 1.0
C      1  0.4458870000000  0.5553790000000  0.5393570000000 1.0
C      1  0.4795330000000  0.4557570000000  0.4107400000000 1.0
C      1  0.5977840000000  0.5241410000000  0.5556640000000 1.0
C      1  0.5557090000000  0.4647610000000  0.6247340000000 1.0
C      1  0.3761050000000  0.5335930000000  0.5001460000000 1.0
C      1  0.4027970000000  0.5461630000000  0.5869670000000 1.0
C      1  0.4293590000000  0.4740520000000  0.5007210000000 1.0
C      1  0.5381290000000  0.4619930000000  0.6056770000000 1.0
C      1  0.4540710000000  0.4355720000000  0.5273330000000 1.0
C      1  0.5772810000000  0.4291330000000  0.5787670000000 1.0
C      1  0.4533010000000  0.4455410000000  0.5912460000000 1.0
C      1  0.4626800000000  0.3799030000000  0.4468540000000 1.0
C      1  0.5483550000000  0.5762960000000  0.3986270000000 1.0
C      1  0.5999540000000  0.4436880000000  0.5782030000000 1.0
C      1  0.5167980000000  0.4426450000000  0.4486030000000 1.0
C      1  0.4443770000000  0.4257470000000  0.5716590000000 1.0
C      1  0.4671910000000  0.5702930000000  0.4248070000000 1.0
C      1  0.4883990000000  0.3974700000000  0.5617040000000 1.0
C      1  0.5011160000000  0.4637520000000  0.5334040000000 1.0
C      1  0.5301750000000  0.5126780000000  0.4407980000000 1.0
C      1  0.4404520000000  0.4515860000000  0.4822970000000 1.0
C      1  0.4593590000000  0.5256490000000  0.6278360000000 1.0
C      1  0.4469670000000  0.5321500000000  0.4738240000000 1.0
C      1  0.5850090000000  0.4815750000000  0.5007870000000 1.0
C      1  0.4237250000000  0.5815150000000  0.4498330000000 1.0
C      1  0.4188810000000  0.4732860000000  0.5745540000000 1.0
C      1  0.4793420000000  0.4456850000000  0.5375900000000 1.0
C      1  0.4759460000000  0.5622680000000  0.4911980000000 1.0
C      1  0.5218220000000  0.5816650000000  0.3583770000000 1.0
C      1  0.4333360000000  0.4461130000000  0.4305590000000 1.0
C      1  0.5437490000000  0.3869080000000  0.5113030000000 1.0
C      1  0.5590350000000  0.6239350000000  0.5474810000000 1.0
C      1  0.4796290000000  0.4745280000000  0.4508100000000 1.0
C      1  0.5400130000000  0.5121820000000  0.5585970000000 1.0
C      1  0.5551570000000  0.4647050000000  0.4685370000000 1.0
C      1  0.5584520000000  0.5100240000000  0.4469770000000 1.0
C      1  0.5757300000000  0.5477100000000  0.4738660000000 1.0
C      1  0.4548280000000  0.5027580000000  0.5370750000000 1.0
C      1  0.5817170000000  0.5378250000000  0.5005780000000 1.0
C      1  0.4827200000000  0.5101730000000  0.4924310000000 1.0
C      1  0.4259810000000  0.4969110000000  0.4578680000000 1.0
C      1  0.4720290000000  0.5245570000000  0.3941460000000 1.0
C      1  0.4501240000000  0.5124440000000  0.4526970000000 1.0
C      1  0.3665410000000  0.4318440000000  0.5025590000000 1.0
C      1  0.4498840000000  0.5567800000000  0.5686250000000 1.0
C      1  0.3762390000000  0.5108300000000  0.5143970000000 1.0
C      1  0.6142220000000  0.5037930000000  0.5494490000000 1.0
C      1  0.5071660000000  0.5999170000000  0.5118310000000 1.0
C      1  0.5032580000000  0.5165620000000  0.4503240000000 1.0
C      1  0.4438040000000  0.4729730000000  0.5881260000000 1.0
C      1  0.4567430000000  0.6229870000000  0.4660770000000 1.0
C      1  0.5176910000000  0.5807540000000  0.4944150000000 1.0
C      1  0.4846560000000  0.6157250000000  0.4710650000000 1.0
C      1  0.5362070000000  0.5957860000000  0.4151380000000 1.0
C      1  0.5253670000000  0.5328580000000  0.4934710000000 1.0
C      1  0.5320750000000  0.4855980000000  0.3708130000000 1.0
C      1  0.5451340000000  0.4451250000000  0.4489950000000 1.0
C      1  0.6217410000000  0.4771430000000  0.5428940000000 1.0
C      1  0.5701630000000  0.4335400000000  0.4388560000000 1.0
C      1  0.5805950000000  0.4038390000000  0.4769410000000 1.0
C      1  0.6100370000000  0.4677730000000  0.4927460000000 1.0
C      1  0.5504620000000  0.5915200000000  0.4599070000000 1.0
C      1  0.4829540000000  0.6092680000000  0.5009430000000 1.0
C      1  0.5941630000000  0.4710340000000  0.4449050000000 1.0
C      1  0.4614520000000  0.4028440000000  0.5683660000000 1.0
C      1  0.6167910000000  0.4579570000000  0.5630330000000 1.0
C      1  0.4273560000000  0.4438950000000  0.4568050000000 1.0
C      1  0.4946080000000  0.4560370000000  0.4352320000000 1.0
C      1  0.4972690000000  0.5488130000000  0.5395790000000 1.0
C      1  0.5270460000000  0.5480160000000  0.5905300000000 1.0
C      1  0.5357760000000  0.5654810000000  0.3754610000000 1.0
C      1  0.4385290000000  0.6101990000000  0.4846680000000 1.0
C      1  0.5327000000000  0.5097250000000  0.5092830000000 1.0
C      1  0.4426590000000  0.5280920000000  0.5259800000000 1.0
C      1  0.5257590000000  0.5222550000000  0.6019640000000 1.0
C      1  0.5920720000000  0.4531960000000  0.3969220000000 1.0
C      1  0.5844850000000  0.5095720000000  0.5033250000000 1.0
C      1  0.5059620000000  0.4841720000000  0.5769070000000 1.0
C      1  0.5504730000000  0.5383340000000  0.5633720000000 1.0
C      1  0.5644480000000  0.4584530000000  0.4981690000000 1.0
C      1  0.5889670000000  0.4264620000000  0.4618270000000 1.0
C      1  0.4974820000000  0.5862920000000  0.6040590000000 1.0
C      1  0.4773770000000  0.5026430000000  0.4453470000000 1.0
C      1  0.5386520000000  0.5113390000000  0.3683720000000 1.0
C      1  0.5250400000000  0.5034590000000  0.5809240000000 1.0
C      1  0.5335180000000  0.5592170000000  0.4888750000000 1.0
C      1  0.4500540000000  0.4577850000000  0.4113590000000 1.0
C      1  0.6052070000000  0.4531860000000  0.4674040000000 1.0
C      1  0.4877330000000  0.5297830000000  0.5588290000000 1.0
C      1  0.5703020000000  0.4854540000000  0.4542630000000 1.0
C      1  0.5351470000000  0.4091870000000  0.5570110000000 1.0
C      1  0.4882190000000  0.4106070000000  0.4693040000000 1.0
C      1  0.4524060000000  0.4819830000000  0.5177090000000 1.0
C      1  0.4753950000000  0.5447730000000  0.5827930000000 1.0
C      1  0.4636830000000  0.5222490000000  0.6012210000000 1.0
C      1  0.4009920000000  0.5800390000000  0.4945550000000 1.0
C      1  0.5754920000000  0.5330710000000  0.4492060000000 1.0
C      1  0.5302550000000  0.4685330000000  0.5356030000000 1.0
C      1  0.3865120000000  0.5267000000000  0.5788540000000 1.0
C      1  0.5717680000000  0.5637480000000  0.4079280000000 1.0
C      1  0.4765640000000  0.5008040000000  0.5613370000000 1.0
C      1  0.5021350000000  0.4357230000000  0.5896210000000 1.0
C      1  0.5759840000000  0.4210810000000  0.5327770000000 1.0
C      1  0.4400480000000  0.5808950000000  0.5253500000000 1.0
C      1  0.4630680000000  0.4075420000000  0.4848280000000 1.0
C      1  0.5812370000000  0.4358740000000  0.5110130000000 1.0
C      1  0.4898400000000  0.4747570000000  0.3908550000000 1.0
C      1  0.5764350000000  0.5545320000000  0.5245130000000 1.0
C      1  0.4852830000000  0.5526010000000  0.5144750000000 1.0
C      1  0.5129800000000  0.4162520000000  0.3999520000000 1.0
C      1  0.5557860000000  0.5675470000000  0.4738760000000 1.0
C      1  0.4589320000000  0.4975290000000  0.5863330000000 1.0
C      1  0.5125030000000  0.5711890000000  0.5482850000000 1.0
C      1  0.5009020000000  0.4019360000000  0.4195540000000 1.0
C      1  0.5822670000000  0.5468100000000  0.4256730000000 1.0
C      1  0.4865780000000  0.3959610000000  0.4432180000000 1.0
END
