TITL C-612605-9286-1023 145.852936332501 125000 -948.422298213635 0 0 157 (C1) n - 1
REM
REM in /home/nfs/bkarasulu/CARBON/AIRSS/Generating-Clusters/TERSOFF/Only-C1/FIRE-HFTN
REM
REM
REM
REM
REM
REM ./C.cell (11c1c37f851c82e70ff6c80c92926a4b)
REM AIRSS Version 0.9.1 bugfix July 2018 build 013d7b7c2542+ Fri, 06 Jul 2018 19:26:36 +0100
REM compiler GCC version 9.2.1 20190827 (Red Hat 9.2.1-1)
REM options -cpp -mtune=generic -march=x86-64 -g -O0 -fpre-include=/usr/include/finclude/math-vector-fortran.h
REM seed -1125314473 -1110709041 -1897827926 -430845354 184371016 504112131 461415492 1413716534 829936092 -287159439 1655620385 687487690 1979867619 -757611243 282328321 -1981599656 -1813084310 -213350416 1861023395 -1450647192 -953911739 523440092 1477803384 -465388173 -1201779638 -1110455395 1491204641 1670904260 566633693 1639149621 1629504330 -2083724767 -1255190139
REM
CELL 1.54180   50.00000   50.00000   50.00000   90.00000   90.00000   90.00000
LATT -1
SFAC C  
C      1  0.5373800000000  0.3934680000000  0.5273000000000 1.0
C      1  0.5228860000000  0.4608770000000  0.5933760000000 1.0
C      1  0.5260060000000  0.5880540000000  0.5686710000000 1.0
C      1  0.5671490000000  0.4973580000000  0.4704640000000 1.0
C      1  0.4327580000000  0.5757250000000  0.5071620000000 1.0
C      1  0.4848160000000  0.5590590000000  0.4176040000000 1.0
C      1  0.4536000000000  0.4334890000000  0.4910610000000 1.0
C      1  0.4183220000000  0.5175660000000  0.5566270000000 1.0
C      1  0.4225580000000  0.4685260000000  0.5572410000000 1.0
C      1  0.4368830000000  0.4114050000000  0.4317720000000 1.0
C      1  0.4739930000000  0.4776910000000  0.5500330000000 1.0
C      1  0.4620370000000  0.5378540000000  0.4766920000000 1.0
C      1  0.4234530000000  0.4086440000000  0.4556490000000 1.0
C      1  0.5367830000000  0.4052940000000  0.4502280000000 1.0
C      1  0.4655980000000  0.4183850000000  0.5361780000000 1.0
C      1  0.4189330000000  0.4810220000000  0.5306620000000 1.0
C      1  0.5854020000000  0.5348830000000  0.4384190000000 1.0
C      1  0.4156800000000  0.5393460000000  0.4782040000000 1.0
C      1  0.4589800000000  0.5883160000000  0.5014550000000 1.0
C      1  0.4089880000000  0.4653460000000  0.4573840000000 1.0
C      1  0.4484190000000  0.4998460000000  0.4930230000000 1.0
C      1  0.4673770000000  0.4680110000000  0.5223170000000 1.0
C      1  0.6071210000000  0.4818220000000  0.4342010000000 1.0
C      1  0.4883260000000  0.5517150000000  0.6273140000000 1.0
C      1  0.5682090000000  0.4975240000000  0.4200750000000 1.0
C      1  0.5324700000000  0.5330310000000  0.4215420000000 1.0
C      1  0.6136010000000  0.4512750000000  0.4856520000000 1.0
C      1  0.5580630000000  0.5091920000000  0.5167460000000 1.0
C      1  0.4364480000000  0.5395540000000  0.5493360000000 1.0
C      1  0.5010010000000  0.4399430000000  0.3983370000000 1.0
C      1  0.4261580000000  0.5148410000000  0.4831990000000 1.0
C      1  0.4245860000000  0.5660300000000  0.4800170000000 1.0
C      1  0.4815930000000  0.5522340000000  0.5203270000000 1.0
C      1  0.5128140000000  0.5410920000000  0.6210470000000 1.0
C      1  0.3774000000000  0.5036180000000  0.4691620000000 1.0
C      1  0.5419140000000  0.6028110000000  0.4264120000000 1.0
C      1  0.4899520000000  0.5185120000000  0.4383020000000 1.0
C      1  0.5295570000000  0.5513750000000  0.6000990000000 1.0
C      1  0.4488230000000  0.5765980000000  0.4563910000000 1.0
C      1  0.4810970000000  0.5763730000000  0.6144400000000 1.0
C      1  0.5435820000000  0.5460820000000  0.5520490000000 1.0
C      1  0.4648900000000  0.5250530000000  0.4522830000000 1.0
C      1  0.4575780000000  0.4326900000000  0.5604850000000 1.0
C      1  0.4918030000000  0.4617190000000  0.5925310000000 1.0
C      1  0.4644100000000  0.5351990000000  0.5596100000000 1.0
C      1  0.5244360000000  0.5857200000000  0.4400160000000 1.0
C      1  0.5267400000000  0.5070840000000  0.5774820000000 1.0
C      1  0.4155750000000  0.4250900000000  0.5337020000000 1.0
C      1  0.4783920000000  0.5804650000000  0.5196650000000 1.0
C      1  0.4293940000000  0.5658620000000  0.5361290000000 1.0
C      1  0.4627830000000  0.4389860000000  0.5165070000000 1.0
C      1  0.5302290000000  0.5135710000000  0.3950060000000 1.0
C      1  0.4098180000000  0.4202480000000  0.4787150000000 1.0
C      1  0.4280120000000  0.5854470000000  0.5575630000000 1.0
C      1  0.3713380000000  0.4496660000000  0.4855580000000 1.0
C      1  0.5083920000000  0.4036820000000  0.4551360000000 1.0
C      1  0.4548790000000  0.4455420000000  0.4665490000000 1.0
C      1  0.5731340000000  0.4459720000000  0.5344360000000 1.0
C      1  0.5902480000000  0.5125280000000  0.4781610000000 1.0
C      1  0.4406850000000  0.5867860000000  0.5817430000000 1.0
C      1  0.5692200000000  0.5939410000000  0.5431140000000 1.0
C      1  0.5367790000000  0.5522070000000  0.4973610000000 1.0
C      1  0.5288970000000  0.4859990000000  0.3904330000000 1.0
C      1  0.4790800000000  0.5004360000000  0.4906450000000 1.0
C      1  0.6159190000000  0.5070070000000  0.5204970000000 1.0
C      1  0.5837690000000  0.5387770000000  0.4677960000000 1.0
C      1  0.6137110000000  0.4837540000000  0.5368310000000 1.0
C      1  0.5454580000000  0.4968910000000  0.4910970000000 1.0
C      1  0.4976430000000  0.5939960000000  0.5333820000000 1.0
C      1  0.4036600000000  0.5053780000000  0.5341200000000 1.0
C      1  0.4416810000000  0.4814850000000  0.5139130000000 1.0
C      1  0.5313560000000  0.5486780000000  0.5261740000000 1.0
C      1  0.5800040000000  0.4266330000000  0.5095320000000 1.0
C      1  0.5242460000000  0.5077830000000  0.4444370000000 1.0
C      1  0.5416230000000  0.5983400000000  0.5457520000000 1.0
C      1  0.5618340000000  0.5519790000000  0.4823360000000 1.0
C      1  0.4724180000000  0.4809660000000  0.6048270000000 1.0
C      1  0.4432360000000  0.4442000000000  0.3942310000000 1.0
C      1  0.3955860000000  0.4442850000000  0.4721150000000 1.0
C      1  0.5054580000000  0.5920740000000  0.6115670000000 1.0
C      1  0.5044700000000  0.5383590000000  0.5288440000000 1.0
C      1  0.4492050000000  0.4914380000000  0.4100060000000 1.0
C      1  0.4823160000000  0.4704950000000  0.4404010000000 1.0
C      1  0.6221870000000  0.4766080000000  0.4846180000000 1.0
C      1  0.6117410000000  0.5015240000000  0.4927220000000 1.0
C      1  0.5969940000000  0.4561770000000  0.4391550000000 1.0
C      1  0.4370050000000  0.4643590000000  0.4530470000000 1.0
C      1  0.5420800000000  0.4465980000000  0.4269230000000 1.0
C      1  0.4738310000000  0.3938740000000  0.5242540000000 1.0
C      1  0.5125390000000  0.4347970000000  0.5174730000000 1.0
C      1  0.5123870000000  0.4580710000000  0.4995460000000 1.0
C      1  0.4964630000000  0.5730660000000  0.4743670000000 1.0
C      1  0.4645900000000  0.5745930000000  0.5910190000000 1.0
C      1  0.5755020000000  0.4999800000000  0.5666020000000 1.0
C      1  0.5226470000000  0.5076620000000  0.4741840000000 1.0
C      1  0.5268100000000  0.6042120000000  0.4931270000000 1.0
C      1  0.5292280000000  0.4698140000000  0.5455540000000 1.0
C      1  0.5193310000000  0.4953070000000  0.5526420000000 1.0
C      1  0.5204060000000  0.4616890000000  0.4079010000000 1.0
C      1  0.5590130000000  0.6180610000000  0.4139980000000 1.0
C      1  0.4457660000000  0.5354110000000  0.4312970000000 1.0
C      1  0.4550230000000  0.4793580000000  0.4354650000000 1.0
C      1  0.5941440000000  0.5075330000000  0.4279410000000 1.0
C      1  0.3812480000000  0.5097000000000  0.5180920000000 1.0
C      1  0.4762700000000  0.4541080000000  0.5685280000000 1.0
C      1  0.5374800000000  0.4866610000000  0.5947200000000 1.0
C      1  0.4834870000000  0.5288460000000  0.4106060000000 1.0
C      1  0.4806460000000  0.4453710000000  0.4543000000000 1.0
C      1  0.5386830000000  0.4697900000000  0.5006940000000 1.0
C      1  0.5351050000000  0.5347950000000  0.5774430000000 1.0
C      1  0.4271690000000  0.4932870000000  0.5748580000000 1.0
C      1  0.5137590000000  0.4458620000000  0.5437350000000 1.0
C      1  0.5058020000000  0.4787500000000  0.4306950000000 1.0
C      1  0.6163460000000  0.5334120000000  0.5299600000000 1.0
C      1  0.5605030000000  0.4352390000000  0.5622420000000 1.0
C      1  0.4538030000000  0.4957580000000  0.5876150000000 1.0
C      1  0.5045870000000  0.5115160000000  0.5358000000000 1.0
C      1  0.4951140000000  0.3926530000000  0.5050220000000 1.0
C      1  0.5809310000000  0.4354450000000  0.4545830000000 1.0
C      1  0.5130360000000  0.5624640000000  0.4259670000000 1.0
C      1  0.4638440000000  0.5397390000000  0.5032080000000 1.0
C      1  0.5909670000000  0.5788210000000  0.5395490000000 1.0
C      1  0.4289540000000  0.4404080000000  0.5553950000000 1.0
C      1  0.5173390000000  0.4072650000000  0.5151200000000 1.0
C      1  0.4120280000000  0.4164300000000  0.5077260000000 1.0
C      1  0.5234040000000  0.6026890000000  0.5223230000000 1.0
C      1  0.3600350000000  0.4707950000000  0.4979240000000 1.0
C      1  0.5003720000000  0.5201990000000  0.4849950000000 1.0
C      1  0.6069140000000  0.5577810000000  0.5355050000000 1.0
C      1  0.5173910000000  0.5917580000000  0.4680500000000 1.0
C      1  0.5270110000000  0.5803380000000  0.5959590000000 1.0
C      1  0.5517320000000  0.4933110000000  0.4437610000000 1.0
C      1  0.5894290000000  0.4360650000000  0.4832890000000 1.0
C      1  0.5410910000000  0.4402160000000  0.5817150000000 1.0
C      1  0.4829960000000  0.4234580000000  0.4140540000000 1.0
C      1  0.4692820000000  0.5053960000000  0.5638390000000 1.0
C      1  0.4560430000000  0.5638830000000  0.4311050000000 1.0
C      1  0.3690580000000  0.4975910000000  0.4956810000000 1.0
C      1  0.5658850000000  0.4888780000000  0.5896960000000 1.0
C      1  0.4912630000000  0.4221710000000  0.4417610000000 1.0
C      1  0.5697100000000  0.5078110000000  0.5412230000000 1.0
C      1  0.4995330000000  0.5804420000000  0.5587830000000 1.0
C      1  0.4423070000000  0.4712600000000  0.3912860000000 1.0
C      1  0.4536800000000  0.4236040000000  0.4111570000000 1.0
C      1  0.4553180000000  0.5196610000000  0.4085560000000 1.0
C      1  0.4892380000000  0.4752920000000  0.5017980000000 1.0
C      1  0.4786870000000  0.5610490000000  0.5689920000000 1.0
C      1  0.4969000000000  0.3892590000000  0.4769990000000 1.0
C      1  0.5438160000000  0.4656800000000  0.4474240000000 1.0
C      1  0.5090650000000  0.5486030000000  0.4843070000000 1.0
C      1  0.5988000000000  0.4615460000000  0.5403000000000 1.0
C      1  0.5506310000000  0.4647610000000  0.5261920000000 1.0
C      1  0.3937090000000  0.4888920000000  0.4532760000000 1.0
C      1  0.5844280000000  0.4001300000000  0.5153390000000 1.0
C      1  0.5558730000000  0.4244660000000  0.4405620000000 1.0
C      1  0.4693790000000  0.5841920000000  0.4745710000000 1.0
C      1  0.5612140000000  0.5436150000000  0.4250280000000 1.0
END
