TITL C-612606-7351-132 0.000218015882059817 125000 -569.29260479218 0 0 93 (C1) n - 1
REM
REM in /home/nfs/bkarasulu/CARBON/AIRSS/Generating-Clusters/TERSOFF/Only-C1/FIRE-HFTN
REM
REM
REM
REM
REM
REM ./C.cell (11c1c37f851c82e70ff6c80c92926a4b)
REM AIRSS Version 0.9.1 bugfix July 2018 build 013d7b7c2542+ Fri, 06 Jul 2018 19:26:36 +0100
REM compiler GCC version 9.2.1 20190827 (Red Hat 9.2.1-1)
REM options -cpp -mtune=generic -march=x86-64 -g -O0 -fpre-include=/usr/include/finclude/math-vector-fortran.h
REM seed -1744902271 -140378084 -2008740411 -1552366524 1995191817 -1977114496 -131481027 1705279631 1249406039 2014692251 1840954881 967102475 -426782739 1292909844 1126349554 2060661222 -1750940579 -1826505266 -1882025085 -834403522 -273995867 -148039035 2090739658 -1753111475 668348475 1258385767 489945054 -2145755119 -283103206 325667957 1261864416 979889883 -165488881
REM
CELL 1.54180   50.00000   50.00000   50.00000   90.00000   90.00000   90.00000
LATT -1
SFAC C  
C      1  0.5105890000000  0.4730510000000  0.5554260000000 1.0
C      1  0.4746890000000  0.5350460000000  0.5556480000000 1.0
C      1  0.4595590000000  0.4132460000000  0.5413960000000 1.0
C      1  0.4390100000000  0.5497540000000  0.4715600000000 1.0
C      1  0.4959430000000  0.4946000000000  0.5438250000000 1.0
C      1  0.4649420000000  0.4539330000000  0.5690720000000 1.0
C      1  0.4131620000000  0.4967110000000  0.5504810000000 1.0
C      1  0.4977340000000  0.5413420000000  0.4559540000000 1.0
C      1  0.5656270000000  0.5359970000000  0.5037230000000 1.0
C      1  0.4856540000000  0.4098300000000  0.5306060000000 1.0
C      1  0.4783740000000  0.4900510000000  0.4551580000000 1.0
C      1  0.4526840000000  0.5335050000000  0.4510070000000 1.0
C      1  0.5141240000000  0.4962240000000  0.4977940000000 1.0
C      1  0.5409850000000  0.4874810000000  0.4052590000000 1.0
C      1  0.4264820000000  0.4397930000000  0.5062130000000 1.0
C      1  0.5950760000000  0.4894010000000  0.4552440000000 1.0
C      1  0.4823900000000  0.5330740000000  0.4113840000000 1.0
C      1  0.5678770000000  0.5912270000000  0.5314710000000 1.0
C      1  0.5766890000000  0.5141770000000  0.5143790000000 1.0
C      1  0.4521950000000  0.5740290000000  0.4789030000000 1.0
C      1  0.5529950000000  0.5632890000000  0.4647380000000 1.0
C      1  0.5182500000000  0.5502340000000  0.4981770000000 1.0
C      1  0.4633890000000  0.5356520000000  0.5289620000000 1.0
C      1  0.5055860000000  0.4074100000000  0.5505650000000 1.0
C      1  0.4286430000000  0.4498860000000  0.5326360000000 1.0
C      1  0.5757190000000  0.4861950000000  0.5182930000000 1.0
C      1  0.4187390000000  0.5359420000000  0.4886680000000 1.0
C      1  0.4938220000000  0.5422120000000  0.4842260000000 1.0
C      1  0.5884570000000  0.4409390000000  0.5031240000000 1.0
C      1  0.5405320000000  0.4583680000000  0.4807740000000 1.0
C      1  0.5227440000000  0.4200510000000  0.4311590000000 1.0
C      1  0.4331000000000  0.4428280000000  0.4579010000000 1.0
C      1  0.4762480000000  0.5824060000000  0.5226400000000 1.0
C      1  0.5928840000000  0.4690500000000  0.5026190000000 1.0
C      1  0.5039790000000  0.4987140000000  0.4690150000000 1.0
C      1  0.4396420000000  0.5524030000000  0.5285930000000 1.0
C      1  0.4260670000000  0.4332940000000  0.4346840000000 1.0
C      1  0.5388620000000  0.4773130000000  0.5525610000000 1.0
C      1  0.5115390000000  0.4898150000000  0.4034240000000 1.0
C      1  0.4725500000000  0.5239580000000  0.5017430000000 1.0
C      1  0.5521900000000  0.5494520000000  0.4418310000000 1.0
C      1  0.4524210000000  0.5045790000000  0.4542510000000 1.0
C      1  0.5451440000000  0.4585190000000  0.4057590000000 1.0
C      1  0.4763070000000  0.5419830000000  0.4376080000000 1.0
C      1  0.4961270000000  0.5130040000000  0.3997100000000 1.0
C      1  0.5166850000000  0.5195900000000  0.4524180000000 1.0
C      1  0.5101230000000  0.5811130000000  0.5593900000000 1.0
C      1  0.5543000000000  0.5029880000000  0.4252950000000 1.0
C      1  0.4857500000000  0.4481420000000  0.4954640000000 1.0
C      1  0.4993170000000  0.5689840000000  0.5357820000000 1.0
C      1  0.4482040000000  0.4375870000000  0.5507340000000 1.0
C      1  0.5555260000000  0.5822790000000  0.5095930000000 1.0
C      1  0.4634640000000  0.4940540000000  0.5003430000000 1.0
C      1  0.5112410000000  0.5428660000000  0.5254670000000 1.0
C      1  0.5324100000000  0.4741220000000  0.5027950000000 1.0
C      1  0.5082910000000  0.5119790000000  0.5236340000000 1.0
C      1  0.4948740000000  0.4518780000000  0.5679040000000 1.0
C      1  0.5032030000000  0.6064700000000  0.5669750000000 1.0
C      1  0.5547860000000  0.5752310000000  0.5763840000000 1.0
C      1  0.4499830000000  0.5781870000000  0.5345170000000 1.0
C      1  0.5401970000000  0.5245290000000  0.4372830000000 1.0
C      1  0.4172580000000  0.5390040000000  0.5177740000000 1.0
C      1  0.5013050000000  0.4652230000000  0.4162770000000 1.0
C      1  0.4682710000000  0.4930670000000  0.5482330000000 1.0
C      1  0.4512950000000  0.4903220000000  0.5259840000000 1.0
C      1  0.4287770000000  0.4924530000000  0.5751880000000 1.0
C      1  0.4264130000000  0.4958670000000  0.4616800000000 1.0
C      1  0.5222210000000  0.4446330000000  0.4169950000000 1.0
C      1  0.4711990000000  0.5857370000000  0.4945610000000 1.0
C      1  0.5696000000000  0.4238630000000  0.4936210000000 1.0
C      1  0.5388790000000  0.5181790000000  0.5829080000000 1.0
C      1  0.4050560000000  0.5205290000000  0.5365770000000 1.0
C      1  0.5700150000000  0.5872480000000  0.5578360000000 1.0
C      1  0.5112910000000  0.3978380000000  0.4199100000000 1.0
C      1  0.5691120000000  0.4880510000000  0.4445000000000 1.0
C      1  0.4400700000000  0.4506760000000  0.4837070000000 1.0
C      1  0.4264720000000  0.4782030000000  0.5326500000000 1.0
C      1  0.5460040000000  0.4304740000000  0.4793980000000 1.0
C      1  0.5284740000000  0.5656360000000  0.5750460000000 1.0
C      1  0.4912880000000  0.4246720000000  0.5072900000000 1.0
C      1  0.4100880000000  0.5112540000000  0.4771280000000 1.0
C      1  0.5074110000000  0.4265060000000  0.5697240000000 1.0
C      1  0.4642400000000  0.4658260000000  0.4898570000000 1.0
C      1  0.5487410000000  0.4957980000000  0.5716610000000 1.0
C      1  0.5517770000000  0.4720790000000  0.4594780000000 1.0
C      1  0.4556010000000  0.4815240000000  0.5716540000000 1.0
C      1  0.5201410000000  0.5391350000000  0.5811510000000 1.0
C      1  0.5497610000000  0.4762250000000  0.5258740000000 1.0
C      1  0.4820590000000  0.4692020000000  0.4361590000000 1.0
C      1  0.5347900000000  0.4179070000000  0.4567970000000 1.0
C      1  0.6042150000000  0.4804890000000  0.4791330000000 1.0
C      1  0.4927370000000  0.5340650000000  0.5756630000000 1.0
C      1  0.5473710000000  0.5583500000000  0.4934390000000 1.0
END
