TITL C-612605-9286-837 7.44892000453302 125000 -454.790110366428 0 0 75 (C1) n - 1
REM
REM in /home/nfs/bkarasulu/CARBON/AIRSS/Generating-Clusters/TERSOFF/Only-C1/FIRE-HFTN
REM
REM
REM
REM
REM
REM ./C.cell (11c1c37f851c82e70ff6c80c92926a4b)
REM AIRSS Version 0.9.1 bugfix July 2018 build 013d7b7c2542+ Fri, 06 Jul 2018 19:26:36 +0100
REM compiler GCC version 9.2.1 20190827 (Red Hat 9.2.1-1)
REM options -cpp -mtune=generic -march=x86-64 -g -O0 -fpre-include=/usr/include/finclude/math-vector-fortran.h
REM seed 663561052 1788926225 2004209277 -660562208 -1674115414 -1463578307 18177343 1647397041 -1004545447 311358450 1411855993 1519624621 -2076788732 -233652207 -593872365 698632815 -176427882 -1237590771 644409334 325606141 -1741537577 1931411665 213310115 -1399446200 -1212546455 288802866 683764107 -1152851200 1851392590 -294826182 2079288093 -114600679 513003515
REM
CELL 1.54180   50.00000   50.00000   50.00000   90.00000   90.00000   90.00000
LATT -1
SFAC C  
C      1  0.4382800000000  0.4947280000000  0.5086570000000 1.0
C      1  0.5390830000000  0.4880430000000  0.4746990000000 1.0
C      1  0.4303560000000  0.5575430000000  0.5417800000000 1.0
C      1  0.5973460000000  0.4657010000000  0.5214540000000 1.0
C      1  0.2801940000000  0.5143600000000  0.4348940000000 1.0
C      1  0.3812220000000  0.5102040000000  0.4667240000000 1.0
C      1  0.4329350000000  0.5084430000000  0.4838260000000 1.0
C      1  0.4941740000000  0.5225250000000  0.5836860000000 1.0
C      1  0.5607120000000  0.5029640000000  0.4365020000000 1.0
C      1  0.4699230000000  0.5719940000000  0.4723410000000 1.0
C      1  0.5129020000000  0.4628240000000  0.5341910000000 1.0
C      1  0.4841800000000  0.4049660000000  0.5197680000000 1.0
C      1  0.6247040000000  0.4632340000000  0.5292850000000 1.0
C      1  0.6248430000000  0.5099280000000  0.5357060000000 1.0
C      1  0.3054560000000  0.5133210000000  0.4428530000000 1.0
C      1  0.5463000000000  0.4051950000000  0.4894520000000 1.0
C      1  0.3559680000000  0.5112430000000  0.4587670000000 1.0
C      1  0.5300420000000  0.3848740000000  0.4999970000000 1.0
C      1  0.5466490000000  0.3335520000000  0.4971800000000 1.0
C      1  0.4507310000000  0.4696370000000  0.5068180000000 1.0
C      1  0.4795220000000  0.4711720000000  0.4991770000000 1.0
C      1  0.4882020000000  0.5885700000000  0.4856630000000 1.0
C      1  0.4720060000000  0.5081780000000  0.5744420000000 1.0
C      1  0.3307120000000  0.5122820000000  0.4508100000000 1.0
C      1  0.5065250000000  0.5434760000000  0.5667770000000 1.0
C      1  0.5554370000000  0.4857570000000  0.5418210000000 1.0
C      1  0.5374130000000  0.5047930000000  0.4226820000000 1.0
C      1  0.4727300000000  0.4304290000000  0.5195440000000 1.0
C      1  0.5644030000000  0.4952150000000  0.4634340000000 1.0
C      1  0.5360630000000  0.5962140000000  0.4680010000000 1.0
C      1  0.4877570000000  0.5874000000000  0.5137040000000 1.0
C      1  0.5385880000000  0.3582980000000  0.4985570000000 1.0
C      1  0.4691160000000  0.5074790000000  0.4486940000000 1.0
C      1  0.5726090000000  0.5428900000000  0.5039930000000 1.0
C      1  0.5150020000000  0.5165310000000  0.6027990000000 1.0
C      1  0.4977260000000  0.4693450000000  0.4539890000000 1.0
C      1  0.5551640000000  0.5517600000000  0.4834550000000 1.0
C      1  0.5904390000000  0.4678120000000  0.4936420000000 1.0
C      1  0.5053650000000  0.3908090000000  0.5119500000000 1.0
C      1  0.5972910000000  0.5100990000000  0.5285100000000 1.0
C      1  0.5546010000000  0.5774490000000  0.4725010000000 1.0
C      1  0.5804240000000  0.4445200000000  0.4815440000000 1.0
C      1  0.5875150000000  0.5182570000000  0.5025240000000 1.0
C      1  0.4912660000000  0.4928300000000  0.4389270000000 1.0
C      1  0.5828790000000  0.4859740000000  0.5367100000000 1.0
C      1  0.4956760000000  0.5479890000000  0.5413170000000 1.0
C      1  0.5644090000000  0.4232090000000  0.4819730000000 1.0
C      1  0.5092830000000  0.5025530000000  0.4186460000000 1.0
C      1  0.4530790000000  0.5715340000000  0.5430490000000 1.0
C      1  0.5185820000000  0.5068720000000  0.5158530000000 1.0
C      1  0.5352940000000  0.5460270000000  0.5726550000000 1.0
C      1  0.5005720000000  0.5266970000000  0.5238610000000 1.0
C      1  0.4989150000000  0.5097530000000  0.3942600000000 1.0
C      1  0.6382860000000  0.4860580000000  0.5360610000000 1.0
C      1  0.4788990000000  0.4588280000000  0.4717890000000 1.0
C      1  0.5543140000000  0.5534950000000  0.5536110000000 1.0
C      1  0.4485290000000  0.4398140000000  0.5032560000000 1.0
C      1  0.4531420000000  0.5210880000000  0.4676470000000 1.0
C      1  0.5671230000000  0.5530160000000  0.5300950000000 1.0
C      1  0.4571510000000  0.5488210000000  0.4697100000000 1.0
C      1  0.5384430000000  0.5299820000000  0.5965880000000 1.0
C      1  0.4369760000000  0.5079260000000  0.5339740000000 1.0
C      1  0.5242730000000  0.4675800000000  0.4629300000000 1.0
C      1  0.2553480000000  0.5153820000000  0.4270660000000 1.0
C      1  0.4797890000000  0.5704170000000  0.5344790000000 1.0
C      1  0.5847240000000  0.4951490000000  0.4835720000000 1.0
C      1  0.5289090000000  0.4859190000000  0.5325020000000 1.0
C      1  0.4231330000000  0.5323130000000  0.5365200000000 1.0
C      1  0.5329040000000  0.5349600000000  0.4794220000000 1.0
C      1  0.4912370000000  0.4535860000000  0.5195680000000 1.0
C      1  0.4540170000000  0.5014760000000  0.5557060000000 1.0
C      1  0.5275650000000  0.5091200000000  0.4893310000000 1.0
C      1  0.4581930000000  0.4382250000000  0.4747990000000 1.0
C      1  0.4064440000000  0.5091940000000  0.4747380000000 1.0
C      1  0.5100380000000  0.6001970000000  0.4725910000000 1.0
END
