TITL C-612603-7354-278 -0.000183120153635329 125000 -352.18621921886 0 0 59 (C1) n - 1
REM
REM in /home/nfs/bkarasulu/CARBON/AIRSS/Generating-Clusters/TERSOFF/Only-C1/FIRE-HFTN
REM
REM
REM
REM
REM
REM ./C.cell (11c1c37f851c82e70ff6c80c92926a4b)
REM AIRSS Version 0.9.1 bugfix July 2018 build 013d7b7c2542+ Fri, 06 Jul 2018 19:26:36 +0100
REM compiler GCC version 9.2.1 20190827 (Red Hat 9.2.1-1)
REM options -cpp -mtune=generic -march=x86-64 -g -O0 -fpre-include=/usr/include/finclude/math-vector-fortran.h
REM seed -400721000 216138457 146488774 -750772071 -1144827432 -1385036919 -251653692 -1658627678 1696049402 1757694625 -265566037 1793410359 -238873880 -249103348 -107035562 -1433608904 9420907 -1857893637 -205558404 913857031 -752629369 1913162437 -276333053 -562246037 -430428364 -2041814237 669972683 126104715 831919794 1405549976 1647588846 -8460426 -1441403226
REM
CELL 1.54180   50.00000   50.00000   50.00000   90.00000   90.00000   90.00000
LATT -1
SFAC C  
C      1  0.4321690000000  0.5376160000000  0.4949410000000 1.0
C      1  0.5183590000000  0.4607790000000  0.5033650000000 1.0
C      1  0.4804160000000  0.4363640000000  0.4555040000000 1.0
C      1  0.4833110000000  0.4558670000000  0.4353110000000 1.0
C      1  0.5299160000000  0.4665770000000  0.5640460000000 1.0
C      1  0.5153070000000  0.5655660000000  0.4672960000000 1.0
C      1  0.5541320000000  0.5548270000000  0.5414530000000 1.0
C      1  0.4405260000000  0.3734970000000  0.5061920000000 1.0
C      1  0.5820530000000  0.5005810000000  0.5247810000000 1.0
C      1  0.5454840000000  0.5031490000000  0.4344400000000 1.0
C      1  0.5060360000000  0.4621520000000  0.5492690000000 1.0
C      1  0.4355530000000  0.5183750000000  0.5673050000000 1.0
C      1  0.5256070000000  0.5197060000000  0.5192090000000 1.0
C      1  0.5631900000000  0.5102980000000  0.4790850000000 1.0
C      1  0.5487120000000  0.5220770000000  0.4560530000000 1.0
C      1  0.5042100000000  0.5673890000000  0.5165490000000 1.0
C      1  0.4883100000000  0.5284250000000  0.4867420000000 1.0
C      1  0.4437770000000  0.5343830000000  0.4688040000000 1.0
C      1  0.5648050000000  0.4563460000000  0.5175130000000 1.0
C      1  0.5756200000000  0.5206820000000  0.5048790000000 1.0
C      1  0.4643840000000  0.4362160000000  0.4787910000000 1.0
C      1  0.4270110000000  0.5225630000000  0.5422940000000 1.0
C      1  0.4895580000000  0.5216400000000  0.4350500000000 1.0
C      1  0.4508590000000  0.4965490000000  0.4345360000000 1.0
C      1  0.4618480000000  0.5561820000000  0.4600730000000 1.0
C      1  0.5036090000000  0.5534090000000  0.5628480000000 1.0
C      1  0.4901440000000  0.4249210000000  0.5189480000000 1.0
C      1  0.5277330000000  0.5176160000000  0.5483610000000 1.0
C      1  0.4865880000000  0.5692520000000  0.4602300000000 1.0
C      1  0.4836980000000  0.5049610000000  0.5645380000000 1.0
C      1  0.5715250000000  0.4765430000000  0.5365320000000 1.0
C      1  0.5628690000000  0.5454900000000  0.5148460000000 1.0
C      1  0.4593860000000  0.4701010000000  0.4292700000000 1.0
C      1  0.5459940000000  0.4628720000000  0.4973290000000 1.0
C      1  0.4696710000000  0.4185520000000  0.5005610000000 1.0
C      1  0.4461030000000  0.4577860000000  0.4806060000000 1.0
C      1  0.4850610000000  0.5465400000000  0.5079250000000 1.0
C      1  0.4774490000000  0.4876090000000  0.5185020000000 1.0
C      1  0.4433190000000  0.5053350000000  0.4608950000000 1.0
C      1  0.5083030000000  0.4451750000000  0.5258550000000 1.0
C      1  0.4978000000000  0.4802940000000  0.4990490000000 1.0
C      1  0.5369420000000  0.5419860000000  0.5029400000000 1.0
C      1  0.4520460000000  0.4964570000000  0.5085900000000 1.0
C      1  0.4547100000000  0.3952070000000  0.5036060000000 1.0
C      1  0.5257110000000  0.5391790000000  0.4585030000000 1.0
C      1  0.5009500000000  0.5240800000000  0.4606010000000 1.0
C      1  0.5037750000000  0.5245970000000  0.5627800000000 1.0
C      1  0.5085870000000  0.4660540000000  0.4277160000000 1.0
C      1  0.5297660000000  0.4825700000000  0.4267730000000 1.0
C      1  0.5180450000000  0.5666570000000  0.5420530000000 1.0
C      1  0.5555980000000  0.4743450000000  0.5599470000000 1.0
C      1  0.4591750000000  0.5101910000000  0.5769930000000 1.0
C      1  0.5505720000000  0.5323470000000  0.5581420000000 1.0
C      1  0.4673030000000  0.5153600000000  0.4216860000000 1.0
C      1  0.4446900000000  0.4858740000000  0.4827100000000 1.0
C      1  0.5562550000000  0.4824080000000  0.4800920000000 1.0
C      1  0.5229890000000  0.5658550000000  0.4948410000000 1.0
C      1  0.4363710000000  0.5192930000000  0.5162590000000 1.0
C      1  0.4861090000000  0.4832770000000  0.5459930000000 1.0
END
