TITL C-612605-9286-1394 0.0207434881584033 125000 -85.0855413758867 0 0 16 (C1) n - 1
REM
REM in /home/nfs/bkarasulu/CARBON/AIRSS/Generating-Clusters/TERSOFF/Only-C1/FIRE-HFTN
REM
REM
REM
REM
REM
REM ./C.cell (11c1c37f851c82e70ff6c80c92926a4b)
REM AIRSS Version 0.9.1 bugfix July 2018 build 013d7b7c2542+ Fri, 06 Jul 2018 19:26:36 +0100
REM compiler GCC version 9.2.1 20190827 (Red Hat 9.2.1-1)
REM options -cpp -mtune=generic -march=x86-64 -g -O0 -fpre-include=/usr/include/finclude/math-vector-fortran.h
REM seed -44854339 -799161672 1665442593 -1991748789 -1478702229 -1888019478 1685402541 954716934 -1770573814 1297104529 -1427155087 -1709095611 -1873902403 1635653412 1352022869 -149418241 -605393040 -754706021 -382098200 -1269721153 -1501621368 707760505 751759171 -508054181 1058012140 735244322 -1651432511 -1999938898 1741961869 220616833 999244524 -574653661 -577384753
REM
CELL 1.54180   50.00000   50.00000   50.00000   90.00000   90.00000   90.00000
LATT -1
SFAC C  
C      1  0.5144540000000  0.5960120000000  0.5047050000000 1.0
C      1  0.5128690000000  0.4187600000000  0.5061700000000 1.0
C      1  0.5174680000000  0.6174090000000  0.5192910000000 1.0
C      1  0.5134230000000  0.5542650000000  0.4206000000000 1.0
C      1  0.4909320000000  0.4805270000000  0.5093970000000 1.0
C      1  0.5022070000000  0.5268980000000  0.4864000000000 1.0
C      1  0.5108830000000  0.5528510000000  0.4464990000000 1.0
C      1  0.4764950000000  0.4544060000000  0.5475730000000 1.0
C      1  0.4672870000000  0.4221850000000  0.4912740000000 1.0
C      1  0.4684200000000  0.4527330000000  0.5722950000000 1.0
C      1  0.5113910000000  0.5742680000000  0.4898810000000 1.0
C      1  0.4851860000000  0.4558200000000  0.5210700000000 1.0
C      1  0.4882340000000  0.4319750000000  0.5059000000000 1.0
C      1  0.5081600000000  0.5513390000000  0.4742610000000 1.0
C      1  0.4965620000000  0.5037250000000  0.4979220000000 1.0
C      1  0.5360300000000  0.4068270000000  0.5067610000000 1.0
END
