TITL C-612600-6631-718 -0.00031000995978031 125000 -40.7440882860227 0 0 8 (Cs) n - 1
REM
REM in /home/nfs/bkarasulu/CARBON/AIRSS/Generating-Clusters/TERSOFF/Only-C1/FIRE-HFTN
REM
REM
REM
REM
REM
REM ./C.cell (11c1c37f851c82e70ff6c80c92926a4b)
REM AIRSS Version 0.9.1 bugfix July 2018 build 013d7b7c2542+ Fri, 06 Jul 2018 19:26:36 +0100
REM compiler GCC version 9.2.1 20190827 (Red Hat 9.2.1-1)
REM options -cpp -mtune=generic -march=x86-64 -g -O0 -fpre-include=/usr/include/finclude/math-vector-fortran.h
REM seed 1790209332 -1323238083 -1198729642 -845272668 1698835686 1977343232 -2045308570 -1684116435 1535383718 1873522840 1520597051 1507251942 -1499745450 1047963946 -1205145249 -175402109 -1467461561 2107542539 30838556 953695644 -990501911 -1163831240 -866753479 -1688283970 1665613184 76465654 1682257816 -933925806 1151599264 673320741 228045421 -1774801666 -1763960055
REM
CELL 1.54180   50.00000   50.00000   50.00000   90.00000   90.00000   90.00000
LATT -1
SFAC C  
C      1  0.5405260000000  0.4808000000000  0.4765590000000 1.0
C      1  0.4711120000000  0.5458240000000  0.4992930000000 1.0
C      1  0.5194520000000  0.4811030000000  0.4939950000000 1.0
C      1  0.4554940000000  0.5666230000000  0.5010650000000 1.0
C      1  0.5142750000000  0.4589840000000  0.5103060000000 1.0
C      1  0.5093070000000  0.4384580000000  0.5255780000000 1.0
C      1  0.5028440000000  0.5035320000000  0.4957110000000 1.0
C      1  0.4869900000000  0.5246770000000  0.4974930000000 1.0
END
