TITL C-612606-7351-45 -0.000280517184199352 125000 -311.180654060065 0 0 52 (C1) n - 1
REM
REM in /home/nfs/bkarasulu/CARBON/AIRSS/Generating-Clusters/TERSOFF/Only-C1/FIRE-HFTN
REM
REM
REM
REM
REM
REM ./C.cell (11c1c37f851c82e70ff6c80c92926a4b)
REM AIRSS Version 0.9.1 bugfix July 2018 build 013d7b7c2542+ Fri, 06 Jul 2018 19:26:36 +0100
REM compiler GCC version 9.2.1 20190827 (Red Hat 9.2.1-1)
REM options -cpp -mtune=generic -march=x86-64 -g -O0 -fpre-include=/usr/include/finclude/math-vector-fortran.h
REM seed -203071827 990298829 124723788 -281536809 96675107 1870050384 1806060107 1905928301 805855620 1678818242 1431975699 -352796021 1006373944 2022462608 1535522748 1190471816 1411956101 141542725 -2034804620 -1400836704 -1598622845 964885671 1442257929 2029163594 -1022313261 1695981344 581280157 66744242 1089098675 1730002551 -1434308516 857788112 -1144577005
REM
CELL 1.54180   50.00000   50.00000   50.00000   90.00000   90.00000   90.00000
LATT -1
SFAC C  
C      1  0.4148370000000  0.5054010000000  0.4874900000000 1.0
C      1  0.5634380000000  0.5099840000000  0.5249380000000 1.0
C      1  0.5476450000000  0.4487310000000  0.4915490000000 1.0
C      1  0.5212110000000  0.4438360000000  0.4816230000000 1.0
C      1  0.4609520000000  0.4253560000000  0.5238500000000 1.0
C      1  0.4067420000000  0.5095310000000  0.5142120000000 1.0
C      1  0.4449390000000  0.4415960000000  0.5387780000000 1.0
C      1  0.4889340000000  0.4305230000000  0.5226800000000 1.0
C      1  0.5094900000000  0.4691930000000  0.4736710000000 1.0
C      1  0.4958090000000  0.4481070000000  0.5446240000000 1.0
C      1  0.4635840000000  0.5249810000000  0.5333950000000 1.0
C      1  0.5467550000000  0.5412570000000  0.4893160000000 1.0
C      1  0.5915050000000  0.4623280000000  0.4637400000000 1.0
C      1  0.4814330000000  0.5221840000000  0.5550080000000 1.0
C      1  0.5707720000000  0.4477190000000  0.4759730000000 1.0
C      1  0.4137380000000  0.5006370000000  0.5386110000000 1.0
C      1  0.5045100000000  0.4279430000000  0.4989690000000 1.0
C      1  0.5850500000000  0.5120190000000  0.4818400000000 1.0
C      1  0.4801320000000  0.4911310000000  0.4433700000000 1.0
C      1  0.4311620000000  0.4858260000000  0.5526570000000 1.0
C      1  0.4653650000000  0.5152350000000  0.4408200000000 1.0
C      1  0.5417190000000  0.5658660000000  0.5030690000000 1.0
C      1  0.5341550000000  0.5568500000000  0.4453160000000 1.0
C      1  0.4958770000000  0.5453480000000  0.5618270000000 1.0
C      1  0.4942320000000  0.4964780000000  0.5554030000000 1.0
C      1  0.5684230000000  0.4817850000000  0.5230220000000 1.0
C      1  0.4428110000000  0.5254440000000  0.4516130000000 1.0
C      1  0.5930240000000  0.4898990000000  0.4692180000000 1.0
C      1  0.5268850000000  0.5670530000000  0.5268490000000 1.0
C      1  0.5193070000000  0.4968620000000  0.5416440000000 1.0
C      1  0.5243470000000  0.5112970000000  0.4552620000000 1.0
C      1  0.4723010000000  0.4871550000000  0.4984620000000 1.0
C      1  0.5463830000000  0.4666440000000  0.5137520000000 1.0
C      1  0.5636420000000  0.6112660000000  0.4835690000000 1.0
C      1  0.5348790000000  0.5362180000000  0.4635040000000 1.0
C      1  0.4266720000000  0.4801500000000  0.4827430000000 1.0
C      1  0.4007730000000  0.5463530000000  0.4646250000000 1.0
C      1  0.4539350000000  0.4740010000000  0.4802560000000 1.0
C      1  0.6094800000000  0.4501840000000  0.4471600000000 1.0
C      1  0.5416760000000  0.5144960000000  0.5429530000000 1.0
C      1  0.3831720000000  0.5654000000000  0.4620550000000 1.0
C      1  0.5071590000000  0.4890110000000  0.4531060000000 1.0
C      1  0.5664870000000  0.5234760000000  0.4997880000000 1.0
C      1  0.5123690000000  0.5617880000000  0.5485660000000 1.0
C      1  0.5205220000000  0.4797250000000  0.5188130000000 1.0
C      1  0.4803020000000  0.4708770000000  0.5544040000000 1.0
C      1  0.4194780000000  0.5258750000000  0.4678910000000 1.0
C      1  0.4998660000000  0.4799830000000  0.4989740000000 1.0
C      1  0.5529020000000  0.5894730000000  0.4929980000000 1.0
C      1  0.4639020000000  0.5109200000000  0.5106740000000 1.0
C      1  0.4515620000000  0.4665250000000  0.5514610000000 1.0
C      1  0.4637540000000  0.4700780000000  0.4539070000000 1.0
END
