TITL C-612603-7354-541 1.04845173318245 125000 -165.373038130878 0 0 29 (C1) n - 1
REM
REM in /home/nfs/bkarasulu/CARBON/AIRSS/Generating-Clusters/TERSOFF/Only-C1/FIRE-HFTN
REM
REM
REM
REM
REM
REM ./C.cell (11c1c37f851c82e70ff6c80c92926a4b)
REM AIRSS Version 0.9.1 bugfix July 2018 build 013d7b7c2542+ Fri, 06 Jul 2018 19:26:36 +0100
REM compiler GCC version 9.2.1 20190827 (Red Hat 9.2.1-1)
REM options -cpp -mtune=generic -march=x86-64 -g -O0 -fpre-include=/usr/include/finclude/math-vector-fortran.h
REM seed 599005278 -2132655678 -559407846 -141938672 -795131122 1664914735 -1117668811 -366971589 1684551380 1085577564 878031648 719304379 -1482708876 1743427863 -2080201889 -583452676 -1546796118 1950532372 -897146268 -988940625 -109880266 -859164390 -365400415 844370881 1108344246 179687479 1374151453 568299333 1894687954 -336588490 -1413018930 -443315402 -398327900
REM
CELL 1.54180   50.00000   50.00000   50.00000   90.00000   90.00000   90.00000
LATT -1
SFAC C  
C      1  0.5466940000000  0.4798580000000  0.4993450000000 1.0
C      1  0.4742110000000  0.4926380000000  0.4847420000000 1.0
C      1  0.4538480000000  0.4663350000000  0.4495950000000 1.0
C      1  0.4215540000000  0.4480210000000  0.4977630000000 1.0
C      1  0.4748240000000  0.5403140000000  0.4944530000000 1.0
C      1  0.4587490000000  0.4703120000000  0.4762480000000 1.0
C      1  0.5514440000000  0.4889420000000  0.5679450000000 1.0
C      1  0.4485380000000  0.4520780000000  0.4955760000000 1.0
C      1  0.5159320000000  0.5594760000000  0.5109690000000 1.0
C      1  0.5411570000000  0.4644760000000  0.5686040000000 1.0
C      1  0.4866190000000  0.5277880000000  0.4197580000000 1.0
C      1  0.5341550000000  0.5510030000000  0.5282610000000 1.0
C      1  0.5589720000000  0.4904060000000  0.4774530000000 1.0
C      1  0.4374900000000  0.5137610000000  0.5085480000000 1.0
C      1  0.5535560000000  0.5140310000000  0.5595310000000 1.0
C      1  0.4662670000000  0.4385360000000  0.5124470000000 1.0
C      1  0.4902070000000  0.5828750000000  0.4772100000000 1.0
C      1  0.5046910000000  0.4339320000000  0.5477010000000 1.0
C      1  0.5011690000000  0.5153830000000  0.4374640000000 1.0
C      1  0.4846130000000  0.4320660000000  0.5304570000000 1.0
C      1  0.5245600000000  0.4450810000000  0.5613140000000 1.0
C      1  0.5437800000000  0.5015640000000  0.4578320000000 1.0
C      1  0.5473590000000  0.5355810000000  0.5453370000000 1.0
C      1  0.4870720000000  0.6026390000000  0.4605140000000 1.0
C      1  0.5153380000000  0.5033220000000  0.4581420000000 1.0
C      1  0.4935920000000  0.5610190000000  0.4942380000000 1.0
C      1  0.5023010000000  0.4921060000000  0.4814440000000 1.0
C      1  0.5195640000000  0.4808410000000  0.5010970000000 1.0
C      1  0.4617430000000  0.5156200000000  0.4960140000000 1.0
END
