TITL C-612602-9376-1233 0.180775341096151 125000 -227.907575599737 0 0 40 (C1) n - 1
REM
REM in /home/nfs/bkarasulu/CARBON/AIRSS/Generating-Clusters/TERSOFF/Only-C1/FIRE-HFTN
REM
REM
REM
REM
REM
REM ./C.cell (11c1c37f851c82e70ff6c80c92926a4b)
REM AIRSS Version 0.9.1 bugfix July 2018 build 013d7b7c2542+ Fri, 06 Jul 2018 19:26:36 +0100
REM compiler GCC version 9.2.1 20190827 (Red Hat 9.2.1-1)
REM options -cpp -mtune=generic -march=x86-64 -g -O0 -fpre-include=/usr/include/finclude/math-vector-fortran.h
REM seed 1435889282 -1689259764 555985096 -153539155 1048889778 2087235260 1142109501 1411621766 148831763 -421259461 -424182193 1057311461 1954609998 -128523655 -316829637 -1335462388 1432007226 -456798320 -1429592833 629684966 852925047 1883145006 705555983 -327628904 2116639099 1394966955 -857097080 -857579581 -2030086365 -681131369 1565000951 -1188678330 1679929514
REM
CELL 1.54180   50.00000   50.00000   50.00000   90.00000   90.00000   90.00000
LATT -1
SFAC C  
C      1  0.4344500000000  0.5008850000000  0.4207180000000 1.0
C      1  0.5018700000000  0.4848820000000  0.4939160000000 1.0
C      1  0.4804110000000  0.4874950000000  0.5117260000000 1.0
C      1  0.4943400000000  0.5442090000000  0.4828810000000 1.0
C      1  0.5585570000000  0.3910830000000  0.5451870000000 1.0
C      1  0.4851210000000  0.5902930000000  0.4928270000000 1.0
C      1  0.4579580000000  0.5506230000000  0.4389820000000 1.0
C      1  0.5528520000000  0.4867570000000  0.5639350000000 1.0
C      1  0.4375130000000  0.4871360000000  0.5305180000000 1.0
C      1  0.5092770000000  0.5634480000000  0.5244680000000 1.0
C      1  0.5436280000000  0.4505900000000  0.5066770000000 1.0
C      1  0.4456180000000  0.5157430000000  0.5726990000000 1.0
C      1  0.5272850000000  0.4782140000000  0.4308090000000 1.0
C      1  0.4680460000000  0.5260000000000  0.4454180000000 1.0
C      1  0.4606120000000  0.5945190000000  0.5700020000000 1.0
C      1  0.5513570000000  0.4431480000000  0.5329150000000 1.0
C      1  0.5024810000000  0.4834650000000  0.4435240000000 1.0
C      1  0.5437250000000  0.5122420000000  0.3922560000000 1.0
C      1  0.4876340000000  0.5230530000000  0.4660510000000 1.0
C      1  0.4487350000000  0.5435090000000  0.5741780000000 1.0
C      1  0.5548130000000  0.4630320000000  0.5522590000000 1.0
C      1  0.4781460000000  0.4809320000000  0.4287620000000 1.0
C      1  0.5550040000000  0.4388350000000  0.4839330000000 1.0
C      1  0.5550800000000  0.4162740000000  0.5394860000000 1.0
C      1  0.4799890000000  0.5018430000000  0.5371880000000 1.0
C      1  0.5353680000000  0.5355810000000  0.5600490000000 1.0
C      1  0.4998430000000  0.4972370000000  0.4683920000000 1.0
C      1  0.5364070000000  0.4954670000000  0.4108080000000 1.0
C      1  0.4596840000000  0.5026120000000  0.4311890000000 1.0
C      1  0.5427100000000  0.4561820000000  0.4383500000000 1.0
C      1  0.4529090000000  0.4785550000000  0.5090840000000 1.0
C      1  0.5242700000000  0.4703830000000  0.5021790000000 1.0
C      1  0.4534280000000  0.5024630000000  0.5493750000000 1.0
C      1  0.4352350000000  0.5018520000000  0.5938490000000 1.0
C      1  0.5460250000000  0.5122340000000  0.5667560000000 1.0
C      1  0.4728660000000  0.4588620000000  0.4135530000000 1.0
C      1  0.5538630000000  0.4413880000000  0.4574230000000 1.0
C      1  0.4542300000000  0.5693850000000  0.5726760000000 1.0
C      1  0.5225290000000  0.5532900000000  0.5450500000000 1.0
C      1  0.4961330000000  0.5663010000000  0.4999530000000 1.0
END
