TITL C-612606-7351-788 0.373827473853339 125000 -334.330287340409 0 0 56 (C1) n - 1
REM
REM in /home/nfs/bkarasulu/CARBON/AIRSS/Generating-Clusters/TERSOFF/Only-C1/FIRE-HFTN
REM
REM
REM
REM
REM
REM ./C.cell (11c1c37f851c82e70ff6c80c92926a4b)
REM AIRSS Version 0.9.1 bugfix July 2018 build 013d7b7c2542+ Fri, 06 Jul 2018 19:26:36 +0100
REM compiler GCC version 9.2.1 20190827 (Red Hat 9.2.1-1)
REM options -cpp -mtune=generic -march=x86-64 -g -O0 -fpre-include=/usr/include/finclude/math-vector-fortran.h
REM seed -466978465 1233660738 -205841056 -1618432028 -1457670720 718165152 -2123074956 1000533121 -1706688018 1105685406 -1504503644 -1861356798 1478932760 22632778 -1454409238 -699310462 1116150861 301727937 411460227 1659762615 1511322596 -1066519228 1636786002 -1850608649 -1583724104 -1975298807 -396350031 1999971692 1197661120 1983238628 -491680768 394044651 -96903877
REM
CELL 1.54180   50.00000   50.00000   50.00000   90.00000   90.00000   90.00000
LATT -1
SFAC C  
C      1  0.4637710000000  0.5551080000000  0.6188460000000 1.0
C      1  0.4593140000000  0.5718090000000  0.4925110000000 1.0
C      1  0.5311450000000  0.5394040000000  0.5898420000000 1.0
C      1  0.5025890000000  0.5317940000000  0.4769600000000 1.0
C      1  0.4781590000000  0.5258990000000  0.5821570000000 1.0
C      1  0.5194040000000  0.5544860000000  0.4843560000000 1.0
C      1  0.4066290000000  0.4282680000000  0.3992560000000 1.0
C      1  0.4750680000000  0.4571140000000  0.4874490000000 1.0
C      1  0.4756010000000  0.4558150000000  0.4106570000000 1.0
C      1  0.4318000000000  0.4596290000000  0.4627240000000 1.0
C      1  0.5599770000000  0.4666880000000  0.4484330000000 1.0
C      1  0.4763850000000  0.4628220000000  0.5147350000000 1.0
C      1  0.5364170000000  0.4742880000000  0.5059470000000 1.0
C      1  0.5682580000000  0.5167930000000  0.5356140000000 1.0
C      1  0.4257890000000  0.4402690000000  0.4145130000000 1.0
C      1  0.4876450000000  0.4675890000000  0.4331460000000 1.0
C      1  0.4792910000000  0.4896690000000  0.5255280000000 1.0
C      1  0.4307050000000  0.5333910000000  0.5933720000000 1.0
C      1  0.4865880000000  0.4180620000000  0.5453810000000 1.0
C      1  0.5355700000000  0.4561870000000  0.4444390000000 1.0
C      1  0.5037990000000  0.5241730000000  0.4102410000000 1.0
C      1  0.4703590000000  0.4850570000000  0.4489400000000 1.0
C      1  0.4706020000000  0.5132710000000  0.4456980000000 1.0
C      1  0.5183860000000  0.5091990000000  0.4695600000000 1.0
C      1  0.5471500000000  0.5516750000000  0.4769030000000 1.0
C      1  0.5454490000000  0.5168120000000  0.5492340000000 1.0
C      1  0.4208410000000  0.4481380000000  0.4411390000000 1.0
C      1  0.5246780000000  0.4897250000000  0.4884790000000 1.0
C      1  0.5767080000000  0.4857580000000  0.4574560000000 1.0
C      1  0.4567300000000  0.5487210000000  0.4788700000000 1.0
C      1  0.4983990000000  0.5126990000000  0.5667120000000 1.0
C      1  0.4971170000000  0.4176040000000  0.5710920000000 1.0
C      1  0.5579900000000  0.5298540000000  0.4615910000000 1.0
C      1  0.5074950000000  0.5767860000000  0.4964780000000 1.0
C      1  0.4938090000000  0.4624700000000  0.5594430000000 1.0
C      1  0.5785410000000  0.5115710000000  0.4693800000000 1.0
C      1  0.4851860000000  0.5442830000000  0.6038050000000 1.0
C      1  0.5078300000000  0.4542070000000  0.4487850000000 1.0
C      1  0.5276740000000  0.5196830000000  0.4217750000000 1.0
C      1  0.4912870000000  0.4900490000000  0.5518730000000 1.0
C      1  0.4568330000000  0.4702910000000  0.4696000000000 1.0
C      1  0.6161060000000  0.5217280000000  0.5346410000000 1.0
C      1  0.5015720000000  0.4435960000000  0.5798470000000 1.0
C      1  0.5255570000000  0.5222530000000  0.5680040000000 1.0
C      1  0.4374960000000  0.5500120000000  0.6138630000000 1.0
C      1  0.4753310000000  0.5307380000000  0.4680180000000 1.0
C      1  0.4502340000000  0.5219910000000  0.5782130000000 1.0
C      1  0.5364200000000  0.5163000000000  0.4480320000000 1.0
C      1  0.4971540000000  0.4450730000000  0.4737370000000 1.0
C      1  0.4516440000000  0.4454960000000  0.4045350000000 1.0
C      1  0.5125880000000  0.5497220000000  0.6065020000000 1.0
C      1  0.4819170000000  0.5843490000000  0.5002320000000 1.0
C      1  0.5919780000000  0.5154650000000  0.4935170000000 1.0
C      1  0.4788050000000  0.5228370000000  0.4202840000000 1.0
C      1  0.5924540000000  0.5180450000000  0.5214350000000 1.0
C      1  0.4837760000000  0.4452850000000  0.5362190000000 1.0
END
