TITL C-612604-1799-189 6.4758842799647 125000 -1195.32588737646 0 0 193 (C1) n - 1
REM
REM in /home/nfs/bkarasulu/CARBON/AIRSS/Generating-Clusters/TERSOFF/Only-C1/FIRE-HFTN
REM
REM
REM
REM
REM
REM ./C.cell (11c1c37f851c82e70ff6c80c92926a4b)
REM AIRSS Version 0.9.1 bugfix July 2018 build 013d7b7c2542+ Fri, 06 Jul 2018 19:26:36 +0100
REM compiler GCC version 9.2.1 20190827 (Red Hat 9.2.1-1)
REM options -cpp -mtune=generic -march=x86-64 -g -O0 -fpre-include=/usr/include/finclude/math-vector-fortran.h
REM seed -1186259459 -873678708 204468667 -883629106 989438466 542810424 1165293293 -1235080111 643468473 1887943566 -1422336573 -477173372 -858922542 -1039951839 1865146918 -194769103 -1885915875 61333042 -1782312003 -1803954078 -1603785669 -703526944 1195233931 1387413317 1411227142 -1664790112 -178036472 -77934548 456308735 375624464 -697410117 1125969695 1081942231
REM
CELL 1.54180   50.00000   50.00000   50.00000   90.00000   90.00000   90.00000
LATT -1
SFAC C  
C      1  0.5302250000000  0.4866580000000  0.5990040000000 1.0
C      1  0.5825310000000  0.5423710000000  0.5618310000000 1.0
C      1  0.4834310000000  0.5469020000000  0.6099360000000 1.0
C      1  0.5862760000000  0.5147530000000  0.4905110000000 1.0
C      1  0.4563090000000  0.4540050000000  0.6191970000000 1.0
C      1  0.5458520000000  0.5013190000000  0.5575960000000 1.0
C      1  0.4318890000000  0.5734210000000  0.5211640000000 1.0
C      1  0.5476380000000  0.6128460000000  0.5558650000000 1.0
C      1  0.4596630000000  0.5810170000000  0.4134080000000 1.0
C      1  0.4477520000000  0.4833430000000  0.5820210000000 1.0
C      1  0.4366950000000  0.4739830000000  0.6079720000000 1.0
C      1  0.5732790000000  0.5570320000000  0.5835740000000 1.0
C      1  0.5955670000000  0.6037960000000  0.5342650000000 1.0
C      1  0.5063770000000  0.4736980000000  0.5883050000000 1.0
C      1  0.6115230000000  0.5573540000000  0.4340180000000 1.0
C      1  0.5857810000000  0.4430280000000  0.5185720000000 1.0
C      1  0.5286070000000  0.4987890000000  0.4950770000000 1.0
C      1  0.4512830000000  0.5148180000000  0.6291100000000 1.0
C      1  0.4778670000000  0.4950150000000  0.5097160000000 1.0
C      1  0.3630620000000  0.4892570000000  0.4729790000000 1.0
C      1  0.4225180000000  0.5723840000000  0.5489870000000 1.0
C      1  0.5680210000000  0.5205380000000  0.5505070000000 1.0
C      1  0.5560600000000  0.4908420000000  0.5850470000000 1.0
C      1  0.5514070000000  0.4848130000000  0.4992450000000 1.0
C      1  0.5107180000000  0.5397010000000  0.4824580000000 1.0
C      1  0.4753190000000  0.3861570000000  0.5162450000000 1.0
C      1  0.4887220000000  0.5974540000000  0.4586510000000 1.0
C      1  0.4567880000000  0.5379350000000  0.6124560000000 1.0
C      1  0.4675930000000  0.4233800000000  0.4875530000000 1.0
C      1  0.4417940000000  0.5286790000000  0.5014940000000 1.0
C      1  0.3710730000000  0.5481510000000  0.5591850000000 1.0
C      1  0.3803900000000  0.4591770000000  0.5054820000000 1.0
C      1  0.3989960000000  0.6172380000000  0.5682700000000 1.0
C      1  0.5652680000000  0.5597740000000  0.5097190000000 1.0
C      1  0.4460650000000  0.6018800000000  0.4803030000000 1.0
C      1  0.6208030000000  0.5290060000000  0.5341230000000 1.0
C      1  0.5211090000000  0.6146420000000  0.5489940000000 1.0
C      1  0.5377210000000  0.4494020000000  0.5621850000000 1.0
C      1  0.4892630000000  0.3953170000000  0.4067040000000 1.0
C      1  0.4748160000000  0.6043440000000  0.4834900000000 1.0
C      1  0.6133460000000  0.5802430000000  0.4879090000000 1.0
C      1  0.5493620000000  0.6040950000000  0.4700540000000 1.0
C      1  0.4859370000000  0.4016130000000  0.4937800000000 1.0
C      1  0.5198820000000  0.4627310000000  0.3917910000000 1.0
C      1  0.3817640000000  0.4349400000000  0.4912460000000 1.0
C      1  0.4380060000000  0.4688270000000  0.4033170000000 1.0
C      1  0.5148710000000  0.4462280000000  0.5790260000000 1.0
C      1  0.4425380000000  0.5084180000000  0.4574520000000 1.0
C      1  0.5422890000000  0.5427530000000  0.4075720000000 1.0
C      1  0.5253560000000  0.5680770000000  0.4453530000000 1.0
C      1  0.4977560000000  0.5745150000000  0.5114200000000 1.0
C      1  0.3691340000000  0.5017770000000  0.5489740000000 1.0
C      1  0.5946790000000  0.4664780000000  0.4785500000000 1.0
C      1  0.5174820000000  0.4218470000000  0.5178540000000 1.0
C      1  0.4848830000000  0.5434870000000  0.5496960000000 1.0
C      1  0.6144440000000  0.5019460000000  0.5408530000000 1.0
C      1  0.4534470000000  0.5220390000000  0.4342380000000 1.0
C      1  0.4713240000000  0.4443790000000  0.5954330000000 1.0
C      1  0.5342310000000  0.5177830000000  0.4485230000000 1.0
C      1  0.5500620000000  0.4695000000000  0.3926900000000 1.0
C      1  0.4215940000000  0.4834200000000  0.5104720000000 1.0
C      1  0.5577360000000  0.5853980000000  0.5125950000000 1.0
C      1  0.5325500000000  0.4032410000000  0.5326290000000 1.0
C      1  0.5676050000000  0.4225840000000  0.4549420000000 1.0
C      1  0.4255220000000  0.4215510000000  0.3988730000000 1.0
C      1  0.4906710000000  0.6022000000000  0.5082100000000 1.0
C      1  0.5950820000000  0.4761910000000  0.4175290000000 1.0
C      1  0.4134760000000  0.4440600000000  0.4409830000000 1.0
C      1  0.5279900000000  0.5190320000000  0.4761020000000 1.0
C      1  0.5237710000000  0.5210060000000  0.5617690000000 1.0
C      1  0.4962070000000  0.4925440000000  0.4256280000000 1.0
C      1  0.5743710000000  0.4503900000000  0.4924660000000 1.0
C      1  0.6099620000000  0.4936310000000  0.4315060000000 1.0
C      1  0.4049030000000  0.5773220000000  0.4794740000000 1.0
C      1  0.4766340000000  0.4726920000000  0.5829840000000 1.0
C      1  0.4127170000000  0.4435460000000  0.5373420000000 1.0
C      1  0.6081110000000  0.5472260000000  0.5512820000000 1.0
C      1  0.4291010000000  0.4970120000000  0.6232590000000 1.0
C      1  0.5634900000000  0.4375280000000  0.5621670000000 1.0
C      1  0.4220840000000  0.4273820000000  0.4636250000000 1.0
C      1  0.5098590000000  0.4562520000000  0.4597690000000 1.0
C      1  0.6064250000000  0.4846700000000  0.5649710000000 1.0
C      1  0.4800190000000  0.5189270000000  0.4231500000000 1.0
C      1  0.5088780000000  0.6193210000000  0.5229860000000 1.0
C      1  0.5207210000000  0.4362050000000  0.4042780000000 1.0
C      1  0.4515970000000  0.5537830000000  0.5156990000000 1.0
C      1  0.6091550000000  0.5928590000000  0.5133750000000 1.0
C      1  0.4844420000000  0.5340470000000  0.4767290000000 1.0
C      1  0.4267370000000  0.4444650000000  0.4149380000000 1.0
C      1  0.3936410000000  0.5124850000000  0.4429110000000 1.0
C      1  0.4870660000000  0.4694340000000  0.4475020000000 1.0
C      1  0.5600510000000  0.4034580000000  0.5246280000000 1.0
C      1  0.4998560000000  0.5795040000000  0.4388100000000 1.0
C      1  0.5366260000000  0.5434850000000  0.4356480000000 1.0
C      1  0.4529770000000  0.3698250000000  0.5088990000000 1.0
C      1  0.4253390000000  0.5495830000000  0.5679550000000 1.0
C      1  0.4340150000000  0.5066830000000  0.5215870000000 1.0
C      1  0.4103450000000  0.5956620000000  0.5590650000000 1.0
C      1  0.5347270000000  0.4736220000000  0.5461560000000 1.0
C      1  0.5535470000000  0.4378700000000  0.4761300000000 1.0
C      1  0.5068300000000  0.5426570000000  0.5671680000000 1.0
C      1  0.4392240000000  0.4735910000000  0.4902440000000 1.0
C      1  0.4234570000000  0.4181260000000  0.5322410000000 1.0
C      1  0.3643060000000  0.4818650000000  0.5000420000000 1.0
C      1  0.6232620000000  0.4261420000000  0.4637760000000 1.0
C      1  0.5740470000000  0.6103820000000  0.5496260000000 1.0
C      1  0.6093790000000  0.4565040000000  0.5271330000000 1.0
C      1  0.6284940000000  0.5377650000000  0.5078500000000 1.0
C      1  0.6002840000000  0.4904470000000  0.4931010000000 1.0
C      1  0.4697700000000  0.5200320000000  0.5525720000000 1.0
C      1  0.4036470000000  0.4645950000000  0.5211770000000 1.0
C      1  0.4385110000000  0.6030390000000  0.4522770000000 1.0
C      1  0.6221100000000  0.5521570000000  0.4836670000000 1.0
C      1  0.5170770000000  0.5653960000000  0.4917310000000 1.0
C      1  0.4941360000000  0.4763880000000  0.3989540000000 1.0
C      1  0.3927700000000  0.4632890000000  0.4444470000000 1.0
C      1  0.5937570000000  0.5497760000000  0.4132470000000 1.0
C      1  0.4647640000000  0.4695810000000  0.5014980000000 1.0
C      1  0.3811860000000  0.4882430000000  0.4512980000000 1.0
C      1  0.4925170000000  0.4049360000000  0.5626240000000 1.0
C      1  0.5072390000000  0.4129710000000  0.3982780000000 1.0
C      1  0.5332180000000  0.5782510000000  0.4706850000000 1.0
C      1  0.4917810000000  0.5417460000000  0.4088850000000 1.0
C      1  0.5905340000000  0.4333500000000  0.6033380000000 1.0
C      1  0.4020740000000  0.5316540000000  0.4637860000000 1.0
C      1  0.5258580000000  0.4941340000000  0.4348300000000 1.0
C      1  0.4300460000000  0.5360900000000  0.4223920000000 1.0
C      1  0.4602160000000  0.4652760000000  0.4492100000000 1.0
C      1  0.3621760000000  0.4832010000000  0.5679050000000 1.0
C      1  0.4764630000000  0.4449490000000  0.5051890000000 1.0
C      1  0.5169110000000  0.5398700000000  0.3946060000000 1.0
C      1  0.4376030000000  0.5845820000000  0.4306630000000 1.0
C      1  0.5067790000000  0.4913990000000  0.5114580000000 1.0
C      1  0.4919780000000  0.4276600000000  0.5810940000000 1.0
C      1  0.4207260000000  0.4917850000000  0.4045530000000 1.0
C      1  0.5776270000000  0.6023810000000  0.4621630000000 1.0
C      1  0.3601890000000  0.4985470000000  0.5223260000000 1.0
C      1  0.4104790000000  0.5143070000000  0.4189810000000 1.0
C      1  0.5814690000000  0.4020230000000  0.4713060000000 1.0
C      1  0.4163040000000  0.4044440000000  0.5076190000000 1.0
C      1  0.6191670000000  0.5126420000000  0.4482160000000 1.0
C      1  0.6167470000000  0.4583690000000  0.5549710000000 1.0
C      1  0.4493420000000  0.4183330000000  0.4659490000000 1.0
C      1  0.4050940000000  0.4198330000000  0.4857980000000 1.0
C      1  0.5238190000000  0.4352320000000  0.4749040000000 1.0
C      1  0.5010460000000  0.4449520000000  0.5215090000000 1.0
C      1  0.5184750000000  0.3944420000000  0.5555740000000 1.0
C      1  0.5737350000000  0.4589900000000  0.4103730000000 1.0
C      1  0.4842640000000  0.5681810000000  0.4179530000000 1.0
C      1  0.4694170000000  0.5176210000000  0.4924930000000 1.0
C      1  0.5368020000000  0.4415240000000  0.4270800000000 1.0
C      1  0.4602550000000  0.5018190000000  0.5342710000000 1.0
C      1  0.4287980000000  0.5005290000000  0.5689490000000 1.0
C      1  0.4457490000000  0.4090540000000  0.5468810000000 1.0
C      1  0.4789100000000  0.5580780000000  0.5258940000000 1.0
C      1  0.4257340000000  0.5879710000000  0.4965000000000 1.0
C      1  0.6153080000000  0.4518220000000  0.4658410000000 1.0
C      1  0.4719730000000  0.3989030000000  0.5429940000000 1.0
C      1  0.6190470000000  0.5399040000000  0.4561380000000 1.0
C      1  0.5543240000000  0.5665920000000  0.5995090000000 1.0
C      1  0.4657740000000  0.4701410000000  0.3940010000000 1.0
C      1  0.5702160000000  0.3954430000000  0.4980200000000 1.0
C      1  0.4266940000000  0.5240880000000  0.4760270000000 1.0
C      1  0.4210600000000  0.5617100000000  0.4336220000000 1.0
C      1  0.6039120000000  0.5935440000000  0.4641860000000 1.0
C      1  0.5133580000000  0.4699340000000  0.5281540000000 1.0
C      1  0.4712200000000  0.3905910000000  0.4256220000000 1.0
C      1  0.5737500000000  0.5370880000000  0.4983830000000 1.0
C      1  0.4706130000000  0.4969480000000  0.6419230000000 1.0
C      1  0.5728580000000  0.4260640000000  0.5370830000000 1.0
C      1  0.4038420000000  0.5594590000000  0.4571690000000 1.0
C      1  0.5053930000000  0.5532050000000  0.5936780000000 1.0
C      1  0.4219640000000  0.4016870000000  0.3823800000000 1.0
C      1  0.5650280000000  0.4364820000000  0.4284740000000 1.0
C      1  0.6096090000000  0.4030470000000  0.4675630000000 1.0
C      1  0.5280410000000  0.5661140000000  0.6036960000000 1.0
C      1  0.5822710000000  0.4775480000000  0.5817070000000 1.0
C      1  0.4277680000000  0.3787260000000  0.5041890000000 1.0
C      1  0.4421260000000  0.4809220000000  0.4632010000000 1.0
C      1  0.4705160000000  0.4692630000000  0.6396700000000 1.0
C      1  0.5309970000000  0.6285260000000  0.5074010000000 1.0
C      1  0.6122040000000  0.4841550000000  0.5179460000000 1.0
C      1  0.4577070000000  0.3998440000000  0.4464680000000 1.0
C      1  0.5355870000000  0.6255620000000  0.4540450000000 1.0
C      1  0.5122010000000  0.4137760000000  0.4905530000000 1.0
C      1  0.3847030000000  0.5243400000000  0.5566670000000 1.0
C      1  0.5307100000000  0.4660100000000  0.4416390000000 1.0
C      1  0.5797480000000  0.4482890000000  0.5832350000000 1.0
C      1  0.4126470000000  0.5237500000000  0.5631490000000 1.0
C      1  0.4388880000000  0.5497940000000  0.5933090000000 1.0
C      1  0.5696720000000  0.5455980000000  0.4018150000000 1.0
C      1  0.5500110000000  0.6094680000000  0.4993100000000 1.0
C      1  0.6152610000000  0.5845700000000  0.4400060000000 1.0
END
