TITL C-612605-9286-1298 0.0995539542983621 125000 -506.057573478549 0 0 84 (C1) n - 1
REM
REM in /home/nfs/bkarasulu/CARBON/AIRSS/Generating-Clusters/TERSOFF/Only-C1/FIRE-HFTN
REM
REM
REM
REM
REM
REM ./C.cell (11c1c37f851c82e70ff6c80c92926a4b)
REM AIRSS Version 0.9.1 bugfix July 2018 build 013d7b7c2542+ Fri, 06 Jul 2018 19:26:36 +0100
REM compiler GCC version 9.2.1 20190827 (Red Hat 9.2.1-1)
REM options -cpp -mtune=generic -march=x86-64 -g -O0 -fpre-include=/usr/include/finclude/math-vector-fortran.h
REM seed 1886489600 674888029 -1887286413 1769294152 -2102536889 -2015081319 765379242 730229353 444471369 848925687 1050751326 353245132 -1902728757 -1920780002 -1606638197 1841498495 1884882395 -2083075645 1851945057 218944248 -2137631524 1166416190 1401448903 1615181074 1810221195 -232346085 941704787 909510210 1718941398 -683008537 1649125233 -1702530540 -1099093106
REM
CELL 1.54180   50.00000   50.00000   50.00000   90.00000   90.00000   90.00000
LATT -1
SFAC C  
C      1  0.4444280000000  0.4649160000000  0.5698910000000 1.0
C      1  0.4798320000000  0.5893400000000  0.5181210000000 1.0
C      1  0.4424560000000  0.4903010000000  0.4329170000000 1.0
C      1  0.4878030000000  0.4951700000000  0.5827730000000 1.0
C      1  0.4205720000000  0.4505280000000  0.5245970000000 1.0
C      1  0.4877420000000  0.4064600000000  0.5177290000000 1.0
C      1  0.5273430000000  0.5852090000000  0.5334180000000 1.0
C      1  0.4583360000000  0.5315800000000  0.5628850000000 1.0
C      1  0.4228000000000  0.4056440000000  0.4197610000000 1.0
C      1  0.4344280000000  0.4175430000000  0.4398180000000 1.0
C      1  0.5481630000000  0.5500010000000  0.5586520000000 1.0
C      1  0.4648090000000  0.4777840000000  0.5822190000000 1.0
C      1  0.4989720000000  0.5832200000000  0.5392580000000 1.0
C      1  0.4827740000000  0.4710410000000  0.4763900000000 1.0
C      1  0.5037340000000  0.5136660000000  0.4752210000000 1.0
C      1  0.5268390000000  0.4985070000000  0.4686890000000 1.0
C      1  0.5570940000000  0.5513220000000  0.5095760000000 1.0
C      1  0.4970750000000  0.5530680000000  0.4990210000000 1.0
C      1  0.5779190000000  0.4914280000000  0.5400610000000 1.0
C      1  0.6255500000000  0.4659980000000  0.5477740000000 1.0
C      1  0.5379580000000  0.6101170000000  0.5284890000000 1.0
C      1  0.5015690000000  0.5454030000000  0.5752640000000 1.0
C      1  0.4286110000000  0.4554730000000  0.5500360000000 1.0
C      1  0.5923900000000  0.5314790000000  0.4829910000000 1.0
C      1  0.4729420000000  0.4200470000000  0.4690840000000 1.0
C      1  0.4565620000000  0.5633840000000  0.4762810000000 1.0
C      1  0.4829970000000  0.5227930000000  0.5769610000000 1.0
C      1  0.4573930000000  0.5022930000000  0.5195900000000 1.0
C      1  0.5135860000000  0.5712910000000  0.4492790000000 1.0
C      1  0.4096240000000  0.5629580000000  0.4914010000000 1.0
C      1  0.5059280000000  0.4379100000000  0.4326610000000 1.0
C      1  0.4967320000000  0.5369860000000  0.4189590000000 1.0
C      1  0.5113480000000  0.4690770000000  0.5511190000000 1.0
C      1  0.4918670000000  0.5574030000000  0.4384960000000 1.0
C      1  0.6482890000000  0.4535450000000  0.5505060000000 1.0
C      1  0.4807440000000  0.5158520000000  0.4125470000000 1.0
C      1  0.4756360000000  0.5711710000000  0.4963650000000 1.0
C      1  0.4785970000000  0.4992660000000  0.4758820000000 1.0
C      1  0.4648940000000  0.5572930000000  0.4491620000000 1.0
C      1  0.4332910000000  0.5209200000000  0.4822300000000 1.0
C      1  0.5006220000000  0.4862860000000  0.5314180000000 1.0
C      1  0.5726890000000  0.4997980000000  0.5130770000000 1.0
C      1  0.4739060000000  0.4801600000000  0.5248380000000 1.0
C      1  0.5135470000000  0.4834310000000  0.5756980000000 1.0
C      1  0.5528640000000  0.4877630000000  0.4024390000000 1.0
C      1  0.5607960000000  0.4951060000000  0.5622530000000 1.0
C      1  0.5068020000000  0.4594530000000  0.4865350000000 1.0
C      1  0.5264910000000  0.4788960000000  0.4896770000000 1.0
C      1  0.4301130000000  0.4796700000000  0.4559750000000 1.0
C      1  0.5107480000000  0.5112110000000  0.5224350000000 1.0
C      1  0.4032790000000  0.4830450000000  0.4928250000000 1.0
C      1  0.4472630000000  0.4310800000000  0.4608970000000 1.0
C      1  0.4547060000000  0.5140140000000  0.4238080000000 1.0
C      1  0.5180150000000  0.4346500000000  0.4780270000000 1.0
C      1  0.4573780000000  0.5098500000000  0.4922880000000 1.0
C      1  0.5220840000000  0.4581560000000  0.4248380000000 1.0
C      1  0.5745810000000  0.5283680000000  0.5054480000000 1.0
C      1  0.5122180000000  0.4412850000000  0.5475900000000 1.0
C      1  0.5026050000000  0.4190040000000  0.5362010000000 1.0
C      1  0.4747350000000  0.4067440000000  0.4942210000000 1.0
C      1  0.5501500000000  0.5651430000000  0.4856660000000 1.0
C      1  0.4666820000000  0.4543180000000  0.5210470000000 1.0
C      1  0.4320660000000  0.5495190000000  0.4835930000000 1.0
C      1  0.6024410000000  0.4786050000000  0.5447950000000 1.0
C      1  0.5908880000000  0.5143710000000  0.4618540000000 1.0
C      1  0.4176160000000  0.4579000000000  0.4973660000000 1.0
C      1  0.5729890000000  0.4924510000000  0.4635010000000 1.0
C      1  0.4163190000000  0.4997460000000  0.4732900000000 1.0
C      1  0.4608370000000  0.5601680000000  0.5608260000000 1.0
C      1  0.5350630000000  0.5726160000000  0.4650180000000 1.0
C      1  0.4992040000000  0.4260360000000  0.4575430000000 1.0
C      1  0.5473640000000  0.4928280000000  0.4502160000000 1.0
C      1  0.4887120000000  0.5680920000000  0.5611570000000 1.0
C      1  0.4330910000000  0.4540610000000  0.4715540000000 1.0
C      1  0.5460150000000  0.4336850000000  0.4835770000000 1.0
C      1  0.5724690000000  0.4799500000000  0.4903680000000 1.0
C      1  0.4472380000000  0.5395030000000  0.4346760000000 1.0
C      1  0.5400820000000  0.4922860000000  0.5793570000000 1.0
C      1  0.5408940000000  0.4795360000000  0.4256880000000 1.0
C      1  0.4479100000000  0.5171440000000  0.5413210000000 1.0
C      1  0.5453590000000  0.5622290000000  0.5334930000000 1.0
C      1  0.5650410000000  0.4520960000000  0.4907080000000 1.0
C      1  0.5070920000000  0.5277370000000  0.4997260000000 1.0
C      1  0.5294060000000  0.5446270000000  0.5771000000000 1.0
END
