TITL C-612607-4507-1153 0.000214768816824037 125000 -634.153992537347 0 0 106 (C1) n - 1
REM
REM in /home/nfs/bkarasulu/CARBON/AIRSS/Generating-Clusters/TERSOFF/Only-C1/FIRE-HFTN
REM
REM
REM
REM
REM
REM ./C.cell (11c1c37f851c82e70ff6c80c92926a4b)
REM AIRSS Version 0.9.1 bugfix July 2018 build 013d7b7c2542+ Fri, 06 Jul 2018 19:26:36 +0100
REM compiler GCC version 9.2.1 20190827 (Red Hat 9.2.1-1)
REM options -cpp -mtune=generic -march=x86-64 -g -O0 -fpre-include=/usr/include/finclude/math-vector-fortran.h
REM seed -904136272 1575766921 -1275728065 560800636 479193688 -963121334 -1088974109 1039533430 957584849 143933150 654962007 593227465 -1627946328 -49691163 -675830692 2102438638 -1106320713 -1128006067 187385424 1243026084 -931136184 -836665261 -425748380 1162181769 -439203745 -507022640 -1257492287 1325575161 1344910360 -307006306 -2003253001 160466858 1717193916
REM
CELL 1.54180   50.00000   50.00000   50.00000   90.00000   90.00000   90.00000
LATT -1
SFAC C  
C      1  0.5309740000000  0.4982270000000  0.5516530000000 1.0
C      1  0.5900210000000  0.4525570000000  0.5831330000000 1.0
C      1  0.4148030000000  0.4896590000000  0.5362370000000 1.0
C      1  0.4956070000000  0.4779560000000  0.3898540000000 1.0
C      1  0.5103150000000  0.5244650000000  0.5846960000000 1.0
C      1  0.5081490000000  0.4239680000000  0.5399990000000 1.0
C      1  0.5501410000000  0.5693250000000  0.6022030000000 1.0
C      1  0.5476390000000  0.5025670000000  0.5015270000000 1.0
C      1  0.5157920000000  0.5232640000000  0.4001760000000 1.0
C      1  0.5928320000000  0.5319610000000  0.5439730000000 1.0
C      1  0.4089290000000  0.5104160000000  0.5573790000000 1.0
C      1  0.5296710000000  0.5885830000000  0.6035790000000 1.0
C      1  0.5339470000000  0.6125620000000  0.6172160000000 1.0
C      1  0.6054790000000  0.4718470000000  0.5062820000000 1.0
C      1  0.4844210000000  0.4906500000000  0.5090990000000 1.0
C      1  0.5606320000000  0.5229690000000  0.5801700000000 1.0
C      1  0.4152680000000  0.4251810000000  0.4948030000000 1.0
C      1  0.5048880000000  0.5836560000000  0.5912090000000 1.0
C      1  0.4285570000000  0.5328410000000  0.5543660000000 1.0
C      1  0.4569810000000  0.5084310000000  0.3879720000000 1.0
C      1  0.4019780000000  0.5554430000000  0.3965920000000 1.0
C      1  0.5017220000000  0.4332440000000  0.5659870000000 1.0
C      1  0.5763270000000  0.4607060000000  0.5606060000000 1.0
C      1  0.5120940000000  0.4774260000000  0.5495660000000 1.0
C      1  0.5732810000000  0.5716770000000  0.4647400000000 1.0
C      1  0.5563840000000  0.4425190000000  0.5507240000000 1.0
C      1  0.4480930000000  0.4529240000000  0.5463190000000 1.0
C      1  0.4565450000000  0.4306210000000  0.5292790000000 1.0
C      1  0.5421050000000  0.4839700000000  0.3906880000000 1.0
C      1  0.5237450000000  0.5839650000000  0.4429420000000 1.0
C      1  0.5414180000000  0.4638190000000  0.4390980000000 1.0
C      1  0.4893790000000  0.4290720000000  0.4881760000000 1.0
C      1  0.5374950000000  0.4632740000000  0.4100670000000 1.0
C      1  0.4374250000000  0.4743130000000  0.5302870000000 1.0
C      1  0.4316500000000  0.4724770000000  0.4581830000000 1.0
C      1  0.4646440000000  0.4320350000000  0.4721700000000 1.0
C      1  0.4990680000000  0.4611400000000  0.5692140000000 1.0
C      1  0.5955170000000  0.4915410000000  0.5231320000000 1.0
C      1  0.4804690000000  0.4888440000000  0.6035640000000 1.0
C      1  0.4530790000000  0.5460980000000  0.5528120000000 1.0
C      1  0.5173720000000  0.4517950000000  0.4516530000000 1.0
C      1  0.4529220000000  0.4542790000000  0.4628690000000 1.0
C      1  0.5928270000000  0.5351690000000  0.4938440000000 1.0
C      1  0.5173790000000  0.4985900000000  0.3856890000000 1.0
C      1  0.4510550000000  0.4607380000000  0.5740530000000 1.0
C      1  0.4783590000000  0.5326780000000  0.5459980000000 1.0
C      1  0.4598250000000  0.5701250000000  0.5679790000000 1.0
C      1  0.5623560000000  0.5466580000000  0.5951460000000 1.0
C      1  0.4894960000000  0.5471910000000  0.4772620000000 1.0
C      1  0.4764520000000  0.4693090000000  0.5838540000000 1.0
C      1  0.3811510000000  0.5200890000000  0.5560050000000 1.0
C      1  0.4894000000000  0.4823370000000  0.4802380000000 1.0
C      1  0.4672760000000  0.4821990000000  0.3890940000000 1.0
C      1  0.5283480000000  0.5344610000000  0.4500700000000 1.0
C      1  0.4604740000000  0.5152270000000  0.4562520000000 1.0
C      1  0.5750890000000  0.5013950000000  0.4402710000000 1.0
C      1  0.4036080000000  0.4372150000000  0.4734810000000 1.0
C      1  0.4516500000000  0.5346240000000  0.3967770000000 1.0
C      1  0.4090820000000  0.4555250000000  0.4522490000000 1.0
C      1  0.6128130000000  0.4525550000000  0.4903720000000 1.0
C      1  0.4872900000000  0.5677160000000  0.5768280000000 1.0
C      1  0.5578910000000  0.4826370000000  0.4525720000000 1.0
C      1  0.4260570000000  0.5454920000000  0.3960670000000 1.0
C      1  0.4556890000000  0.4836700000000  0.5117920000000 1.0
C      1  0.4985010000000  0.5442230000000  0.3930490000000 1.0
C      1  0.4698530000000  0.5428430000000  0.4565830000000 1.0
C      1  0.3566050000000  0.5287250000000  0.5547950000000 1.0
C      1  0.4849460000000  0.5175440000000  0.5232670000000 1.0
C      1  0.5831370000000  0.5447520000000  0.4686830000000 1.0
C      1  0.4977970000000  0.5785700000000  0.4371460000000 1.0
C      1  0.5343910000000  0.5137260000000  0.5746630000000 1.0
C      1  0.5890110000000  0.5922480000000  0.4741620000000 1.0
C      1  0.4739120000000  0.5492190000000  0.4065800000000 1.0
C      1  0.5159900000000  0.5425810000000  0.4729340000000 1.0
C      1  0.5359590000000  0.4139170000000  0.4887380000000 1.0
C      1  0.5060050000000  0.4732640000000  0.5221950000000 1.0
C      1  0.5048500000000  0.4556930000000  0.4786900000000 1.0
C      1  0.4848570000000  0.4262440000000  0.5200200000000 1.0
C      1  0.5810570000000  0.5132660000000  0.5629210000000 1.0
C      1  0.4139610000000  0.4944560000000  0.5826580000000 1.0
C      1  0.5832080000000  0.5260400000000  0.4474460000000 1.0
C      1  0.5102620000000  0.4080160000000  0.4809970000000 1.0
C      1  0.4076380000000  0.4499280000000  0.4245290000000 1.0
C      1  0.5186640000000  0.5192730000000  0.4284550000000 1.0
C      1  0.4828580000000  0.4973400000000  0.4577480000000 1.0
C      1  0.5966640000000  0.5205920000000  0.5176490000000 1.0
C      1  0.5014560000000  0.4991340000000  0.4375150000000 1.0
C      1  0.5531380000000  0.4885160000000  0.4796380000000 1.0
C      1  0.4251980000000  0.4525020000000  0.4041730000000 1.0
C      1  0.4765280000000  0.5592680000000  0.4332210000000 1.0
C      1  0.5002470000000  0.4439740000000  0.4294910000000 1.0
C      1  0.5226150000000  0.4586570000000  0.5028910000000 1.0
C      1  0.4432520000000  0.5911180000000  0.5727310000000 1.0
C      1  0.5083320000000  0.4561090000000  0.4048000000000 1.0
C      1  0.5414660000000  0.5072090000000  0.5269860000000 1.0
C      1  0.4479800000000  0.4619310000000  0.3935340000000 1.0
C      1  0.5379380000000  0.6349500000000  0.6299480000000 1.0
C      1  0.4285360000000  0.4721750000000  0.5868660000000 1.0
C      1  0.5392690000000  0.4355820000000  0.5069440000000 1.0
C      1  0.5837950000000  0.4864000000000  0.5498290000000 1.0
C      1  0.4349430000000  0.4207830000000  0.5128710000000 1.0
C      1  0.4361550000000  0.5005020000000  0.4564020000000 1.0
C      1  0.4961340000000  0.5417750000000  0.5674540000000 1.0
C      1  0.5368290000000  0.4293010000000  0.5344380000000 1.0
C      1  0.5488730000000  0.5789800000000  0.4517260000000 1.0
C      1  0.4958630000000  0.5108050000000  0.6045480000000 1.0
END
