TITL C-612601-4209-1093 23495.7151128771 125000 -1120.30370616803 0 0 180 (C1) n - 1
REM
REM in /home/nfs/bkarasulu/CARBON/AIRSS/Generating-Clusters/TERSOFF/Only-C1/FIRE-HFTN
REM
REM
REM
REM
REM
REM ./C.cell (11c1c37f851c82e70ff6c80c92926a4b)
REM AIRSS Version 0.9.1 bugfix July 2018 build 013d7b7c2542+ Fri, 06 Jul 2018 19:26:36 +0100
REM compiler GCC version 9.2.1 20190827 (Red Hat 9.2.1-1)
REM options -cpp -mtune=generic -march=x86-64 -g -O0 -fpre-include=/usr/include/finclude/math-vector-fortran.h
REM seed 856446507 -512075813 2050217719 -1815087734 -906696085 -183210486 -1456961795 -828038306 -1514690261 1167479300 840617758 1168833733 1888511807 1855610400 800260203 763253681 -249718664 1755387735 -2035618052 1657120400 -351065562 155880483 600631158 75022455 -903872834 460181410 1671971868 -1069542796 -1306115557 -557988501 -445170369 -1109663016 -956589834
REM
CELL 1.54180   50.00000   50.00000   50.00000   90.00000   90.00000   90.00000
LATT -1
SFAC C  
C      1  0.4321800000000  0.4250390000000  0.4816020000000 1.0
C      1  0.5461850000000  0.5339790000000  0.4101260000000 1.0
C      1  0.3776150000000  0.4609930000000  0.4662280000000 1.0
C      1  0.5466520000000  0.5546650000000  0.5023130000000 1.0
C      1  0.4679940000000  0.5511330000000  0.4563620000000 1.0
C      1  0.4967270000000  0.5308660000000  0.5862870000000 1.0
C      1  0.4374490000000  0.3972610000000  0.5212610000000 1.0
C      1  0.5641820000000  0.5094110000000  0.5070090000000 1.0
C      1  0.4047240000000  0.4710050000000  0.6069530000000 1.0
C      1  0.5040690000000  0.4726180000000  0.7094340000000 1.0
C      1  0.5000540000000  0.4499560000000  0.4314200000000 1.0
C      1  0.4227210000000  0.5574850000000  0.4058300000000 1.0
C      1  0.4821910000000  0.4328860000000  0.5374710000000 1.0
C      1  0.4945120000000  0.4077620000000  0.5446600000000 1.0
C      1  0.4871400000000  0.6247260000000  0.5611930000000 1.0
C      1  0.4609930000000  0.5114530000000  0.5546760000000 1.0
C      1  0.4805980000000  0.4741470000000  0.4325420000000 1.0
C      1  0.5058830000000  0.6159940000000  0.5425820000000 1.0
C      1  0.5783850000000  0.4512400000000  0.5311940000000 1.0
C      1  0.5920720000000  0.4290940000000  0.4458550000000 1.0
C      1  0.4912990000000  0.4525020000000  0.5937890000000 1.0
C      1  0.6003330000000  0.4667060000000  0.5413620000000 1.0
C      1  0.4642500000000  0.3673300000000  0.4533910000000 1.0
C      1  0.5233540000000  0.4536450000000  0.4119050000000 1.0
C      1  0.4063010000000  0.4253650000000  0.5442520000000 1.0
C      1  0.5927860000000  0.4141900000000  0.4690800000000 1.0
C      1  0.5219990000000  0.6154130000000  0.4979550000000 1.0
C      1  0.4262120000000  0.6074000000000  0.5343560000000 1.0
C      1  0.4910050000000  0.5261570000000  0.6135030000000 1.0
C      1  0.5691390000000  0.5358860000000  0.5526820000000 1.0
C      1  0.4676720000000  0.5635420000000  0.3902580000000 1.0
C      1  0.5675650000000  0.4806090000000  0.4227860000000 1.0
C      1  0.5878800000000  0.4829270000000  0.4422130000000 1.0
C      1  0.4552720000000  0.4255400000000  0.4365190000000 1.0
C      1  0.5370710000000  0.5832900000000  0.4085840000000 1.0
C      1  0.5504620000000  0.4626570000000  0.5279240000000 1.0
C      1  0.5121370000000  0.4705420000000  0.6842730000000 1.0
C      1  0.5959070000000  0.4313380000000  0.4923400000000 1.0
C      1  0.4993940000000  0.5768220000000  0.4813680000000 1.0
C      1  0.5725750000000  0.5856000000000  0.4702310000000 1.0
C      1  0.5312510000000  0.4391250000000  0.4777410000000 1.0
C      1  0.5494970000000  0.5921310000000  0.5544840000000 1.0
C      1  0.5354510000000  0.6142470000000  0.5435210000000 1.0
C      1  0.4753420000000  0.3452140000000  0.4091010000000 1.0
C      1  0.5495620000000  0.4828020000000  0.5752440000000 1.0
C      1  0.4471480000000  0.4722940000000  0.5756210000000 1.0
C      1  0.6263970000000  0.4569140000000  0.5453110000000 1.0
C      1  0.5958860000000  0.5502730000000  0.4889040000000 1.0
C      1  0.4491690000000  0.5654790000000  0.4118230000000 1.0
C      1  0.5528700000000  0.4874820000000  0.5472560000000 1.0
C      1  0.5039680000000  0.4070730000000  0.5720840000000 1.0
C      1  0.3900580000000  0.5291480000000  0.4566360000000 1.0
C      1  0.5059230000000  0.5055080000000  0.4503430000000 1.0
C      1  0.5476720000000  0.5775750000000  0.4835660000000 1.0
C      1  0.5350840000000  0.5703040000000  0.5664900000000 1.0
C      1  0.5204570000000  0.5344660000000  0.5159520000000 1.0
C      1  0.4759120000000  0.4710390000000  0.5786620000000 1.0
C      1  0.4553190000000  0.4345210000000  0.5446180000000 1.0
C      1  0.5353860000000  0.4392630000000  0.5671760000000 1.0
C      1  0.4978410000000  0.6145960000000  0.4175830000000 1.0
C      1  0.6495100000000  0.4649650000000  0.5340460000000 1.0
C      1  0.4429240000000  0.5927530000000  0.4512300000000 1.0
C      1  0.5332280000000  0.4107320000000  0.5671300000000 1.0
C      1  0.5538520000000  0.5146480000000  0.4824730000000 1.0
C      1  0.4664040000000  0.5396830000000  0.5501500000000 1.0
C      1  0.4557410000000  0.6170230000000  0.4455390000000 1.0
C      1  0.5097020000000  0.5926970000000  0.4051810000000 1.0
C      1  0.4065290000000  0.4335980000000  0.4335570000000 1.0
C      1  0.5070710000000  0.3965060000000  0.4994310000000 1.0
C      1  0.3971450000000  0.4190770000000  0.5173440000000 1.0
C      1  0.4520010000000  0.5344600000000  0.5024870000000 1.0
C      1  0.5821330000000  0.4268960000000  0.5169840000000 1.0
C      1  0.4946440000000  0.5732420000000  0.3888130000000 1.0
C      1  0.4969720000000  0.5215780000000  0.5031540000000 1.0
C      1  0.4076180000000  0.4972780000000  0.4879470000000 1.0
C      1  0.4599970000000  0.5501390000000  0.5246010000000 1.0
C      1  0.5189950000000  0.4677130000000  0.6319590000000 1.0
C      1  0.4602740000000  0.5775190000000  0.5171900000000 1.0
C      1  0.4336510000000  0.5881880000000  0.5154990000000 1.0
C      1  0.4902480000000  0.4240830000000  0.5902670000000 1.0
C      1  0.4857620000000  0.3613060000000  0.3903740000000 1.0
C      1  0.4425770000000  0.5033990000000  0.6239610000000 1.0
C      1  0.6032110000000  0.4586460000000  0.4807430000000 1.0
C      1  0.4652600000000  0.4783780000000  0.4562800000000 1.0
C      1  0.5137380000000  0.5318970000000  0.4580410000000 1.0
C      1  0.4941540000000  0.4980610000000  0.4249150000000 1.0
C      1  0.4547760000000  0.5695220000000  0.4391820000000 1.0
C      1  0.5065890000000  0.5703040000000  0.5656740000000 1.0
C      1  0.4956440000000  0.5542440000000  0.4636340000000 1.0
C      1  0.4069300000000  0.5501330000000  0.4957220000000 1.0
C      1  0.5973420000000  0.5788310000000  0.4832050000000 1.0
C      1  0.5594520000000  0.5899510000000  0.4237570000000 1.0
C      1  0.4513010000000  0.4141960000000  0.4625610000000 1.0
C      1  0.5110050000000  0.5322680000000  0.3628970000000 1.0
C      1  0.4321770000000  0.4813170000000  0.4893620000000 1.0
C      1  0.4778270000000  0.6243270000000  0.4322950000000 1.0
C      1  0.4894110000000  0.4097080000000  0.4043300000000 1.0
C      1  0.5750980000000  0.5505400000000  0.5094050000000 1.0
C      1  0.4340720000000  0.4164410000000  0.5430720000000 1.0
C      1  0.5959440000000  0.5336390000000  0.4640340000000 1.0
C      1  0.5376650000000  0.4598770000000  0.5865980000000 1.0
C      1  0.4371440000000  0.6218350000000  0.5540450000000 1.0
C      1  0.5406430000000  0.4591030000000  0.4985810000000 1.0
C      1  0.5570000000000  0.5344320000000  0.4362430000000 1.0
C      1  0.4211640000000  0.4880190000000  0.6194620000000 1.0
C      1  0.4290360000000  0.4528280000000  0.4867990000000 1.0
C      1  0.5973730000000  0.4951200000000  0.5415200000000 1.0
C      1  0.4847260000000  0.4946450000000  0.5630660000000 1.0
C      1  0.5203230000000  0.5235950000000  0.5430980000000 1.0
C      1  0.6124200000000  0.4866070000000  0.4823020000000 1.0
C      1  0.4974060000000  0.4755180000000  0.5115680000000 1.0
C      1  0.5239970000000  0.5922500000000  0.4812050000000 1.0
C      1  0.4135800000000  0.4923620000000  0.3795130000000 1.0
C      1  0.3958990000000  0.4543390000000  0.5879720000000 1.0
C      1  0.5175360000000  0.4694110000000  0.6583530000000 1.0
C      1  0.4798600000000  0.3888860000000  0.4937710000000 1.0
C      1  0.5749690000000  0.5768000000000  0.4431330000000 1.0
C      1  0.5145630000000  0.3967050000000  0.5268050000000 1.0
C      1  0.4608490000000  0.6277250000000  0.5649060000000 1.0
C      1  0.6533240000000  0.4817420000000  0.5133570000000 1.0
C      1  0.5408400000000  0.3993160000000  0.5401690000000 1.0
C      1  0.5751870000000  0.5836740000000  0.5452430000000 1.0
C      1  0.5003330000000  0.4539270000000  0.5306400000000 1.0
C      1  0.5810470000000  0.5480350000000  0.4424530000000 1.0
C      1  0.6368150000000  0.4921120000000  0.4949390000000 1.0
C      1  0.5156620000000  0.4542780000000  0.4576020000000 1.0
C      1  0.5422350000000  0.5286310000000  0.4600720000000 1.0
C      1  0.5383530000000  0.5573350000000  0.3958050000000 1.0
C      1  0.5146380000000  0.4827030000000  0.4663900000000 1.0
C      1  0.5478200000000  0.4652550000000  0.4125010000000 1.0
C      1  0.4669160000000  0.3491830000000  0.4341490000000 1.0
C      1  0.4818550000000  0.4269280000000  0.4251810000000 1.0
C      1  0.4667890000000  0.3906890000000  0.4685890000000 1.0
C      1  0.5158090000000  0.5556540000000  0.3776740000000 1.0
C      1  0.5992810000000  0.5038770000000  0.4614670000000 1.0
C      1  0.4611660000000  0.3840510000000  0.5146460000000 1.0
C      1  0.4855360000000  0.5515990000000  0.5691030000000 1.0
C      1  0.4048370000000  0.5160810000000  0.3877630000000 1.0
C      1  0.5519240000000  0.5379380000000  0.5998530000000 1.0
C      1  0.3957510000000  0.4392150000000  0.5659250000000 1.0
C      1  0.4219200000000  0.5888770000000  0.4694080000000 1.0
C      1  0.5799670000000  0.5569990000000  0.5363890000000 1.0
C      1  0.4675900000000  0.5174710000000  0.3705140000000 1.0
C      1  0.5425510000000  0.6229870000000  0.5165980000000 1.0
C      1  0.3897000000000  0.5331320000000  0.4304340000000 1.0
C      1  0.5957400000000  0.4567750000000  0.4517100000000 1.0
C      1  0.4950200000000  0.4752600000000  0.7337420000000 1.0
C      1  0.4023450000000  0.5254360000000  0.4819020000000 1.0
C      1  0.5516510000000  0.5467090000000  0.5732800000000 1.0
C      1  0.3863820000000  0.4437530000000  0.4477970000000 1.0
C      1  0.3848340000000  0.4806500000000  0.4829580000000 1.0
C      1  0.5710700000000  0.5089840000000  0.5374970000000 1.0
C      1  0.5162000000000  0.4614020000000  0.6050990000000 1.0
C      1  0.4190440000000  0.4083620000000  0.5008750000000 1.0
C      1  0.5231560000000  0.4126200000000  0.4827530000000 1.0
C      1  0.5066220000000  0.5347640000000  0.6594390000000 1.0
C      1  0.4947400000000  0.5119950000000  0.3751700000000 1.0
C      1  0.5270240000000  0.4499400000000  0.5418300000000 1.0
C      1  0.5118540000000  0.5310920000000  0.6323390000000 1.0
C      1  0.5071140000000  0.5120540000000  0.5661610000000 1.0
C      1  0.5652300000000  0.4056080000000  0.5264660000000 1.0
C      1  0.5378320000000  0.5333020000000  0.6219680000000 1.0
C      1  0.4659620000000  0.5160670000000  0.6215070000000 1.0
C      1  0.4591340000000  0.4883700000000  0.4826190000000 1.0
C      1  0.4978580000000  0.6104070000000  0.5151110000000 1.0
C      1  0.4322940000000  0.4347880000000  0.4221400000000 1.0
C      1  0.4040660000000  0.5366200000000  0.4067330000000 1.0
C      1  0.4387660000000  0.4947470000000  0.5617930000000 1.0
C      1  0.5204360000000  0.4794190000000  0.4943450000000 1.0
C      1  0.5334590000000  0.5104330000000  0.4018890000000 1.0
C      1  0.4532830000000  0.5368020000000  0.4756100000000 1.0
C      1  0.4343410000000  0.4487750000000  0.3979360000000 1.0
C      1  0.4800840000000  0.4966460000000  0.5016110000000 1.0
C      1  0.4258530000000  0.4690170000000  0.3829000000000 1.0
C      1  0.5010910000000  0.5395760000000  0.6844490000000 1.0
C      1  0.4911760000000  0.3874840000000  0.3898260000000 1.0
C      1  0.4175910000000  0.5767990000000  0.4946200000000 1.0
C      1  0.4595720000000  0.5433440000000  0.3716960000000 1.0
C      1  0.4831800000000  0.5880090000000  0.5040800000000 1.0
C      1  0.5059580000000  0.5037310000000  0.4000340000000 1.0
END
