TITL C-612606-7351-774 118.060684365642 125000 -1123.75607671713 0 0 183 (C1) n - 1
REM
REM in /home/nfs/bkarasulu/CARBON/AIRSS/Generating-Clusters/TERSOFF/Only-C1/FIRE-HFTN
REM
REM
REM
REM
REM
REM ./C.cell (11c1c37f851c82e70ff6c80c92926a4b)
REM AIRSS Version 0.9.1 bugfix July 2018 build 013d7b7c2542+ Fri, 06 Jul 2018 19:26:36 +0100
REM compiler GCC version 9.2.1 20190827 (Red Hat 9.2.1-1)
REM options -cpp -mtune=generic -march=x86-64 -g -O0 -fpre-include=/usr/include/finclude/math-vector-fortran.h
REM seed -1332884078 2122429865 -650745731 -1881872700 1196005017 -1490572894 -244655617 1911464287 -1791972178 -238543805 1077744020 1576783222 -335865966 736662729 -45509036 1810017009 1605034046 -31727786 455561505 -991921232 -140840902 -1760778239 1381779716 -1211625353 -499518995 1729048269 -496284911 -783980576 -1190807166 -807640388 584255637 -617424292 -589070159
REM
CELL 1.54180   50.00000   50.00000   50.00000   90.00000   90.00000   90.00000
LATT -1
SFAC C  
C      1  0.5045900000000  0.3965470000000  0.5607770000000 1.0
C      1  0.4744960000000  0.6054690000000  0.5288550000000 1.0
C      1  0.5090040000000  0.4933300000000  0.5630860000000 1.0
C      1  0.4145900000000  0.5842940000000  0.3859940000000 1.0
C      1  0.4839690000000  0.4504770000000  0.5281850000000 1.0
C      1  0.5823940000000  0.4880540000000  0.5569510000000 1.0
C      1  0.4857280000000  0.4097280000000  0.4690000000000 1.0
C      1  0.4742990000000  0.5747780000000  0.6066780000000 1.0
C      1  0.5770310000000  0.4887610000000  0.4459560000000 1.0
C      1  0.5372450000000  0.5149030000000  0.3766950000000 1.0
C      1  0.5141900000000  0.3978340000000  0.4759470000000 1.0
C      1  0.4051720000000  0.4931000000000  0.4044190000000 1.0
C      1  0.5312490000000  0.4934540000000  0.6148730000000 1.0
C      1  0.6086850000000  0.5445410000000  0.5799690000000 1.0
C      1  0.5761950000000  0.5870410000000  0.5363350000000 1.0
C      1  0.5629460000000  0.5115740000000  0.3837810000000 1.0
C      1  0.5051380000000  0.4833890000000  0.6133720000000 1.0
C      1  0.4731770000000  0.5461400000000  0.3975170000000 1.0
C      1  0.5578910000000  0.5455580000000  0.5226140000000 1.0
C      1  0.5686580000000  0.4903850000000  0.5841980000000 1.0
C      1  0.5641390000000  0.6039550000000  0.5793160000000 1.0
C      1  0.6006820000000  0.3959510000000  0.4692030000000 1.0
C      1  0.5070750000000  0.4380680000000  0.5323670000000 1.0
C      1  0.5651340000000  0.5145580000000  0.4538640000000 1.0
C      1  0.4841600000000  0.5024450000000  0.6139340000000 1.0
C      1  0.4662460000000  0.3929530000000  0.4525530000000 1.0
C      1  0.5000230000000  0.4526310000000  0.3684500000000 1.0
C      1  0.4717900000000  0.5532740000000  0.5458380000000 1.0
C      1  0.5596690000000  0.4153530000000  0.4486860000000 1.0
C      1  0.4829190000000  0.4989280000000  0.4477640000000 1.0
C      1  0.4021470000000  0.5175230000000  0.4988620000000 1.0
C      1  0.4863210000000  0.6001880000000  0.5548110000000 1.0
C      1  0.5498430000000  0.4406770000000  0.5077960000000 1.0
C      1  0.4081220000000  0.5571250000000  0.5232730000000 1.0
C      1  0.6263590000000  0.3551710000000  0.4912120000000 1.0
C      1  0.5971920000000  0.5059370000000  0.5399070000000 1.0
C      1  0.4761320000000  0.4359530000000  0.4098760000000 1.0
C      1  0.5037070000000  0.5900760000000  0.5734640000000 1.0
C      1  0.6107070000000  0.5454570000000  0.5086060000000 1.0
C      1  0.4526760000000  0.4733070000000  0.5864690000000 1.0
C      1  0.4550370000000  0.5459640000000  0.5222720000000 1.0
C      1  0.4955860000000  0.5047040000000  0.4017160000000 1.0
C      1  0.4705640000000  0.5184510000000  0.4013800000000 1.0
C      1  0.4016400000000  0.5463450000000  0.4972100000000 1.0
C      1  0.4072010000000  0.5608010000000  0.4712080000000 1.0
C      1  0.5452290000000  0.4433840000000  0.5984350000000 1.0
C      1  0.5359910000000  0.4378420000000  0.4830380000000 1.0
C      1  0.5176990000000  0.4366780000000  0.5953640000000 1.0
C      1  0.5470340000000  0.4546240000000  0.5524240000000 1.0
C      1  0.3971130000000  0.5168850000000  0.4554600000000 1.0
C      1  0.4893530000000  0.5810610000000  0.4528220000000 1.0
C      1  0.4055540000000  0.5183680000000  0.5635720000000 1.0
C      1  0.4185640000000  0.6047790000000  0.3703690000000 1.0
C      1  0.5553410000000  0.3657950000000  0.5137350000000 1.0
C      1  0.5406340000000  0.5374790000000  0.5997410000000 1.0
C      1  0.4503030000000  0.5954890000000  0.4842780000000 1.0
C      1  0.5281160000000  0.3857720000000  0.5491120000000 1.0
C      1  0.4986200000000  0.5564020000000  0.5359930000000 1.0
C      1  0.3581750000000  0.4931940000000  0.4826790000000 1.0
C      1  0.4485900000000  0.5068530000000  0.4164960000000 1.0
C      1  0.5292270000000  0.5517260000000  0.4367720000000 1.0
C      1  0.4370050000000  0.4824070000000  0.5634680000000 1.0
C      1  0.5575810000000  0.4302650000000  0.4245330000000 1.0
C      1  0.5638260000000  0.5847190000000  0.5979510000000 1.0
C      1  0.4561240000000  0.3999900000000  0.5506060000000 1.0
C      1  0.4737660000000  0.5129920000000  0.4708220000000 1.0
C      1  0.4218760000000  0.5274200000000  0.5854270000000 1.0
C      1  0.5865740000000  0.4174170000000  0.4587540000000 1.0
C      1  0.4586730000000  0.4744180000000  0.4914240000000 1.0
C      1  0.4365960000000  0.4126120000000  0.5330320000000 1.0
C      1  0.5123090000000  0.3867810000000  0.5031890000000 1.0
C      1  0.5503600000000  0.5342870000000  0.4382300000000 1.0
C      1  0.5550680000000  0.5834200000000  0.4945710000000 1.0
C      1  0.5822010000000  0.4959380000000  0.3972550000000 1.0
C      1  0.4247580000000  0.5112510000000  0.4609770000000 1.0
C      1  0.4987660000000  0.4582430000000  0.6020080000000 1.0
C      1  0.5583800000000  0.5590900000000  0.6034240000000 1.0
C      1  0.5319470000000  0.4791560000000  0.5547140000000 1.0
C      1  0.5314780000000  0.4628060000000  0.4031820000000 1.0
C      1  0.4678930000000  0.5530780000000  0.4961170000000 1.0
C      1  0.4108140000000  0.5418710000000  0.4197010000000 1.0
C      1  0.4568240000000  0.5839280000000  0.5850690000000 1.0
C      1  0.4949440000000  0.5052270000000  0.5143670000000 1.0
C      1  0.5420630000000  0.6224980000000  0.5393650000000 1.0
C      1  0.4213060000000  0.5152700000000  0.4119330000000 1.0
C      1  0.4465090000000  0.5402550000000  0.5887560000000 1.0
C      1  0.4729210000000  0.4235570000000  0.5875610000000 1.0
C      1  0.5157960000000  0.4555320000000  0.4735200000000 1.0
C      1  0.4905640000000  0.5629490000000  0.4090930000000 1.0
C      1  0.4512650000000  0.4391900000000  0.4241600000000 1.0
C      1  0.4819630000000  0.3933570000000  0.5427050000000 1.0
C      1  0.4893660000000  0.5299110000000  0.6117440000000 1.0
C      1  0.4519270000000  0.5523160000000  0.4728120000000 1.0
C      1  0.5635360000000  0.6033230000000  0.4513600000000 1.0
C      1  0.4343710000000  0.5694510000000  0.5237970000000 1.0
C      1  0.4114870000000  0.5634090000000  0.4019930000000 1.0
C      1  0.4656380000000  0.5462480000000  0.6103810000000 1.0
C      1  0.6387450000000  0.5976540000000  0.4649650000000 1.0
C      1  0.5142560000000  0.4990800000000  0.3806320000000 1.0
C      1  0.5810990000000  0.5864640000000  0.5077490000000 1.0
C      1  0.4942900000000  0.5071390000000  0.5447680000000 1.0
C      1  0.6051710000000  0.5723920000000  0.4994720000000 1.0
C      1  0.5122790000000  0.4655340000000  0.4239640000000 1.0
C      1  0.5856220000000  0.4712120000000  0.4929470000000 1.0
C      1  0.4696650000000  0.4094860000000  0.4968060000000 1.0
C      1  0.3944550000000  0.4731660000000  0.5376550000000 1.0
C      1  0.5139240000000  0.4826980000000  0.5104790000000 1.0
C      1  0.4097380000000  0.4915120000000  0.4992600000000 1.0
C      1  0.5194630000000  0.4821680000000  0.4825820000000 1.0
C      1  0.3668890000000  0.4775840000000  0.5313340000000 1.0
C      1  0.4486990000000  0.5262860000000  0.4643540000000 1.0
C      1  0.4511770000000  0.4090530000000  0.5778900000000 1.0
C      1  0.4268050000000  0.4470880000000  0.4128920000000 1.0
C      1  0.4513870000000  0.5154850000000  0.5204010000000 1.0
C      1  0.5885720000000  0.5487170000000  0.5638350000000 1.0
C      1  0.5735380000000  0.4571480000000  0.5140010000000 1.0
C      1  0.4950010000000  0.6191500000000  0.5133810000000 1.0
C      1  0.4970880000000  0.6143140000000  0.4857150000000 1.0
C      1  0.5279440000000  0.5107860000000  0.4804950000000 1.0
C      1  0.6538980000000  0.6104310000000  0.4473660000000 1.0
C      1  0.4494830000000  0.4989160000000  0.5436380000000 1.0
C      1  0.5492320000000  0.5092440000000  0.5985210000000 1.0
C      1  0.4096890000000  0.4665060000000  0.4057570000000 1.0
C      1  0.3548850000000  0.4848340000000  0.5081120000000 1.0
C      1  0.5140960000000  0.5521420000000  0.5121300000000 1.0
C      1  0.4818780000000  0.4382330000000  0.3824760000000 1.0
C      1  0.3997130000000  0.5396510000000  0.5449530000000 1.0
C      1  0.4232590000000  0.4167010000000  0.5773990000000 1.0
C      1  0.5562670000000  0.5161490000000  0.4812350000000 1.0
C      1  0.5042890000000  0.5660950000000  0.4336150000000 1.0
C      1  0.5623710000000  0.6068610000000  0.5513130000000 1.0
C      1  0.4773670000000  0.5987760000000  0.4721040000000 1.0
C      1  0.4551410000000  0.5598350000000  0.5683240000000 1.0
C      1  0.6231900000000  0.5850500000000  0.4823040000000 1.0
C      1  0.4334750000000  0.5743250000000  0.4715410000000 1.0
C      1  0.5020850000000  0.5730320000000  0.5965060000000 1.0
C      1  0.4183970000000  0.4408370000000  0.4995460000000 1.0
C      1  0.4390840000000  0.3931400000000  0.4527280000000 1.0
C      1  0.4146960000000  0.4189860000000  0.5510820000000 1.0
C      1  0.4865670000000  0.3931550000000  0.5147720000000 1.0
C      1  0.4500910000000  0.5939770000000  0.5145980000000 1.0
C      1  0.4975710000000  0.4419000000000  0.4288560000000 1.0
C      1  0.6139700000000  0.3756740000000  0.4798680000000 1.0
C      1  0.5724960000000  0.5590630000000  0.5436170000000 1.0
C      1  0.4563670000000  0.4888230000000  0.4390640000000 1.0
C      1  0.6085260000000  0.4966120000000  0.3898920000000 1.0
C      1  0.5349330000000  0.4376880000000  0.5325470000000 1.0
C      1  0.4091030000000  0.4659530000000  0.5126110000000 1.0
C      1  0.4694080000000  0.5020220000000  0.4993100000000 1.0
C      1  0.6687640000000  0.6230100000000  0.4300340000000 1.0
C      1  0.5011810000000  0.4150310000000  0.5828670000000 1.0
C      1  0.5109360000000  0.5269540000000  0.4990640000000 1.0
C      1  0.5735820000000  0.4791300000000  0.4188370000000 1.0
C      1  0.5738200000000  0.4637990000000  0.5427990000000 1.0
C      1  0.5568860000000  0.4562040000000  0.4129910000000 1.0
C      1  0.5474070000000  0.6003170000000  0.4732510000000 1.0
C      1  0.6382560000000  0.3349400000000  0.5025610000000 1.0
C      1  0.4716940000000  0.4518790000000  0.5916960000000 1.0
C      1  0.4077200000000  0.4257500000000  0.4779070000000 1.0
C      1  0.5689180000000  0.5245630000000  0.5057130000000 1.0
C      1  0.4583620000000  0.4929900000000  0.6066130000000 1.0
C      1  0.3736190000000  0.5034880000000  0.4631080000000 1.0
C      1  0.5351990000000  0.4885300000000  0.5277570000000 1.0
C      1  0.4510350000000  0.4702250000000  0.4625470000000 1.0
C      1  0.5971270000000  0.4437860000000  0.4568230000000 1.0
C      1  0.4459290000000  0.4283450000000  0.5085850000000 1.0
C      1  0.5011570000000  0.4917400000000  0.4272330000000 1.0
C      1  0.5397410000000  0.5631480000000  0.5083740000000 1.0
C      1  0.5328260000000  0.3790280000000  0.5216260000000 1.0
C      1  0.5231120000000  0.6142810000000  0.4749300000000 1.0
C      1  0.5186550000000  0.6273530000000  0.5271200000000 1.0
C      1  0.5639600000000  0.4631940000000  0.5958590000000 1.0
C      1  0.4888130000000  0.4378690000000  0.4573750000000 1.0
C      1  0.4173120000000  0.4061900000000  0.4618690000000 1.0
C      1  0.5958990000000  0.5219290000000  0.5159430000000 1.0
C      1  0.5885580000000  0.4697340000000  0.4649180000000 1.0
C      1  0.5378650000000  0.4134880000000  0.4677500000000 1.0
C      1  0.5194140000000  0.4706270000000  0.3783430000000 1.0
C      1  0.4083540000000  0.4888500000000  0.5582420000000 1.0
C      1  0.4585280000000  0.4448060000000  0.4523020000000 1.0
C      1  0.3995950000000  0.5448520000000  0.4468340000000 1.0
C      1  0.5126080000000  0.5454230000000  0.6021430000000 1.0
C      1  0.4621030000000  0.4537530000000  0.5110960000000 1.0
END
