TITL C-612601-4209-197 0.118471953792496 125000 -923.493925611299 0 0 151 (C1) n - 1
REM
REM in /home/nfs/bkarasulu/CARBON/AIRSS/Generating-Clusters/TERSOFF/Only-C1/FIRE-HFTN
REM
REM
REM
REM
REM
REM ./C.cell (11c1c37f851c82e70ff6c80c92926a4b)
REM AIRSS Version 0.9.1 bugfix July 2018 build 013d7b7c2542+ Fri, 06 Jul 2018 19:26:36 +0100
REM compiler GCC version 9.2.1 20190827 (Red Hat 9.2.1-1)
REM options -cpp -mtune=generic -march=x86-64 -g -O0 -fpre-include=/usr/include/finclude/math-vector-fortran.h
REM seed -865832146 1927672164 -901065499 235963334 -1763742431 -1873576338 -1580084329 -1739008722 -1152638374 -577666593 941618993 -84257569 -587697385 -1728842805 -609453478 765572692 171580255 -1155567164 -1320528816 -1596949181 -1536791358 -1364108158 1064920931 877596851 -1225838401 -2030245897 1509425831 25036565 467075324 1716786846 694203483 -1905408360 631705535
REM
CELL 1.54180   50.00000   50.00000   50.00000   90.00000   90.00000   90.00000
LATT -1
SFAC C  
C      1  0.4988210000000  0.5031820000000  0.4673890000000 1.0
C      1  0.5485090000000  0.4426030000000  0.4595340000000 1.0
C      1  0.5593090000000  0.4570460000000  0.4368860000000 1.0
C      1  0.4565130000000  0.4724710000000  0.4931270000000 1.0
C      1  0.4521180000000  0.4860770000000  0.5395480000000 1.0
C      1  0.5468400000000  0.5199840000000  0.4983220000000 1.0
C      1  0.4063780000000  0.5183230000000  0.5024960000000 1.0
C      1  0.5682970000000  0.4160990000000  0.4957940000000 1.0
C      1  0.4808710000000  0.4004120000000  0.4135420000000 1.0
C      1  0.4873140000000  0.4924500000000  0.4921050000000 1.0
C      1  0.5042330000000  0.4716240000000  0.5422230000000 1.0
C      1  0.4343570000000  0.6056470000000  0.5019680000000 1.0
C      1  0.4743090000000  0.5874120000000  0.5606640000000 1.0
C      1  0.4988320000000  0.4543730000000  0.4465490000000 1.0
C      1  0.4296310000000  0.5795260000000  0.4584480000000 1.0
C      1  0.5423290000000  0.5975280000000  0.5293080000000 1.0
C      1  0.5083630000000  0.4855990000000  0.4094320000000 1.0
C      1  0.5730040000000  0.5591410000000  0.5161460000000 1.0
C      1  0.5272200000000  0.4983510000000  0.4616710000000 1.0
C      1  0.5083650000000  0.4588010000000  0.4196250000000 1.0
C      1  0.5158350000000  0.4335920000000  0.4083940000000 1.0
C      1  0.3951890000000  0.5656020000000  0.5205340000000 1.0
C      1  0.5548760000000  0.3948880000000  0.4819780000000 1.0
C      1  0.4515900000000  0.5802460000000  0.5446700000000 1.0
C      1  0.3980690000000  0.5014440000000  0.5247060000000 1.0
C      1  0.5978610000000  0.5033470000000  0.5521910000000 1.0
C      1  0.6007110000000  0.5086910000000  0.4743130000000 1.0
C      1  0.5789890000000  0.6004640000000  0.4948490000000 1.0
C      1  0.5412300000000  0.5423020000000  0.4820890000000 1.0
C      1  0.5359130000000  0.5340180000000  0.5388240000000 1.0
C      1  0.4532670000000  0.5916080000000  0.5181400000000 1.0
C      1  0.4263580000000  0.4775350000000  0.4879400000000 1.0
C      1  0.4255760000000  0.4343120000000  0.5495700000000 1.0
C      1  0.4559820000000  0.5223440000000  0.4660850000000 1.0
C      1  0.5090410000000  0.4075860000000  0.4179430000000 1.0
C      1  0.6233550000000  0.4740550000000  0.5192970000000 1.0
C      1  0.4526140000000  0.5321870000000  0.4918050000000 1.0
C      1  0.5294450000000  0.4996990000000  0.6155370000000 1.0
C      1  0.4963420000000  0.4419310000000  0.5395070000000 1.0
C      1  0.4829250000000  0.5675210000000  0.4890690000000 1.0
C      1  0.4753600000000  0.5439910000000  0.5040320000000 1.0
C      1  0.4336230000000  0.5231640000000  0.5090580000000 1.0
C      1  0.5080620000000  0.4804570000000  0.6216040000000 1.0
C      1  0.4907580000000  0.5342340000000  0.5562850000000 1.0
C      1  0.5335430000000  0.4782280000000  0.4807750000000 1.0
C      1  0.4825640000000  0.5554110000000  0.3951680000000 1.0
C      1  0.5877810000000  0.5556220000000  0.4836310000000 1.0
C      1  0.4734720000000  0.5088010000000  0.5958380000000 1.0
C      1  0.4014700000000  0.5209320000000  0.5480510000000 1.0
C      1  0.5480750000000  0.4567750000000  0.6059300000000 1.0
C      1  0.5804710000000  0.4329960000000  0.5463630000000 1.0
C      1  0.4073100000000  0.5506730000000  0.5411570000000 1.0
C      1  0.5466030000000  0.4845240000000  0.5977820000000 1.0
C      1  0.4812310000000  0.5205590000000  0.4542460000000 1.0
C      1  0.4196650000000  0.5896380000000  0.4840880000000 1.0
C      1  0.5750450000000  0.4196160000000  0.5233610000000 1.0
C      1  0.4578250000000  0.4660760000000  0.5215560000000 1.0
C      1  0.5990250000000  0.5105620000000  0.5029940000000 1.0
C      1  0.4178400000000  0.5308660000000  0.4076940000000 1.0
C      1  0.5276380000000  0.5271040000000  0.6103900000000 1.0
C      1  0.5367330000000  0.5378010000000  0.5859290000000 1.0
C      1  0.5916210000000  0.4825900000000  0.4636100000000 1.0
C      1  0.4146520000000  0.5333260000000  0.4351870000000 1.0
C      1  0.4116960000000  0.5584100000000  0.4491410000000 1.0
C      1  0.5767480000000  0.4350120000000  0.3911110000000 1.0
C      1  0.5789130000000  0.4194550000000  0.6060870000000 1.0
C      1  0.4788040000000  0.5677050000000  0.4595390000000 1.0
C      1  0.4707290000000  0.4592480000000  0.4510120000000 1.0
C      1  0.4460080000000  0.4037360000000  0.4491730000000 1.0
C      1  0.4377710000000  0.4447490000000  0.5733870000000 1.0
C      1  0.4369550000000  0.4893010000000  0.3915220000000 1.0
C      1  0.5649960000000  0.5873290000000  0.5162320000000 1.0
C      1  0.4435890000000  0.4749130000000  0.4129850000000 1.0
C      1  0.4850420000000  0.5289720000000  0.5274380000000 1.0
C      1  0.4583910000000  0.5895690000000  0.4208810000000 1.0
C      1  0.6136900000000  0.4576550000000  0.4997700000000 1.0
C      1  0.4695150000000  0.5282690000000  0.5754430000000 1.0
C      1  0.4670750000000  0.4036660000000  0.5499770000000 1.0
C      1  0.4899210000000  0.6367160000000  0.5047330000000 1.0
C      1  0.4261820000000  0.5136970000000  0.3890020000000 1.0
C      1  0.4389430000000  0.4009700000000  0.5132660000000 1.0
C      1  0.5691830000000  0.5287300000000  0.4433130000000 1.0
C      1  0.5152040000000  0.4239890000000  0.5202430000000 1.0
C      1  0.4336920000000  0.5590530000000  0.5528940000000 1.0
C      1  0.4385060000000  0.4098630000000  0.5408960000000 1.0
C      1  0.4196990000000  0.5177170000000  0.5710290000000 1.0
C      1  0.5269480000000  0.5158460000000  0.5180810000000 1.0
C      1  0.4648940000000  0.6454070000000  0.4989970000000 1.0
C      1  0.4642870000000  0.4414570000000  0.5794840000000 1.0
C      1  0.4734140000000  0.4436970000000  0.5209720000000 1.0
C      1  0.4887290000000  0.5452490000000  0.4430560000000 1.0
C      1  0.5392560000000  0.3898830000000  0.4602680000000 1.0
C      1  0.4423680000000  0.5367910000000  0.5706390000000 1.0
C      1  0.4408690000000  0.4257170000000  0.4640790000000 1.0
C      1  0.5302180000000  0.4754820000000  0.5485250000000 1.0
C      1  0.4084570000000  0.4747180000000  0.5144350000000 1.0
C      1  0.4252720000000  0.4861740000000  0.4591550000000 1.0
C      1  0.4831490000000  0.4896950000000  0.6122280000000 1.0
C      1  0.4820060000000  0.3908200000000  0.5275660000000 1.0
C      1  0.5099750000000  0.3963210000000  0.5267490000000 1.0
C      1  0.4981240000000  0.6106090000000  0.5118470000000 1.0
C      1  0.4999340000000  0.5954820000000  0.5566090000000 1.0
C      1  0.4606920000000  0.4459150000000  0.4760060000000 1.0
C      1  0.4767450000000  0.4282130000000  0.4943000000000 1.0
C      1  0.5740930000000  0.5393700000000  0.4184990000000 1.0
C      1  0.5255540000000  0.5594260000000  0.4176090000000 1.0
C      1  0.4997410000000  0.5038620000000  0.5179800000000 1.0
C      1  0.4680920000000  0.3909240000000  0.4376870000000 1.0
C      1  0.3984490000000  0.5719980000000  0.4933720000000 1.0
C      1  0.4792900000000  0.5904670000000  0.5049280000000 1.0
C      1  0.4815920000000  0.4266050000000  0.5621220000000 1.0
C      1  0.6124460000000  0.4997160000000  0.5260890000000 1.0
C      1  0.5816700000000  0.4510770000000  0.5688720000000 1.0
C      1  0.5063160000000  0.5127380000000  0.4082500000000 1.0
C      1  0.4911190000000  0.3815230000000  0.4527350000000 1.0
C      1  0.4469320000000  0.4742900000000  0.4409550000000 1.0
C      1  0.3969470000000  0.5242610000000  0.4770730000000 1.0
C      1  0.5150900000000  0.6031570000000  0.5336830000000 1.0
C      1  0.5927260000000  0.4779060000000  0.5660390000000 1.0
C      1  0.5708670000000  0.4391120000000  0.4789520000000 1.0
C      1  0.5009780000000  0.5425200000000  0.4147130000000 1.0
C      1  0.4408880000000  0.6329090000000  0.4978300000000 1.0
C      1  0.5197510000000  0.5378210000000  0.5621480000000 1.0
C      1  0.4109850000000  0.4516390000000  0.5317380000000 1.0
C      1  0.3939000000000  0.5525970000000  0.4724990000000 1.0
C      1  0.5411080000000  0.4874190000000  0.5707310000000 1.0
C      1  0.5358270000000  0.5704960000000  0.4398760000000 1.0
C      1  0.5645590000000  0.5412640000000  0.5365860000000 1.0
C      1  0.5915450000000  0.5831770000000  0.4774810000000 1.0
C      1  0.5881160000000  0.5333890000000  0.4648260000000 1.0
C      1  0.5168220000000  0.3922630000000  0.4430570000000 1.0
C      1  0.5693760000000  0.4421300000000  0.5939180000000 1.0
C      1  0.4668720000000  0.5770560000000  0.3986640000000 1.0
C      1  0.4560110000000  0.5819290000000  0.4479940000000 1.0
C      1  0.5223410000000  0.4544780000000  0.6201340000000 1.0
C      1  0.5933070000000  0.4581150000000  0.4798250000000 1.0
C      1  0.5655350000000  0.5343950000000  0.5813190000000 1.0
C      1  0.5467970000000  0.4690910000000  0.5271230000000 1.0
C      1  0.5664240000000  0.4453000000000  0.4127210000000 1.0
C      1  0.5696970000000  0.4823660000000  0.4446110000000 1.0
C      1  0.5381330000000  0.5628490000000  0.4653830000000 1.0
C      1  0.5350030000000  0.4636650000000  0.5027910000000 1.0
C      1  0.5517730000000  0.5053590000000  0.4465450000000 1.0
C      1  0.5074410000000  0.4296760000000  0.4910840000000 1.0
C      1  0.4664370000000  0.4004580000000  0.5034420000000 1.0
C      1  0.4101760000000  0.5108210000000  0.4540290000000 1.0
C      1  0.5182770000000  0.4404650000000  0.4655130000000 1.0
C      1  0.5803790000000  0.5273970000000  0.5572610000000 1.0
C      1  0.5684120000000  0.4850750000000  0.5237650000000 1.0
C      1  0.4436120000000  0.5100370000000  0.5317610000000 1.0
C      1  0.5708600000000  0.5072430000000  0.5067720000000 1.0
END
