TITL C-612601-4209-1001 4.63965644139985 125000 -280.406531861062 0 0 48 (C1) n - 1
REM
REM in /home/nfs/bkarasulu/CARBON/AIRSS/Generating-Clusters/TERSOFF/Only-C1/FIRE-HFTN
REM
REM
REM
REM
REM
REM ./C.cell (11c1c37f851c82e70ff6c80c92926a4b)
REM AIRSS Version 0.9.1 bugfix July 2018 build 013d7b7c2542+ Fri, 06 Jul 2018 19:26:36 +0100
REM compiler GCC version 9.2.1 20190827 (Red Hat 9.2.1-1)
REM options -cpp -mtune=generic -march=x86-64 -g -O0 -fpre-include=/usr/include/finclude/math-vector-fortran.h
REM seed -480655694 -423081982 1919872307 -1330555755 1146562519 915284095 371731003 1922121779 -804839383 1418175230 -2023924259 1700976044 608376499 196302225 125764711 -358954626 -900432889 1455014572 -1628997295 -11996803 -1559691981 -1282287920 -1268456101 -229072918 699658904 -105384824 -1041984817 1725225974 -2099164322 -755140168 416149953 -622875984 -1712742369
REM
CELL 1.54180   50.00000   50.00000   50.00000   90.00000   90.00000   90.00000
LATT -1
SFAC C  
C      1  0.5019540000000  0.5663390000000  0.5071910000000 1.0
C      1  0.5240060000000  0.4410280000000  0.5123600000000 1.0
C      1  0.5061340000000  0.5534910000000  0.5307330000000 1.0
C      1  0.5570380000000  0.4800930000000  0.5545620000000 1.0
C      1  0.4922790000000  0.5306000000000  0.5402840000000 1.0
C      1  0.4887510000000  0.4898040000000  0.4532180000000 1.0
C      1  0.5035870000000  0.4928670000000  0.6101390000000 1.0
C      1  0.4980500000000  0.5188630000000  0.5648040000000 1.0
C      1  0.4156030000000  0.5781480000000  0.6142230000000 1.0
C      1  0.4564910000000  0.4978380000000  0.5285840000000 1.0
C      1  0.4634510000000  0.5057450000000  0.3634690000000 1.0
C      1  0.4826840000000  0.5571550000000  0.4885590000000 1.0
C      1  0.5333940000000  0.5184590000000  0.4643350000000 1.0
C      1  0.4588850000000  0.4716710000000  0.5154370000000 1.0
C      1  0.4240460000000  0.4701320000000  0.5461890000000 1.0
C      1  0.4379050000000  0.4556010000000  0.5272130000000 1.0
C      1  0.4844030000000  0.5065710000000  0.3810870000000 1.0
C      1  0.5830570000000  0.5106600000000  0.5153660000000 1.0
C      1  0.4542020000000  0.4728850000000  0.4276350000000 1.0
C      1  0.5099810000000  0.5013000000000  0.3728360000000 1.0
C      1  0.5800350000000  0.5196580000000  0.5422200000000 1.0
C      1  0.5751060000000  0.5262570000000  0.4935590000000 1.0
C      1  0.4716510000000  0.5206280000000  0.5228090000000 1.0
C      1  0.4267600000000  0.5170170000000  0.5653700000000 1.0
C      1  0.4537760000000  0.4597030000000  0.4519130000000 1.0
C      1  0.5695580000000  0.4410780000000  0.4917700000000 1.0
C      1  0.5699630000000  0.4190200000000  0.4751870000000 1.0
C      1  0.5618380000000  0.4681800000000  0.5294900000000 1.0
C      1  0.5698070000000  0.3980960000000  0.4596530000000 1.0
C      1  0.5007890000000  0.5061410000000  0.5878790000000 1.0
C      1  0.4811840000000  0.5645470000000  0.4618500000000 1.0
C      1  0.4347570000000  0.4968590000000  0.5482980000000 1.0
C      1  0.5816570000000  0.4823900000000  0.5123690000000 1.0
C      1  0.5665670000000  0.5048520000000  0.5607150000000 1.0
C      1  0.4744770000000  0.4698570000000  0.4694410000000 1.0
C      1  0.4777070000000  0.4631890000000  0.4964840000000 1.0
C      1  0.5872910000000  0.4638780000000  0.4911830000000 1.0
C      1  0.4751500000000  0.4927460000000  0.4272550000000 1.0
C      1  0.4188510000000  0.5579150000000  0.5981080000000 1.0
C      1  0.4994350000000  0.4476890000000  0.5048640000000 1.0
C      1  0.5512180000000  0.4463960000000  0.5138720000000 1.0
C      1  0.4794560000000  0.5396210000000  0.4169050000000 1.0
C      1  0.4800170000000  0.5579490000000  0.4361340000000 1.0
C      1  0.4795540000000  0.5129700000000  0.4083180000000 1.0
C      1  0.4222920000000  0.5373560000000  0.5817360000000 1.0
C      1  0.5557610000000  0.5277700000000  0.4752740000000 1.0
C      1  0.4675670000000  0.5354820000000  0.4989700000000 1.0
C      1  0.5118750000000  0.5035040000000  0.4601520000000 1.0
END
