TITL C-612600-6631-1441 117567.88090632 125000 -897.234725569203 0 0 149 (C1) n - 1
REM
REM in /home/nfs/bkarasulu/CARBON/AIRSS/Generating-Clusters/TERSOFF/Only-C1/FIRE-HFTN
REM
REM
REM
REM
REM
REM ./C.cell (11c1c37f851c82e70ff6c80c92926a4b)
REM AIRSS Version 0.9.1 bugfix July 2018 build 013d7b7c2542+ Fri, 06 Jul 2018 19:26:36 +0100
REM compiler GCC version 9.2.1 20190827 (Red Hat 9.2.1-1)
REM options -cpp -mtune=generic -march=x86-64 -g -O0 -fpre-include=/usr/include/finclude/math-vector-fortran.h
REM seed -1753062208 1543655155 -1615120082 1981938579 -1744187507 -193111508 130130919 -1752736786 2088613388 -1109468115 -714262762 1771387925 -102204820 -1010880636 -54660083 -21624952 155686365 1152375594 -364217862 362394939 -1364065916 1007412313 -950419480 -1995046249 2111624716 -735645810 2133117922 -257058818 -1156518643 886117541 -1585983649 -316063765 -1563069707
REM
CELL 1.54180   50.00000   50.00000   50.00000   90.00000   90.00000   90.00000
LATT -1
SFAC C  
C      1  0.5164350000000  0.3944420000000  0.5497900000000 1.0
C      1  0.5657660000000  0.5567840000000  0.4958350000000 1.0
C      1  0.4697430000000  0.5852220000000  0.4520410000000 1.0
C      1  0.5194660000000  0.3886240000000  0.4975970000000 1.0
C      1  0.5256120000000  0.3943360000000  0.4714200000000 1.0
C      1  0.5201020000000  0.6103780000000  0.5027970000000 1.0
C      1  0.4639740000000  0.4405500000000  0.4188930000000 1.0
C      1  0.4750580000000  0.4150430000000  0.4735650000000 1.0
C      1  0.4647930000000  0.5301030000000  0.5723700000000 1.0
C      1  0.4715150000000  0.4551370000000  0.5484750000000 1.0
C      1  0.5266630000000  0.4732790000000  0.4995920000000 1.0
C      1  0.4833660000000  0.4421870000000  0.4781750000000 1.0
C      1  0.3960500000000  0.5361640000000  0.5411640000000 1.0
C      1  0.4510270000000  0.4732000000000  0.4547890000000 1.0
C      1  0.5851970000000  0.4702820000000  0.5143690000000 1.0
C      1  0.5596150000000  0.5653040000000  0.5219040000000 1.0
C      1  0.4766000000000  0.3929440000000  0.5213790000000 1.0
C      1  0.5431370000000  0.4822750000000  0.3772000000000 1.0
C      1  0.5613770000000  0.4177150000000  0.5370530000000 1.0
C      1  0.4434020000000  0.5286590000000  0.5498750000000 1.0
C      1  0.4898860000000  0.5291360000000  0.4630490000000 1.0
C      1  0.4880510000000  0.4446510000000  0.5278630000000 1.0
C      1  0.5445870000000  0.4017430000000  0.5545380000000 1.0
C      1  0.4385210000000  0.4284000000000  0.4243610000000 1.0
C      1  0.5658670000000  0.4917540000000  0.4399530000000 1.0
C      1  0.3896140000000  0.5024520000000  0.4630400000000 1.0
C      1  0.5773590000000  0.5752330000000  0.4775540000000 1.0
C      1  0.4137950000000  0.5621560000000  0.4374710000000 1.0
C      1  0.5157210000000  0.5661870000000  0.5471160000000 1.0
C      1  0.4771310000000  0.5628400000000  0.5735770000000 1.0
C      1  0.4210310000000  0.5704670000000  0.4129490000000 1.0
C      1  0.4958690000000  0.4570230000000  0.4575750000000 1.0
C      1  0.5566440000000  0.5935310000000  0.4683820000000 1.0
C      1  0.4629890000000  0.5357890000000  0.4694630000000 1.0
C      1  0.4278620000000  0.4433480000000  0.5204780000000 1.0
C      1  0.4516630000000  0.5354490000000  0.5249650000000 1.0
C      1  0.6102230000000  0.5246470000000  0.5143400000000 1.0
C      1  0.3779050000000  0.5028150000000  0.4887660000000 1.0
C      1  0.5478510000000  0.4137420000000  0.5822510000000 1.0
C      1  0.5138410000000  0.4891830000000  0.5196040000000 1.0
C      1  0.3703220000000  0.5271800000000  0.5006710000000 1.0
C      1  0.4625430000000  0.3984300000000  0.5456420000000 1.0
C      1  0.4964580000000  0.5918920000000  0.4608650000000 1.0
C      1  0.5584730000000  0.4627110000000  0.4316550000000 1.0
C      1  0.5130690000000  0.4386290000000  0.5370200000000 1.0
C      1  0.5058000000000  0.5038530000000  0.4651710000000 1.0
C      1  0.4512250000000  0.5131860000000  0.4819690000000 1.0
C      1  0.5181050000000  0.4269910000000  0.4267810000000 1.0
C      1  0.5332230000000  0.4614610000000  0.3908920000000 1.0
C      1  0.5082720000000  0.5500080000000  0.4655350000000 1.0
C      1  0.5482770000000  0.5383220000000  0.4822030000000 1.0
C      1  0.5900080000000  0.4557770000000  0.4681440000000 1.0
C      1  0.4452770000000  0.5899030000000  0.5457690000000 1.0
C      1  0.4140490000000  0.5012240000000  0.4492180000000 1.0
C      1  0.5724620000000  0.5223410000000  0.5509340000000 1.0
C      1  0.4781220000000  0.4540420000000  0.5028080000000 1.0
C      1  0.5605430000000  0.4913990000000  0.4702810000000 1.0
C      1  0.5464070000000  0.5329210000000  0.5540200000000 1.0
C      1  0.5269670000000  0.4934290000000  0.5440040000000 1.0
C      1  0.4288900000000  0.4696700000000  0.5615230000000 1.0
C      1  0.4668260000000  0.5020740000000  0.5036760000000 1.0
C      1  0.4931630000000  0.4899450000000  0.5840440000000 1.0
C      1  0.5054610000000  0.3894600000000  0.5232190000000 1.0
C      1  0.4699860000000  0.5880630000000  0.5596390000000 1.0
C      1  0.4554360000000  0.4543510000000  0.6004290000000 1.0
C      1  0.4368300000000  0.4951960000000  0.4654370000000 1.0
C      1  0.5107220000000  0.6146900000000  0.5306080000000 1.0
C      1  0.5300840000000  0.5172260000000  0.4316440000000 1.0
C      1  0.5439100000000  0.5280910000000  0.4543730000000 1.0
C      1  0.4093930000000  0.4904000000000  0.5516020000000 1.0
C      1  0.3832100000000  0.5455290000000  0.5178010000000 1.0
C      1  0.5363100000000  0.4496430000000  0.4165260000000 1.0
C      1  0.5221790000000  0.5498120000000  0.5948870000000 1.0
C      1  0.5449980000000  0.6130970000000  0.4872950000000 1.0
C      1  0.5386970000000  0.4468380000000  0.4961020000000 1.0
C      1  0.5674940000000  0.4589310000000  0.5947770000000 1.0
C      1  0.5465090000000  0.4391800000000  0.4701780000000 1.0
C      1  0.5593080000000  0.6370730000000  0.4907200000000 1.0
C      1  0.5361880000000  0.5279950000000  0.6040040000000 1.0
C      1  0.4594450000000  0.4758040000000  0.5101710000000 1.0
C      1  0.4398540000000  0.5856310000000  0.5196410000000 1.0
C      1  0.4458070000000  0.4640870000000  0.5352800000000 1.0
C      1  0.5207410000000  0.4124510000000  0.5930400000000 1.0
C      1  0.4440690000000  0.4798620000000  0.5880570000000 1.0
C      1  0.5043520000000  0.5363000000000  0.5111530000000 1.0
C      1  0.4261130000000  0.4387460000000  0.5700650000000 1.0
C      1  0.4044750000000  0.5754300000000  0.4832750000000 1.0
C      1  0.5093870000000  0.4979090000000  0.4363490000000 1.0
C      1  0.5731510000000  0.5213840000000  0.4230380000000 1.0
C      1  0.5636300000000  0.5149220000000  0.3476270000000 1.0
C      1  0.4982130000000  0.5609180000000  0.5243010000000 1.0
C      1  0.4931290000000  0.4748120000000  0.4342490000000 1.0
C      1  0.5210700000000  0.5180160000000  0.5567800000000 1.0
C      1  0.5935600000000  0.4562960000000  0.5382920000000 1.0
C      1  0.4942070000000  0.5151460000000  0.5695180000000 1.0
C      1  0.5593340000000  0.5050660000000  0.3733850000000 1.0
C      1  0.5359890000000  0.4990880000000  0.6035350000000 1.0
C      1  0.4914170000000  0.6065610000000  0.5492520000000 1.0
C      1  0.4878790000000  0.4241840000000  0.4254190000000 1.0
C      1  0.5813870000000  0.4765720000000  0.4866570000000 1.0
C      1  0.3899800000000  0.4810870000000  0.5331550000000 1.0
C      1  0.4847070000000  0.5790040000000  0.5061530000000 1.0
C      1  0.3907530000000  0.5694310000000  0.5053450000000 1.0
C      1  0.6114450000000  0.5439020000000  0.4659720000000 1.0
C      1  0.5719810000000  0.5548180000000  0.4355500000000 1.0
C      1  0.5164440000000  0.5730770000000  0.4511580000000 1.0
C      1  0.6168090000000  0.5314040000000  0.4892330000000 1.0
C      1  0.4221770000000  0.4249660000000  0.4455310000000 1.0
C      1  0.4227920000000  0.5671420000000  0.4637060000000 1.0
C      1  0.5094110000000  0.4890030000000  0.6070170000000 1.0
C      1  0.4431520000000  0.5849890000000  0.4078230000000 1.0
C      1  0.4997460000000  0.4044450000000  0.5739990000000 1.0
C      1  0.5675540000000  0.5242290000000  0.3235940000000 1.0
C      1  0.4511960000000  0.4297400000000  0.5841490000000 1.0
C      1  0.5689330000000  0.4343490000000  0.5803720000000 1.0
C      1  0.5508260000000  0.4804860000000  0.5866760000000 1.0
C      1  0.3813030000000  0.4822380000000  0.5077620000000 1.0
C      1  0.5275260000000  0.4068400000000  0.4468540000000 1.0
C      1  0.4786460000000  0.4063510000000  0.4468540000000 1.0
C      1  0.4618510000000  0.5915710000000  0.4259170000000 1.0
C      1  0.4445250000000  0.4875650000000  0.4110680000000 1.0
C      1  0.4673110000000  0.3991300000000  0.4954580000000 1.0
C      1  0.4937700000000  0.5095530000000  0.5124890000000 1.0
C      1  0.5446060000000  0.5774130000000  0.4460810000000 1.0
C      1  0.4838910000000  0.4679370000000  0.5698630000000 1.0
C      1  0.4994920000000  0.5965420000000  0.4889800000000 1.0
C      1  0.4571390000000  0.5767120000000  0.4992340000000 1.0
C      1  0.4213780000000  0.4988130000000  0.4214560000000 1.0
C      1  0.4160380000000  0.4272110000000  0.4715510000000 1.0
C      1  0.4511260000000  0.5080290000000  0.5918470000000 1.0
C      1  0.5711610000000  0.5179590000000  0.3955140000000 1.0
C      1  0.5296190000000  0.4492160000000  0.5549120000000 1.0
C      1  0.5215830000000  0.5427120000000  0.4899930000000 1.0
C      1  0.5786560000000  0.4357110000000  0.5521330000000 1.0
C      1  0.6183190000000  0.4627770000000  0.5485150000000 1.0
C      1  0.4639670000000  0.4702100000000  0.4263880000000 1.0
C      1  0.4706530000000  0.4102330000000  0.5710570000000 1.0
C      1  0.5727330000000  0.6591270000000  0.4942520000000 1.0
C      1  0.5947500000000  0.5214450000000  0.5359990000000 1.0
C      1  0.4523120000000  0.5655860000000  0.4707800000000 1.0
C      1  0.5385780000000  0.4746980000000  0.5609740000000 1.0
C      1  0.5058450000000  0.5619370000000  0.5744290000000 1.0
C      1  0.5313850000000  0.4911440000000  0.4775730000000 1.0
C      1  0.5909130000000  0.5606700000000  0.4562990000000 1.0
C      1  0.4184290000000  0.4329860000000  0.4976140000000 1.0
C      1  0.5679350000000  0.4457740000000  0.4532090000000 1.0
C      1  0.5426890000000  0.5588030000000  0.5431210000000 1.0
C      1  0.4162020000000  0.5186790000000  0.5512780000000 1.0
C      1  0.5500570000000  0.4290330000000  0.5143870000000 1.0
END
