TITL C-612602-9376-1098 -0.044078044465653 125000 -1049.09523356618 0 0 172 (C1) n - 1
REM
REM in /home/nfs/bkarasulu/CARBON/AIRSS/Generating-Clusters/TERSOFF/Only-C1/FIRE-HFTN
REM
REM
REM
REM
REM
REM ./C.cell (11c1c37f851c82e70ff6c80c92926a4b)
REM AIRSS Version 0.9.1 bugfix July 2018 build 013d7b7c2542+ Fri, 06 Jul 2018 19:26:36 +0100
REM compiler GCC version 9.2.1 20190827 (Red Hat 9.2.1-1)
REM options -cpp -mtune=generic -march=x86-64 -g -O0 -fpre-include=/usr/include/finclude/math-vector-fortran.h
REM seed 1221102349 434564019 600906793 -596211728 808467092 -1088098076 -2056923053 -1038719804 -18057041 -1528678059 1248985977 1774785130 805832614 -1685836940 1771583835 590436598 -966186126 -324820572 74842997 2090648326 701493192 605240818 -2034428131 1325305347 566007379 642127121 -579372626 -284450165 1497627886 -1446509282 1088458043 -1624562993 -2091093488
REM
CELL 1.54180   50.00000   50.00000   50.00000   90.00000   90.00000   90.00000
LATT -1
SFAC C  
C      1  0.4557360000000  0.5176830000000  0.3653540000000 1.0
C      1  0.5807840000000  0.5181450000000  0.4343730000000 1.0
C      1  0.3750310000000  0.5248640000000  0.5301860000000 1.0
C      1  0.6039020000000  0.4920400000000  0.5436970000000 1.0
C      1  0.3782900000000  0.4613440000000  0.5158870000000 1.0
C      1  0.3990420000000  0.4520410000000  0.4730630000000 1.0
C      1  0.4186500000000  0.5171600000000  0.4229110000000 1.0
C      1  0.6062510000000  0.5109330000000  0.5227720000000 1.0
C      1  0.5446210000000  0.5411830000000  0.5641630000000 1.0
C      1  0.4556530000000  0.5286150000000  0.4662020000000 1.0
C      1  0.4853020000000  0.4070120000000  0.4319540000000 1.0
C      1  0.5613050000000  0.4091930000000  0.5474560000000 1.0
C      1  0.5427330000000  0.4454610000000  0.4624930000000 1.0
C      1  0.5821830000000  0.4374000000000  0.4050230000000 1.0
C      1  0.4538010000000  0.4225410000000  0.5753980000000 1.0
C      1  0.5800840000000  0.5394340000000  0.4537090000000 1.0
C      1  0.6042660000000  0.4754330000000  0.4312210000000 1.0
C      1  0.4330810000000  0.4845870000000  0.4885380000000 1.0
C      1  0.4641690000000  0.4633540000000  0.4600390000000 1.0
C      1  0.5521350000000  0.5468200000000  0.4576910000000 1.0
C      1  0.4983530000000  0.5892130000000  0.5834340000000 1.0
C      1  0.5358500000000  0.4047840000000  0.5356400000000 1.0
C      1  0.4485970000000  0.5261200000000  0.3412780000000 1.0
C      1  0.5185270000000  0.4490300000000  0.4503140000000 1.0
C      1  0.4451230000000  0.5146630000000  0.4121170000000 1.0
C      1  0.5167590000000  0.5416770000000  0.4009400000000 1.0
C      1  0.4553260000000  0.5438450000000  0.5929570000000 1.0
C      1  0.4685370000000  0.6156730000000  0.4912380000000 1.0
C      1  0.5419490000000  0.4462650000000  0.6285210000000 1.0
C      1  0.5563060000000  0.4675570000000  0.4753800000000 1.0
C      1  0.4701090000000  0.5670850000000  0.4841070000000 1.0
C      1  0.5990330000000  0.4607680000000  0.5063040000000 1.0
C      1  0.3794400000000  0.4429920000000  0.4923460000000 1.0
C      1  0.5349520000000  0.5214050000000  0.4576400000000 1.0
C      1  0.4331220000000  0.5941300000000  0.5543530000000 1.0
C      1  0.4835830000000  0.4821570000000  0.4679650000000 1.0
C      1  0.5171620000000  0.5681940000000  0.5869680000000 1.0
C      1  0.5613790000000  0.5820860000000  0.5504750000000 1.0
C      1  0.4710690000000  0.4174950000000  0.5535110000000 1.0
C      1  0.5253790000000  0.5045570000000  0.5389400000000 1.0
C      1  0.4232270000000  0.5719580000000  0.5685610000000 1.0
C      1  0.5238430000000  0.5306890000000  0.5491350000000 1.0
C      1  0.5301260000000  0.5873310000000  0.5187500000000 1.0
C      1  0.4091260000000  0.5358820000000  0.4423690000000 1.0
C      1  0.4847330000000  0.5333170000000  0.4582110000000 1.0
C      1  0.5353080000000  0.6016750000000  0.4571860000000 1.0
C      1  0.4645750000000  0.4612730000000  0.6021160000000 1.0
C      1  0.5423250000000  0.4942570000000  0.4714230000000 1.0
C      1  0.4221920000000  0.5317920000000  0.5329950000000 1.0
C      1  0.5152910000000  0.4819700000000  0.6057460000000 1.0
C      1  0.5543030000000  0.6003260000000  0.5277830000000 1.0
C      1  0.4752460000000  0.5978290000000  0.4411700000000 1.0
C      1  0.5137680000000  0.5130640000000  0.3960210000000 1.0
C      1  0.5552210000000  0.4100240000000  0.4341080000000 1.0
C      1  0.4010590000000  0.5466560000000  0.4680280000000 1.0
C      1  0.4782510000000  0.5293080000000  0.5852810000000 1.0
C      1  0.5319400000000  0.3590710000000  0.4780370000000 1.0
C      1  0.5232040000000  0.4946250000000  0.4937090000000 1.0
C      1  0.4182050000000  0.4573980000000  0.5856660000000 1.0
C      1  0.5451720000000  0.5465260000000  0.4075570000000 1.0
C      1  0.5059450000000  0.4425710000000  0.3967690000000 1.0
C      1  0.5347680000000  0.4583620000000  0.6048970000000 1.0
C      1  0.5290800000000  0.3792200000000  0.5258970000000 1.0
C      1  0.5348690000000  0.5627310000000  0.5053050000000 1.0
C      1  0.5869320000000  0.5926970000000  0.4852160000000 1.0
C      1  0.5216170000000  0.5117690000000  0.6055170000000 1.0
C      1  0.5384920000000  0.3653440000000  0.4529240000000 1.0
C      1  0.5284030000000  0.3638070000000  0.5040610000000 1.0
C      1  0.4691570000000  0.4855670000000  0.5543270000000 1.0
C      1  0.4780430000000  0.4052340000000  0.4849470000000 1.0
C      1  0.4626830000000  0.3960310000000  0.5084170000000 1.0
C      1  0.4060200000000  0.4783980000000  0.4837360000000 1.0
C      1  0.4712560000000  0.6111740000000  0.4645490000000 1.0
C      1  0.5589270000000  0.4221720000000  0.4598120000000 1.0
C      1  0.4209390000000  0.5826310000000  0.5038300000000 1.0
C      1  0.4944950000000  0.4934270000000  0.4930340000000 1.0
C      1  0.5560700000000  0.4283170000000  0.4112230000000 1.0
C      1  0.4793760000000  0.5052160000000  0.5147250000000 1.0
C      1  0.4436600000000  0.4484620000000  0.4514060000000 1.0
C      1  0.4097110000000  0.5475470000000  0.6078240000000 1.0
C      1  0.4596270000000  0.4870100000000  0.5267750000000 1.0
C      1  0.4894420000000  0.5695230000000  0.5317870000000 1.0
C      1  0.5066560000000  0.5181340000000  0.4489400000000 1.0
C      1  0.5739590000000  0.5601940000000  0.5350010000000 1.0
C      1  0.5924990000000  0.5131350000000  0.5901410000000 1.0
C      1  0.5104800000000  0.4371480000000  0.5024770000000 1.0
C      1  0.4292480000000  0.5542930000000  0.5898750000000 1.0
C      1  0.4877240000000  0.4738660000000  0.6073760000000 1.0
C      1  0.4347870000000  0.5263690000000  0.5100860000000 1.0
C      1  0.4898460000000  0.4965900000000  0.3922480000000 1.0
C      1  0.4360020000000  0.5965320000000  0.5250850000000 1.0
C      1  0.5881900000000  0.4991200000000  0.5661990000000 1.0
C      1  0.4925020000000  0.4214360000000  0.4103270000000 1.0
C      1  0.4079290000000  0.4713190000000  0.6096440000000 1.0
C      1  0.3776020000000  0.4813240000000  0.5778020000000 1.0
C      1  0.5820340000000  0.4009170000000  0.5293880000000 1.0
C      1  0.5744370000000  0.5195310000000  0.6091700000000 1.0
C      1  0.5665260000000  0.6066640000000  0.5009890000000 1.0
C      1  0.5454200000000  0.6139210000000  0.4814280000000 1.0
C      1  0.4631230000000  0.6076180000000  0.5182790000000 1.0
C      1  0.5619880000000  0.5204830000000  0.5078780000000 1.0
C      1  0.5008810000000  0.5453340000000  0.5400830000000 1.0
C      1  0.4178510000000  0.4138120000000  0.5222060000000 1.0
C      1  0.5051850000000  0.5353690000000  0.5952050000000 1.0
C      1  0.6002820000000  0.4981680000000  0.4760230000000 1.0
C      1  0.4445980000000  0.4464170000000  0.5879510000000 1.0
C      1  0.5347470000000  0.4461910000000  0.4026730000000 1.0
C      1  0.3986280000000  0.4242260000000  0.5372790000000 1.0
C      1  0.4466870000000  0.5567640000000  0.4719380000000 1.0
C      1  0.4778920000000  0.4421440000000  0.5397280000000 1.0
C      1  0.4414420000000  0.5120910000000  0.4859220000000 1.0
C      1  0.5525860000000  0.5780990000000  0.4477340000000 1.0
C      1  0.4932910000000  0.5570840000000  0.4717430000000 1.0
C      1  0.3973980000000  0.5322360000000  0.5433550000000 1.0
C      1  0.5173430000000  0.4788520000000  0.5502520000000 1.0
C      1  0.3892470000000  0.4506010000000  0.5402840000000 1.0
C      1  0.5462360000000  0.4485150000000  0.5793240000000 1.0
C      1  0.5583140000000  0.5480220000000  0.5139340000000 1.0
C      1  0.5517850000000  0.5722690000000  0.4179150000000 1.0
C      1  0.5414480000000  0.4707990000000  0.5623440000000 1.0
C      1  0.4722100000000  0.3941750000000  0.5360310000000 1.0
C      1  0.4844510000000  0.4326010000000  0.4933810000000 1.0
C      1  0.6002890000000  0.4644360000000  0.5349360000000 1.0
C      1  0.6149030000000  0.4762830000000  0.4882840000000 1.0
C      1  0.4823810000000  0.5242210000000  0.5365780000000 1.0
C      1  0.4809000000000  0.3996520000000  0.4575330000000 1.0
C      1  0.4426970000000  0.4180700000000  0.5111100000000 1.0
C      1  0.5759690000000  0.4234850000000  0.4833660000000 1.0
C      1  0.5997350000000  0.4551320000000  0.4146010000000 1.0
C      1  0.4973750000000  0.5612180000000  0.4083550000000 1.0
C      1  0.5394140000000  0.4998800000000  0.4042180000000 1.0
C      1  0.5391490000000  0.5040040000000  0.5147240000000 1.0
C      1  0.5796120000000  0.5902070000000  0.4567000000000 1.0
C      1  0.5595210000000  0.5201150000000  0.4132660000000 1.0
C      1  0.3820050000000  0.5320080000000  0.4830730000000 1.0
C      1  0.5157500000000  0.4720480000000  0.4348380000000 1.0
C      1  0.5619610000000  0.4896980000000  0.5635270000000 1.0
C      1  0.4206150000000  0.5642780000000  0.4807700000000 1.0
C      1  0.4481090000000  0.4693890000000  0.5082590000000 1.0
C      1  0.4839390000000  0.5972320000000  0.5375900000000 1.0
C      1  0.3963470000000  0.4631130000000  0.5647040000000 1.0
C      1  0.4180270000000  0.4414310000000  0.4555750000000 1.0
C      1  0.4842410000000  0.5803290000000  0.4224230000000 1.0
C      1  0.5176190000000  0.5579020000000  0.4844250000000 1.0
C      1  0.4747810000000  0.5123830000000  0.5625070000000 1.0
C      1  0.4909640000000  0.4661720000000  0.5512920000000 1.0
C      1  0.4925010000000  0.4676020000000  0.3895760000000 1.0
C      1  0.4993390000000  0.4912370000000  0.4458280000000 1.0
C      1  0.6035060000000  0.5697470000000  0.4885550000000 1.0
C      1  0.5351770000000  0.4736580000000  0.4136270000000 1.0
C      1  0.4708890000000  0.5645840000000  0.5113000000000 1.0
C      1  0.5429380000000  0.5691450000000  0.5714410000000 1.0
C      1  0.3767980000000  0.5137100000000  0.5042410000000 1.0
C      1  0.4416120000000  0.5344750000000  0.3175930000000 1.0
C      1  0.5761900000000  0.4519250000000  0.4918490000000 1.0
C      1  0.4637630000000  0.5093140000000  0.3910180000000 1.0
C      1  0.5886130000000  0.5122450000000  0.4999230000000 1.0
C      1  0.5845050000000  0.4048890000000  0.5026710000000 1.0
C      1  0.5470470000000  0.3832250000000  0.4349070000000 1.0
C      1  0.4805740000000  0.6024940000000  0.5656180000000 1.0
C      1  0.3856880000000  0.4869160000000  0.5030290000000 1.0
C      1  0.5664410000000  0.4320700000000  0.5645030000000 1.0
C      1  0.4530560000000  0.6084040000000  0.5699040000000 1.0
C      1  0.5895580000000  0.4465690000000  0.5544680000000 1.0
C      1  0.5481120000000  0.5182940000000  0.6142780000000 1.0
C      1  0.4616720000000  0.4429570000000  0.5118230000000 1.0
C      1  0.3847130000000  0.4853070000000  0.6041650000000 1.0
C      1  0.4000600000000  0.4990670000000  0.4135040000000 1.0
C      1  0.5215300000000  0.6169260000000  0.4391730000000 1.0
C      1  0.5254010000000  0.4267320000000  0.5218170000000 1.0
C      1  0.6006420000000  0.5494190000000  0.4705040000000 1.0
C      1  0.5957220000000  0.4969170000000  0.4470080000000 1.0
END
