TITL C-612606-7351-236 -0.0307340267356937 125000 -337.159227040056 0 0 57 (C1) n - 1
REM
REM in /home/nfs/bkarasulu/CARBON/AIRSS/Generating-Clusters/TERSOFF/Only-C1/FIRE-HFTN
REM
REM
REM
REM
REM
REM ./C.cell (11c1c37f851c82e70ff6c80c92926a4b)
REM AIRSS Version 0.9.1 bugfix July 2018 build 013d7b7c2542+ Fri, 06 Jul 2018 19:26:36 +0100
REM compiler GCC version 9.2.1 20190827 (Red Hat 9.2.1-1)
REM options -cpp -mtune=generic -march=x86-64 -g -O0 -fpre-include=/usr/include/finclude/math-vector-fortran.h
REM seed 1767416167 636273998 879910750 1109331029 -535099208 173429874 -1178820151 253379649 1820208588 -537126825 1084793763 75438971 2043923380 -1533094105 1007239761 233613377 127630103 -1698853098 384054271 -1020819076 -2000159059 -466094231 77256173 653145118 1063451653 -1379687231 2029446169 -246511528 1135014713 1783113308 820746221 1873820247 -1413230990
REM
CELL 1.54180   50.00000   50.00000   50.00000   90.00000   90.00000   90.00000
LATT -1
SFAC C  
C      1  0.4922400000000  0.4920570000000  0.4146310000000 1.0
C      1  0.4220130000000  0.4599890000000  0.4388960000000 1.0
C      1  0.5087200000000  0.4096420000000  0.5426270000000 1.0
C      1  0.4833570000000  0.4628220000000  0.5870930000000 1.0
C      1  0.5588390000000  0.5004990000000  0.5049120000000 1.0
C      1  0.4833610000000  0.4699030000000  0.4031480000000 1.0
C      1  0.6366890000000  0.6040730000000  0.5647590000000 1.0
C      1  0.4897550000000  0.5902410000000  0.4042890000000 1.0
C      1  0.4972160000000  0.5389030000000  0.5933970000000 1.0
C      1  0.4654000000000  0.5545840000000  0.4801970000000 1.0
C      1  0.4851770000000  0.4876850000000  0.4907080000000 1.0
C      1  0.3955480000000  0.4715340000000  0.3944980000000 1.0
C      1  0.6204340000000  0.5839600000000  0.5680610000000 1.0
C      1  0.5564940000000  0.5051870000000  0.4787310000000 1.0
C      1  0.5380140000000  0.5092290000000  0.4599380000000 1.0
C      1  0.5296110000000  0.4261980000000  0.5404500000000 1.0
C      1  0.4591660000000  0.4480950000000  0.4765330000000 1.0
C      1  0.5371140000000  0.4481760000000  0.5246230000000 1.0
C      1  0.4936040000000  0.5652670000000  0.4106980000000 1.0
C      1  0.4079230000000  0.4659990000000  0.4172740000000 1.0
C      1  0.3837250000000  0.4768570000000  0.3718810000000 1.0
C      1  0.4989490000000  0.5499890000000  0.5121050000000 1.0
C      1  0.5068740000000  0.4516190000000  0.4663630000000 1.0
C      1  0.4579450000000  0.5004250000000  0.5293370000000 1.0
C      1  0.5224670000000  0.5337380000000  0.5868730000000 1.0
C      1  0.4971910000000  0.5401070000000  0.4181810000000 1.0
C      1  0.4657380000000  0.4119480000000  0.5150500000000 1.0
C      1  0.4622590000000  0.4251570000000  0.3854320000000 1.0
C      1  0.5873170000000  0.5431300000000  0.5747220000000 1.0
C      1  0.4907370000000  0.4688520000000  0.5628400000000 1.0
C      1  0.4476310000000  0.5160760000000  0.5482460000000 1.0
C      1  0.6039060000000  0.5635120000000  0.5714180000000 1.0
C      1  0.5352760000000  0.5214860000000  0.5417280000000 1.0
C      1  0.5425410000000  0.4978330000000  0.5276200000000 1.0
C      1  0.5104790000000  0.5116770000000  0.4553180000000 1.0
C      1  0.5691500000000  0.5220740000000  0.5775310000000 1.0
C      1  0.4805900000000  0.4875600000000  0.5188480000000 1.0
C      1  0.5443520000000  0.4432020000000  0.4978600000000 1.0
C      1  0.5769950000000  0.4982190000000  0.5883880000000 1.0
C      1  0.4639640000000  0.5789190000000  0.4958510000000 1.0
C      1  0.4470930000000  0.5998610000000  0.4930410000000 1.0
C      1  0.5311420000000  0.4439810000000  0.4745660000000 1.0
C      1  0.4832680000000  0.4631910000000  0.4762580000000 1.0
C      1  0.4994010000000  0.4765840000000  0.5373690000000 1.0
C      1  0.4733310000000  0.4472630000000  0.3936970000000 1.0
C      1  0.4862730000000  0.5367530000000  0.4892350000000 1.0
C      1  0.4525310000000  0.5301530000000  0.5703250000000 1.0
C      1  0.4568340000000  0.4273890000000  0.4952990000000 1.0
C      1  0.5271660000000  0.4741550000000  0.5310510000000 1.0
C      1  0.4844730000000  0.4048140000000  0.5325920000000 1.0
C      1  0.4387070000000  0.4537460000000  0.4584880000000 1.0
C      1  0.5000000000000  0.5145870000000  0.4291730000000 1.0
C      1  0.4931810000000  0.5119520000000  0.4780250000000 1.0
C      1  0.5423830000000  0.5257230000000  0.5688830000000 1.0
C      1  0.4851450000000  0.5751880000000  0.5152750000000 1.0
C      1  0.4712920000000  0.5382790000000  0.5873980000000 1.0
C      1  0.5190180000000  0.5399550000000  0.5282680000000 1.0
END
