TITL C-612607-4507-1141 3.2178916814857e-06 125000 -109.687151581111 0 0 19 (C1) n - 1
REM
REM in /home/nfs/bkarasulu/CARBON/AIRSS/Generating-Clusters/TERSOFF/Only-C1/FIRE-HFTN
REM
REM
REM
REM
REM
REM ./C.cell (11c1c37f851c82e70ff6c80c92926a4b)
REM AIRSS Version 0.9.1 bugfix July 2018 build 013d7b7c2542+ Fri, 06 Jul 2018 19:26:36 +0100
REM compiler GCC version 9.2.1 20190827 (Red Hat 9.2.1-1)
REM options -cpp -mtune=generic -march=x86-64 -g -O0 -fpre-include=/usr/include/finclude/math-vector-fortran.h
REM seed -1090480765 -80507866 1241226818 837977469 -700172301 -1509206554 -1182257268 -872721690 1673785349 366359399 -1131421984 -933922798 -1444207069 1904966835 75724845 416719967 2073158346 -255004583 1025671197 123403507 -17199492 1918159874 1939758369 619143035 629786888 -1799447258 256275575 -364161412 1260522065 -2058739215 771207956 1243627031 -1882326194
REM
CELL 1.54180   50.00000   50.00000   50.00000   90.00000   90.00000   90.00000
LATT -1
SFAC C  
C      1  0.5553620000000  0.5285220000000  0.5419550000000 1.0
C      1  0.5438030000000  0.5108390000000  0.4961830000000 1.0
C      1  0.5094170000000  0.5273170000000  0.5216480000000 1.0
C      1  0.5543120000000  0.4846490000000  0.4950280000000 1.0
C      1  0.4036110000000  0.5053300000000  0.4952630000000 1.0
C      1  0.4292480000000  0.5081210000000  0.4990150000000 1.0
C      1  0.4936970000000  0.4544690000000  0.5007270000000 1.0
C      1  0.5412570000000  0.4611540000000  0.4915520000000 1.0
C      1  0.5219820000000  0.5181490000000  0.4776050000000 1.0
C      1  0.4908400000000  0.5115820000000  0.5363510000000 1.0
C      1  0.4565430000000  0.5106930000000  0.5030850000000 1.0
C      1  0.5379020000000  0.5227200000000  0.5220740000000 1.0
C      1  0.5145700000000  0.4582590000000  0.4821950000000 1.0
C      1  0.5148220000000  0.5004280000000  0.4568330000000 1.0
C      1  0.5092840000000  0.4739640000000  0.4590290000000 1.0
C      1  0.4775780000000  0.4687210000000  0.5168070000000 1.0
C      1  0.5010740000000  0.5308830000000  0.4933760000000 1.0
C      1  0.4733070000000  0.5286160000000  0.4886290000000 1.0
C      1  0.4713910000000  0.4955830000000  0.5226460000000 1.0
END
