TITL C-612605-9286-1375 0.713590961218289 125000 -219.599363568216 0 0 38 (C1) n - 1
REM
REM in /home/nfs/bkarasulu/CARBON/AIRSS/Generating-Clusters/TERSOFF/Only-C1/FIRE-HFTN
REM
REM
REM
REM
REM
REM ./C.cell (11c1c37f851c82e70ff6c80c92926a4b)
REM AIRSS Version 0.9.1 bugfix July 2018 build 013d7b7c2542+ Fri, 06 Jul 2018 19:26:36 +0100
REM compiler GCC version 9.2.1 20190827 (Red Hat 9.2.1-1)
REM options -cpp -mtune=generic -march=x86-64 -g -O0 -fpre-include=/usr/include/finclude/math-vector-fortran.h
REM seed 2098495656 -339112772 -546719556 -281172370 -188494685 1162821811 122158002 -635735388 494752686 1009804908 1441934243 1737633950 -2046170683 -1483768566 1305653152 675894809 -847719114 1103609799 2094882191 -1467308736 896848137 1518522946 -1290993038 1851902569 -825355883 -865298183 -809721891 -1060807557 -1180497301 1287205715 360590240 796984029 -1003416180
REM
CELL 1.54180   50.00000   50.00000   50.00000   90.00000   90.00000   90.00000
LATT -1
SFAC C  
C      1  0.5562640000000  0.4998590000000  0.5779050000000 1.0
C      1  0.4820800000000  0.5423150000000  0.4674450000000 1.0
C      1  0.5797460000000  0.5413090000000  0.5878040000000 1.0
C      1  0.4851980000000  0.5392330000000  0.4947490000000 1.0
C      1  0.4894980000000  0.4550310000000  0.4146040000000 1.0
C      1  0.4713280000000  0.4318360000000  0.4788510000000 1.0
C      1  0.5228800000000  0.4792560000000  0.5433500000000 1.0
C      1  0.4612140000000  0.5560870000000  0.4529270000000 1.0
C      1  0.4461370000000  0.4866510000000  0.4123020000000 1.0
C      1  0.4764840000000  0.5230940000000  0.4238510000000 1.0
C      1  0.5324390000000  0.4662300000000  0.4719940000000 1.0
C      1  0.4647380000000  0.5101680000000  0.5589970000000 1.0
C      1  0.5402290000000  0.5069670000000  0.6004470000000 1.0
C      1  0.4716430000000  0.4992600000000  0.4099980000000 1.0
C      1  0.5103740000000  0.5435920000000  0.6098610000000 1.0
C      1  0.4965640000000  0.4814620000000  0.5340680000000 1.0
C      1  0.4766000000000  0.4424320000000  0.5026300000000 1.0
C      1  0.4663460000000  0.4459160000000  0.4284950000000 1.0
C      1  0.5414550000000  0.5274030000000  0.4386700000000 1.0
C      1  0.4407630000000  0.4969970000000  0.5599090000000 1.0
C      1  0.5445810000000  0.4847280000000  0.5576870000000 1.0
C      1  0.5201620000000  0.5138660000000  0.4492800000000 1.0
C      1  0.4433280000000  0.4612710000000  0.4217480000000 1.0
C      1  0.4929450000000  0.4810070000000  0.4033670000000 1.0
C      1  0.5785940000000  0.5173050000000  0.5747950000000 1.0
C      1  0.4942570000000  0.5246650000000  0.4473570000000 1.0
C      1  0.4581610000000  0.5452050000000  0.4276600000000 1.0
C      1  0.5365580000000  0.5340570000000  0.6088820000000 1.0
C      1  0.4854720000000  0.5261460000000  0.5178220000000 1.0
C      1  0.4679920000000  0.4319130000000  0.4524790000000 1.0
C      1  0.5598670000000  0.5498440000000  0.6045010000000 1.0
C      1  0.5240950000000  0.4893670000000  0.4621480000000 1.0
C      1  0.5139430000000  0.4876830000000  0.3873460000000 1.0
C      1  0.4869020000000  0.5401870000000  0.5976690000000 1.0
C      1  0.5422500000000  0.4437740000000  0.4808880000000 1.0
C      1  0.4845070000000  0.4598780000000  0.5209950000000 1.0
C      1  0.4719380000000  0.5279380000000  0.5794330000000 1.0
C      1  0.4824680000000  0.5060680000000  0.5370860000000 1.0
END
