TITL C-612601-4209-671 339.633089306359 125000 -447.905546322371 0 0 75 (C1) n - 1
REM
REM in /home/nfs/bkarasulu/CARBON/AIRSS/Generating-Clusters/TERSOFF/Only-C1/FIRE-HFTN
REM
REM
REM
REM
REM
REM ./C.cell (11c1c37f851c82e70ff6c80c92926a4b)
REM AIRSS Version 0.9.1 bugfix July 2018 build 013d7b7c2542+ Fri, 06 Jul 2018 19:26:36 +0100
REM compiler GCC version 9.2.1 20190827 (Red Hat 9.2.1-1)
REM options -cpp -mtune=generic -march=x86-64 -g -O0 -fpre-include=/usr/include/finclude/math-vector-fortran.h
REM seed 319281581 -890591162 1872390645 -1883939065 1578602786 -1772199738 542072582 -1200059685 276023996 1772682960 236998139 402040054 1161241306 -233854500 437387964 -573528555 1908698835 36068718 -670113998 20114919 -779902108 1070483816 1796455819 -259160147 350865394 -402616753 -1996889842 -648269731 2086676802 -697093642 -481276224 1060557593 -958849062
REM
CELL 1.54180   50.00000   50.00000   50.00000   90.00000   90.00000   90.00000
LATT -1
SFAC C  
C      1  0.5562210000000  0.4636210000000  0.4719120000000 1.0
C      1  0.4978660000000  0.4993170000000  0.4902310000000 1.0
C      1  0.4725020000000  0.5783320000000  0.5298310000000 1.0
C      1  0.4767520000000  0.5685930000000  0.4476860000000 1.0
C      1  0.5348840000000  0.5154570000000  0.5226440000000 1.0
C      1  0.5145280000000  0.5437280000000  0.4272560000000 1.0
C      1  0.5302390000000  0.4313780000000  0.5118070000000 1.0
C      1  0.5107980000000  0.4736830000000  0.4514590000000 1.0
C      1  0.5924170000000  0.4315570000000  0.4831520000000 1.0
C      1  0.4499610000000  0.4950580000000  0.5003040000000 1.0
C      1  0.5024820000000  0.5562330000000  0.4496140000000 1.0
C      1  0.5006790000000  0.4775750000000  0.5086000000000 1.0
C      1  0.4392960000000  0.4441250000000  0.4843780000000 1.0
C      1  0.4445010000000  0.5822110000000  0.5237940000000 1.0
C      1  0.5262090000000  0.5094580000000  0.5795200000000 1.0
C      1  0.4269120000000  0.4946600000000  0.4827030000000 1.0
C      1  0.5262950000000  0.4811840000000  0.5778690000000 1.0
C      1  0.4838870000000  0.5301930000000  0.5214960000000 1.0
C      1  0.4631020000000  0.4289190000000  0.4757910000000 1.0
C      1  0.5282160000000  0.4565500000000  0.4671680000000 1.0
C      1  0.4441610000000  0.5278850000000  0.4524080000000 1.0
C      1  0.4854350000000  0.4667210000000  0.4375350000000 1.0
C      1  0.4622420000000  0.5053950000000  0.4548840000000 1.0
C      1  0.4712970000000  0.5024130000000  0.4821660000000 1.0
C      1  0.5484820000000  0.5499560000000  0.5618310000000 1.0
C      1  0.5189760000000  0.5019010000000  0.4497090000000 1.0
C      1  0.4341020000000  0.4688050000000  0.4675320000000 1.0
C      1  0.5676450000000  0.4895740000000  0.4715300000000 1.0
C      1  0.5179330000000  0.5016150000000  0.4008430000000 1.0
C      1  0.4786510000000  0.4615630000000  0.5120890000000 1.0
C      1  0.5171310000000  0.4207390000000  0.5351070000000 1.0
C      1  0.5884300000000  0.5193510000000  0.5093900000000 1.0
C      1  0.4755140000000  0.4336010000000  0.5643890000000 1.0
C      1  0.4543600000000  0.5521030000000  0.4427490000000 1.0
C      1  0.5611610000000  0.4681900000000  0.5317910000000 1.0
C      1  0.5199920000000  0.5161330000000  0.4248580000000 1.0
C      1  0.4903930000000  0.4258690000000  0.4767220000000 1.0
C      1  0.5871480000000  0.5214360000000  0.5363100000000 1.0
C      1  0.4273090000000  0.5679630000000  0.5079100000000 1.0
C      1  0.5167420000000  0.4354330000000  0.4845850000000 1.0
C      1  0.5162400000000  0.4763760000000  0.5312660000000 1.0
C      1  0.4804630000000  0.5991440000000  0.4861530000000 1.0
C      1  0.4900840000000  0.4625520000000  0.4095620000000 1.0
C      1  0.4778860000000  0.4347760000000  0.5164020000000 1.0
C      1  0.5410770000000  0.4881050000000  0.5267470000000 1.0
C      1  0.4739180000000  0.5933790000000  0.4606870000000 1.0
C      1  0.5103760000000  0.5269740000000  0.5253570000000 1.0
C      1  0.5503040000000  0.5227100000000  0.5699490000000 1.0
C      1  0.4344580000000  0.5420610000000  0.4984950000000 1.0
C      1  0.5148940000000  0.5167030000000  0.4747530000000 1.0
C      1  0.5078390000000  0.4724580000000  0.5580210000000 1.0
C      1  0.5354320000000  0.5684990000000  0.5153310000000 1.0
C      1  0.4790720000000  0.5637290000000  0.5538520000000 1.0
C      1  0.4558230000000  0.4770950000000  0.4443950000000 1.0
C      1  0.4899320000000  0.5817580000000  0.5064900000000 1.0
C      1  0.5049170000000  0.4790000000000  0.3939580000000 1.0
C      1  0.4300410000000  0.4421840000000  0.5143260000000 1.0
C      1  0.4562440000000  0.4772330000000  0.5195430000000 1.0
C      1  0.5452960000000  0.5654930000000  0.5401310000000 1.0
C      1  0.4419940000000  0.4590670000000  0.5365070000000 1.0
C      1  0.4590150000000  0.5351370000000  0.5125340000000 1.0
C      1  0.4809830000000  0.4824840000000  0.5648200000000 1.0
C      1  0.4825010000000  0.5409910000000  0.5685590000000 1.0
C      1  0.5128640000000  0.5653940000000  0.4983940000000 1.0
C      1  0.4980010000000  0.4214720000000  0.5545120000000 1.0
C      1  0.5567280000000  0.4446600000000  0.5148940000000 1.0
C      1  0.5804530000000  0.5080990000000  0.4862950000000 1.0
C      1  0.4389740000000  0.4764980000000  0.4189420000000 1.0
C      1  0.5751620000000  0.4792640000000  0.5543810000000 1.0
C      1  0.4912480000000  0.5147880000000  0.5739980000000 1.0
C      1  0.5734940000000  0.5081430000000  0.5579210000000 1.0
C      1  0.4612070000000  0.4589120000000  0.5603570000000 1.0
C      1  0.4264070000000  0.5244010000000  0.4758430000000 1.0
C      1  0.5700900000000  0.4456470000000  0.4895880000000 1.0
C      1  0.5117340000000  0.5463350000000  0.4754850000000 1.0
END
