TITL C-612600-6631-933 0.0367048892626862 125000 -153.675576092228 0 0 27 (C1) n - 1
REM
REM in /home/nfs/bkarasulu/CARBON/AIRSS/Generating-Clusters/TERSOFF/Only-C1/FIRE-HFTN
REM
REM
REM
REM
REM
REM ./C.cell (11c1c37f851c82e70ff6c80c92926a4b)
REM AIRSS Version 0.9.1 bugfix July 2018 build 013d7b7c2542+ Fri, 06 Jul 2018 19:26:36 +0100
REM compiler GCC version 9.2.1 20190827 (Red Hat 9.2.1-1)
REM options -cpp -mtune=generic -march=x86-64 -g -O0 -fpre-include=/usr/include/finclude/math-vector-fortran.h
REM seed 1379621649 750483977 1993659346 -1109677313 -1539379610 -810154193 1253720625 -1191935825 1811809365 698475657 290605215 978420650 -516001496 2131007561 1888912420 -1066275103 549008096 -791651997 -180511313 -1240911402 665453317 -1589705362 -1766512335 1158494097 995998169 1000640094 932915455 -1417905237 -808688814 1066206085 -561492477 731185135 -1426465664
REM
CELL 1.54180   50.00000   50.00000   50.00000   90.00000   90.00000   90.00000
LATT -1
SFAC C  
C      1  0.4384530000000  0.4905260000000  0.5283330000000 1.0
C      1  0.4619160000000  0.4394740000000  0.4845870000000 1.0
C      1  0.4364050000000  0.4752950000000  0.5064230000000 1.0
C      1  0.5708670000000  0.5109330000000  0.5110370000000 1.0
C      1  0.5388360000000  0.6045960000000  0.4442590000000 1.0
C      1  0.5252440000000  0.5638910000000  0.4657620000000 1.0
C      1  0.4590330000000  0.5027950000000  0.5430310000000 1.0
C      1  0.5031350000000  0.4185160000000  0.4700930000000 1.0
C      1  0.5123260000000  0.4688880000000  0.5252910000000 1.0
C      1  0.4900940000000  0.4355310000000  0.4871360000000 1.0
C      1  0.4624020000000  0.4852140000000  0.4672810000000 1.0
C      1  0.5196500000000  0.4950390000000  0.5163700000000 1.0
C      1  0.4681140000000  0.4908410000000  0.5669200000000 1.0
C      1  0.5464330000000  0.5024690000000  0.5142720000000 1.0
C      1  0.4890710000000  0.4742580000000  0.5703170000000 1.0
C      1  0.5090770000000  0.5441950000000  0.4729490000000 1.0
C      1  0.5072680000000  0.4651650000000  0.5527600000000 1.0
C      1  0.5447690000000  0.5830750000000  0.4600600000000 1.0
C      1  0.4787250000000  0.5063070000000  0.4667350000000 1.0
C      1  0.4780130000000  0.5177350000000  0.5283360000000 1.0
C      1  0.5941080000000  0.5763760000000  0.4810210000000 1.0
C      1  0.5044930000000  0.4494830000000  0.5067400000000 1.0
C      1  0.4956610000000  0.5218950000000  0.4827780000000 1.0
C      1  0.4449690000000  0.4181070000000  0.4822500000000 1.0
C      1  0.4987780000000  0.5134170000000  0.5097970000000 1.0
C      1  0.4517180000000  0.4660010000000  0.4847480000000 1.0
C      1  0.5704420000000  0.5799790000000  0.4707160000000 1.0
END
