TITL C-612605-9286-959 0.122475455791359 125000 -483.764973324052 0 0 79 (C1) n - 1
REM
REM in /home/nfs/bkarasulu/CARBON/AIRSS/Generating-Clusters/TERSOFF/Only-C1/FIRE-HFTN
REM
REM
REM
REM
REM
REM ./C.cell (11c1c37f851c82e70ff6c80c92926a4b)
REM AIRSS Version 0.9.1 bugfix July 2018 build 013d7b7c2542+ Fri, 06 Jul 2018 19:26:36 +0100
REM compiler GCC version 9.2.1 20190827 (Red Hat 9.2.1-1)
REM options -cpp -mtune=generic -march=x86-64 -g -O0 -fpre-include=/usr/include/finclude/math-vector-fortran.h
REM seed 1274448811 23905697 1958428776 1803902607 1605984257 -1125532612 753273815 536177075 747784378 -977632953 -949705636 198454751 848071907 1565825699 -695698893 1030524896 1888427098 -1519374637 -1783892843 1954314466 152843295 -1947473407 -205954791 -270656287 940696605 1683828545 -913546845 1808934176 285085486 -803252560 -1240384954 -1407436602 2085808368
REM
CELL 1.54180   50.00000   50.00000   50.00000   90.00000   90.00000   90.00000
LATT -1
SFAC C  
C      1  0.5050240000000  0.5781210000000  0.5130970000000 1.0
C      1  0.4835200000000  0.5957230000000  0.5077020000000 1.0
C      1  0.5756780000000  0.5710280000000  0.4447410000000 1.0
C      1  0.5301330000000  0.4153780000000  0.4345230000000 1.0
C      1  0.5240170000000  0.5271620000000  0.4681640000000 1.0
C      1  0.4641500000000  0.5243710000000  0.4984910000000 1.0
C      1  0.5013370000000  0.5511050000000  0.5042210000000 1.0
C      1  0.4914860000000  0.4662140000000  0.3829300000000 1.0
C      1  0.4155580000000  0.4682350000000  0.5257040000000 1.0
C      1  0.4840520000000  0.5155380000000  0.5407470000000 1.0
C      1  0.3774590000000  0.5218510000000  0.4909580000000 1.0
C      1  0.5154590000000  0.4352190000000  0.4951140000000 1.0
C      1  0.4125260000000  0.5451150000000  0.5150170000000 1.0
C      1  0.4637300000000  0.5772890000000  0.5601380000000 1.0
C      1  0.4879900000000  0.5588940000000  0.4560000000000 1.0
C      1  0.4883410000000  0.4662450000000  0.5607600000000 1.0
C      1  0.5421720000000  0.5329910000000  0.4477110000000 1.0
C      1  0.5506520000000  0.4672720000000  0.5452140000000 1.0
C      1  0.5750110000000  0.4639460000000  0.4725010000000 1.0
C      1  0.4424990000000  0.4609940000000  0.4834240000000 1.0
C      1  0.4858600000000  0.5483160000000  0.4308450000000 1.0
C      1  0.5247610000000  0.5035130000000  0.4838640000000 1.0
C      1  0.4723960000000  0.5812200000000  0.4632060000000 1.0
C      1  0.4491280000000  0.5066900000000  0.4838690000000 1.0
C      1  0.5305010000000  0.5892540000000  0.5163140000000 1.0
C      1  0.5720650000000  0.5984870000000  0.4873300000000 1.0
C      1  0.5114070000000  0.4798400000000  0.4752250000000 1.0
C      1  0.5488390000000  0.4317860000000  0.4444190000000 1.0
C      1  0.5509040000000  0.5402230000000  0.5369200000000 1.0
C      1  0.5436980000000  0.4789900000000  0.5223380000000 1.0
C      1  0.5366330000000  0.3939940000000  0.5154470000000 1.0
C      1  0.5846270000000  0.5180540000000  0.5046850000000 1.0
C      1  0.5126870000000  0.4694880000000  0.5741020000000 1.0
C      1  0.4861970000000  0.4775170000000  0.4339580000000 1.0
C      1  0.4410810000000  0.5772230000000  0.5455890000000 1.0
C      1  0.3275470000000  0.5175650000000  0.4750450000000 1.0
C      1  0.5257650000000  0.4555170000000  0.4787380000000 1.0
C      1  0.5948720000000  0.4266290000000  0.4985280000000 1.0
C      1  0.4219110000000  0.5025280000000  0.4924920000000 1.0
C      1  0.5630870000000  0.3903460000000  0.5145130000000 1.0
C      1  0.4719280000000  0.5312020000000  0.5627860000000 1.0
C      1  0.4824440000000  0.5571240000000  0.5663010000000 1.0
C      1  0.4462140000000  0.4912500000000  0.5565130000000 1.0
C      1  0.6011060000000  0.4991080000000  0.5181480000000 1.0
C      1  0.5851730000000  0.4033910000000  0.5071600000000 1.0
C      1  0.5586270000000  0.5232830000000  0.5157470000000 1.0
C      1  0.5048800000000  0.4069020000000  0.4361380000000 1.0
C      1  0.4610940000000  0.4819590000000  0.4749730000000 1.0
C      1  0.5052770000000  0.5470780000000  0.4756490000000 1.0
C      1  0.4599060000000  0.4168050000000  0.4607360000000 1.0
C      1  0.4276670000000  0.4480830000000  0.5676350000000 1.0
C      1  0.4852880000000  0.5302050000000  0.5159390000000 1.0
C      1  0.5340900000000  0.5508170000000  0.5550660000000 1.0
C      1  0.4476270000000  0.5171180000000  0.5694550000000 1.0
C      1  0.4501740000000  0.4338210000000  0.5717970000000 1.0
C      1  0.5401310000000  0.5026820000000  0.5078800000000 1.0
C      1  0.4040270000000  0.5231310000000  0.4995130000000 1.0
C      1  0.5802460000000  0.5891830000000  0.4637370000000 1.0
C      1  0.5506950000000  0.4509070000000  0.4649970000000 1.0
C      1  0.5185330000000  0.4122000000000  0.5081340000000 1.0
C      1  0.3523000000000  0.5197410000000  0.4829310000000 1.0
C      1  0.5854080000000  0.5139000000000  0.4764160000000 1.0
C      1  0.5807570000000  0.4903660000000  0.4637140000000 1.0
C      1  0.5607480000000  0.5497990000000  0.4385930000000 1.0
C      1  0.4238680000000  0.5642950000000  0.5297130000000 1.0
C      1  0.4266960000000  0.4711860000000  0.5513610000000 1.0
C      1  0.4695070000000  0.5970110000000  0.4847250000000 1.0
C      1  0.5107250000000  0.5589750000000  0.5657440000000 1.0
C      1  0.5538380000000  0.5976610000000  0.5067110000000 1.0
C      1  0.4462120000000  0.4348360000000  0.4747970000000 1.0
C      1  0.4802450000000  0.4074690000000  0.4462860000000 1.0
C      1  0.4214520000000  0.4740320000000  0.4989970000000 1.0
C      1  0.6034030000000  0.4729500000000  0.5115190000000 1.0
C      1  0.4747250000000  0.4877290000000  0.5475100000000 1.0
C      1  0.5920230000000  0.4539890000000  0.4936900000000 1.0
C      1  0.4750220000000  0.4417860000000  0.5654340000000 1.0
C      1  0.4884920000000  0.4725050000000  0.4080500000000 1.0
C      1  0.5386300000000  0.4658120000000  0.5690270000000 1.0
C      1  0.4860640000000  0.4798320000000  0.4618920000000 1.0
END
