TITL C-612602-9376-278 1.66987676322552e-05 125000 -758.020400865451 0 0 124 (C1) n - 1
REM
REM in /home/nfs/bkarasulu/CARBON/AIRSS/Generating-Clusters/TERSOFF/Only-C1/FIRE-HFTN
REM
REM
REM
REM
REM
REM ./C.cell (11c1c37f851c82e70ff6c80c92926a4b)
REM AIRSS Version 0.9.1 bugfix July 2018 build 013d7b7c2542+ Fri, 06 Jul 2018 19:26:36 +0100
REM compiler GCC version 9.2.1 20190827 (Red Hat 9.2.1-1)
REM options -cpp -mtune=generic -march=x86-64 -g -O0 -fpre-include=/usr/include/finclude/math-vector-fortran.h
REM seed 699887010 1193479217 763155637 -355917761 743192215 -197198854 -1218300833 -1710626878 370421903 -991233627 -1957266609 2031100963 1573666082 -1818928313 2119151697 -162059793 -563571465 1074672292 113488751 -1933493523 1985273366 -1495149849 1911626458 -2041682633 -159620378 -1314956518 -2002015939 -1227672147 743258519 -1416316994 -981502392 -1764532284 2141065791
REM
CELL 1.54180   50.00000   50.00000   50.00000   90.00000   90.00000   90.00000
LATT -1
SFAC C  
C      1  0.5321230000000  0.5329940000000  0.5561630000000 1.0
C      1  0.5483840000000  0.5914580000000  0.5265060000000 1.0
C      1  0.5065050000000  0.4538550000000  0.4954900000000 1.0
C      1  0.5156600000000  0.4880410000000  0.5834120000000 1.0
C      1  0.5419740000000  0.4870410000000  0.4134460000000 1.0
C      1  0.4076060000000  0.4931530000000  0.5683710000000 1.0
C      1  0.4169200000000  0.4858760000000  0.4598840000000 1.0
C      1  0.5003610000000  0.5961690000000  0.4712210000000 1.0
C      1  0.4255950000000  0.4579450000000  0.4601570000000 1.0
C      1  0.5673080000000  0.4173700000000  0.4468370000000 1.0
C      1  0.5356380000000  0.6028780000000  0.5498180000000 1.0
C      1  0.5281950000000  0.5330690000000  0.5283080000000 1.0
C      1  0.6102980000000  0.4944580000000  0.5271640000000 1.0
C      1  0.5038110000000  0.4593230000000  0.4029420000000 1.0
C      1  0.5167830000000  0.5035880000000  0.4117830000000 1.0
C      1  0.4521670000000  0.4473530000000  0.4515670000000 1.0
C      1  0.5411460000000  0.4165560000000  0.5420700000000 1.0
C      1  0.4583500000000  0.5037990000000  0.4771890000000 1.0
C      1  0.5217410000000  0.4017880000000  0.4264910000000 1.0
C      1  0.4581350000000  0.4732600000000  0.5264010000000 1.0
C      1  0.5456570000000  0.5582680000000  0.5589790000000 1.0
C      1  0.5061200000000  0.4944790000000  0.5221930000000 1.0
C      1  0.4559390000000  0.5669090000000  0.4341420000000 1.0
C      1  0.5304770000000  0.5248040000000  0.4824180000000 1.0
C      1  0.4717410000000  0.5959740000000  0.4751160000000 1.0
C      1  0.4157240000000  0.5517320000000  0.5620120000000 1.0
C      1  0.5059370000000  0.5696950000000  0.4216810000000 1.0
C      1  0.5144170000000  0.4116990000000  0.5515960000000 1.0
C      1  0.4937780000000  0.3941560000000  0.5115580000000 1.0
C      1  0.5466240000000  0.4730890000000  0.5141550000000 1.0
C      1  0.3961710000000  0.4972960000000  0.5165520000000 1.0
C      1  0.5188480000000  0.5567350000000  0.5130760000000 1.0
C      1  0.5100200000000  0.5170990000000  0.4363330000000 1.0
C      1  0.5540460000000  0.4523760000000  0.5752480000000 1.0
C      1  0.4671950000000  0.4258460000000  0.5388840000000 1.0
C      1  0.5948750000000  0.4830950000000  0.4684850000000 1.0
C      1  0.5811050000000  0.5104920000000  0.5617400000000 1.0
C      1  0.5224120000000  0.5050740000000  0.4615320000000 1.0
C      1  0.4281440000000  0.4432930000000  0.5685940000000 1.0
C      1  0.5498000000000  0.5233780000000  0.5084420000000 1.0
C      1  0.5837470000000  0.5037930000000  0.4486380000000 1.0
C      1  0.4015880000000  0.5059420000000  0.5436730000000 1.0
C      1  0.4708680000000  0.3904600000000  0.4946950000000 1.0
C      1  0.5791610000000  0.5598580000000  0.4892050000000 1.0
C      1  0.4818410000000  0.5565930000000  0.4284660000000 1.0
C      1  0.5602190000000  0.4365990000000  0.5521000000000 1.0
C      1  0.5251270000000  0.4754840000000  0.5331640000000 1.0
C      1  0.4246680000000  0.4115560000000  0.4798610000000 1.0
C      1  0.5090610000000  0.5438450000000  0.4898110000000 1.0
C      1  0.4367680000000  0.5543370000000  0.5031350000000 1.0
C      1  0.5251790000000  0.5805570000000  0.5677850000000 1.0
C      1  0.4648730000000  0.5483350000000  0.5141490000000 1.0
C      1  0.4856060000000  0.5072400000000  0.5379960000000 1.0
C      1  0.5629030000000  0.4971550000000  0.5164330000000 1.0
C      1  0.5848060000000  0.4390440000000  0.5052280000000 1.0
C      1  0.4985130000000  0.4140580000000  0.4197560000000 1.0
C      1  0.4543580000000  0.4975240000000  0.5063140000000 1.0
C      1  0.4898690000000  0.4082440000000  0.5369400000000 1.0
C      1  0.5704630000000  0.4417880000000  0.4611070000000 1.0
C      1  0.5441680000000  0.5730240000000  0.4572330000000 1.0
C      1  0.5606940000000  0.4926200000000  0.4348050000000 1.0
C      1  0.4474220000000  0.4274170000000  0.5588100000000 1.0
C      1  0.4957470000000  0.4873400000000  0.3992710000000 1.0
C      1  0.4964360000000  0.5735020000000  0.5561250000000 1.0
C      1  0.5117070000000  0.4582070000000  0.5507210000000 1.0
C      1  0.4648310000000  0.5198360000000  0.5232570000000 1.0
C      1  0.4048630000000  0.5165180000000  0.4965300000000 1.0
C      1  0.4530220000000  0.4073810000000  0.4801720000000 1.0
C      1  0.5308960000000  0.5719830000000  0.4319100000000 1.0
C      1  0.4731890000000  0.4838240000000  0.5512530000000 1.0
C      1  0.5300730000000  0.4471630000000  0.4401140000000 1.0
C      1  0.5690230000000  0.4140850000000  0.5018460000000 1.0
C      1  0.4659960000000  0.4322070000000  0.4723410000000 1.0
C      1  0.4993770000000  0.4893530000000  0.4707140000000 1.0
C      1  0.5665430000000  0.5424530000000  0.6016330000000 1.0
C      1  0.5846820000000  0.5000210000000  0.5354140000000 1.0
C      1  0.4678000000000  0.4906180000000  0.3980550000000 1.0
C      1  0.5686590000000  0.5565130000000  0.4629370000000 1.0
C      1  0.5216610000000  0.3932200000000  0.5041090000000 1.0
C      1  0.5307600000000  0.5795490000000  0.5971580000000 1.0
C      1  0.5274700000000  0.5874470000000  0.4777510000000 1.0
C      1  0.4807480000000  0.4424690000000  0.4944330000000 1.0
C      1  0.4814990000000  0.5446740000000  0.4882750000000 1.0
C      1  0.4944680000000  0.4731790000000  0.5684930000000 1.0
C      1  0.5816030000000  0.4441640000000  0.5337270000000 1.0
C      1  0.4333210000000  0.5480640000000  0.4314990000000 1.0
C      1  0.4857550000000  0.5316600000000  0.4420290000000 1.0
C      1  0.4124970000000  0.4353580000000  0.4728700000000 1.0
C      1  0.4612230000000  0.4498040000000  0.4245680000000 1.0
C      1  0.5444100000000  0.4860520000000  0.4576170000000 1.0
C      1  0.4466080000000  0.6086270000000  0.5207420000000 1.0
C      1  0.5694000000000  0.5482870000000  0.5128640000000 1.0
C      1  0.5623800000000  0.5662680000000  0.5353540000000 1.0
C      1  0.4783940000000  0.5652690000000  0.5369210000000 1.0
C      1  0.5009880000000  0.4825260000000  0.4973680000000 1.0
C      1  0.4332560000000  0.5978120000000  0.5413170000000 1.0
C      1  0.4532790000000  0.5787450000000  0.4610550000000 1.0
C      1  0.5805990000000  0.5327790000000  0.4507490000000 1.0
C      1  0.5386660000000  0.4708060000000  0.5882170000000 1.0
C      1  0.5775210000000  0.5247140000000  0.5844080000000 1.0
C      1  0.4707860000000  0.5288300000000  0.4675330000000 1.0
C      1  0.4861000000000  0.4390910000000  0.4141550000000 1.0
C      1  0.5300400000000  0.4596630000000  0.4145830000000 1.0
C      1  0.5352060000000  0.4550670000000  0.4927750000000 1.0
C      1  0.4514250000000  0.4719660000000  0.4092560000000 1.0
C      1  0.4149320000000  0.5391440000000  0.5128780000000 1.0
C      1  0.5309770000000  0.5819670000000  0.5058240000000 1.0
C      1  0.4128740000000  0.5138290000000  0.4689550000000 1.0
C      1  0.4343660000000  0.5609510000000  0.4754690000000 1.0
C      1  0.4226490000000  0.5394060000000  0.4572770000000 1.0
C      1  0.5218700000000  0.5147740000000  0.5751310000000 1.0
C      1  0.5442750000000  0.4568000000000  0.4643810000000 1.0
C      1  0.4733000000000  0.4853460000000  0.4613940000000 1.0
C      1  0.4140860000000  0.4659560000000  0.5705790000000 1.0
C      1  0.4609670000000  0.6087600000000  0.4981020000000 1.0
C      1  0.5492540000000  0.5623630000000  0.6079820000000 1.0
C      1  0.4231980000000  0.5782680000000  0.5566530000000 1.0
C      1  0.5452640000000  0.4055330000000  0.5151640000000 1.0
C      1  0.4159440000000  0.5383520000000  0.5869900000000 1.0
C      1  0.4121020000000  0.5115550000000  0.5896750000000 1.0
C      1  0.5473320000000  0.4029410000000  0.4353540000000 1.0
C      1  0.4656040000000  0.4464700000000  0.5187820000000 1.0
C      1  0.5888750000000  0.4552440000000  0.4795880000000 1.0
C      1  0.4095870000000  0.5343140000000  0.5404440000000 1.0
END
