TITL C-612605-9286-1030 37.0044753956612 125000 -837.811478608754 0 0 136 (C1) n - 1
REM
REM in /home/nfs/bkarasulu/CARBON/AIRSS/Generating-Clusters/TERSOFF/Only-C1/FIRE-HFTN
REM
REM
REM
REM
REM
REM ./C.cell (11c1c37f851c82e70ff6c80c92926a4b)
REM AIRSS Version 0.9.1 bugfix July 2018 build 013d7b7c2542+ Fri, 06 Jul 2018 19:26:36 +0100
REM compiler GCC version 9.2.1 20190827 (Red Hat 9.2.1-1)
REM options -cpp -mtune=generic -march=x86-64 -g -O0 -fpre-include=/usr/include/finclude/math-vector-fortran.h
REM seed -1292891032 -1357861714 -2116448140 928557893 -649118403 -1480670326 -1001782010 1910694018 1052318245 -1170922271 2139104816 1433893353 -1407365102 750115721 457759220 -1698460675 -2098134139 -77372949 1811175523 -998145615 1180713203 1432214245 -212712013 -109666530 -1689601616 -169023342 2116257525 2050822945 106852853 1902468261 -2103241880 -1561789093 -517488386
REM
CELL 1.54180   50.00000   50.00000   50.00000   90.00000   90.00000   90.00000
LATT -1
SFAC C  
C      1  0.6233040000000  0.5322560000000  0.4410650000000 1.0
C      1  0.4280230000000  0.5466700000000  0.5757130000000 1.0
C      1  0.5226530000000  0.5681600000000  0.5719220000000 1.0
C      1  0.5268990000000  0.6130270000000  0.5286420000000 1.0
C      1  0.5991260000000  0.5436180000000  0.5052740000000 1.0
C      1  0.4855680000000  0.4599870000000  0.4103970000000 1.0
C      1  0.5170290000000  0.4074170000000  0.5232610000000 1.0
C      1  0.5712570000000  0.4229470000000  0.5575670000000 1.0
C      1  0.5078370000000  0.5230180000000  0.5018500000000 1.0
C      1  0.4465260000000  0.4693360000000  0.5106160000000 1.0
C      1  0.4046000000000  0.5192350000000  0.4508600000000 1.0
C      1  0.5802720000000  0.4470280000000  0.5502530000000 1.0
C      1  0.5129700000000  0.5792190000000  0.4998570000000 1.0
C      1  0.4775280000000  0.4350530000000  0.5188870000000 1.0
C      1  0.4503990000000  0.4119770000000  0.5624710000000 1.0
C      1  0.4755370000000  0.5590890000000  0.5818780000000 1.0
C      1  0.5726870000000  0.3854330000000  0.4345550000000 1.0
C      1  0.4316940000000  0.5225260000000  0.5089280000000 1.0
C      1  0.5242450000000  0.3940310000000  0.4990130000000 1.0
C      1  0.5690350000000  0.4807110000000  0.4469370000000 1.0
C      1  0.5244690000000  0.5743960000000  0.4149290000000 1.0
C      1  0.5510790000000  0.4015720000000  0.4283430000000 1.0
C      1  0.5466900000000  0.4647490000000  0.4498630000000 1.0
C      1  0.4076010000000  0.4908190000000  0.4544660000000 1.0
C      1  0.5086350000000  0.4796180000000  0.6173350000000 1.0
C      1  0.5629370000000  0.5528820000000  0.5529930000000 1.0
C      1  0.5212690000000  0.5271360000000  0.4061900000000 1.0
C      1  0.4234750000000  0.5602800000000  0.4658960000000 1.0
C      1  0.5135480000000  0.5164630000000  0.4312330000000 1.0
C      1  0.4464610000000  0.4835720000000  0.5687000000000 1.0
C      1  0.6318510000000  0.5101970000000  0.5249090000000 1.0
C      1  0.5072630000000  0.4528640000000  0.6108860000000 1.0
C      1  0.5659050000000  0.5926620000000  0.4766610000000 1.0
C      1  0.3401630000000  0.4663590000000  0.4587480000000 1.0
C      1  0.4922860000000  0.4567190000000  0.4577050000000 1.0
C      1  0.4293710000000  0.4787350000000  0.4393200000000 1.0
C      1  0.5227020000000  0.5621940000000  0.5220290000000 1.0
C      1  0.5106690000000  0.4568430000000  0.3947750000000 1.0
C      1  0.4523470000000  0.5233480000000  0.6107550000000 1.0
C      1  0.4294390000000  0.5255700000000  0.5565630000000 1.0
C      1  0.5307450000000  0.4798860000000  0.5143270000000 1.0
C      1  0.5647970000000  0.5797570000000  0.4505500000000 1.0
C      1  0.5128950000000  0.5014710000000  0.5993410000000 1.0
C      1  0.5249450000000  0.3966640000000  0.4718870000000 1.0
C      1  0.5928580000000  0.3702950000000  0.4411200000000 1.0
C      1  0.4075720000000  0.5644950000000  0.5671180000000 1.0
C      1  0.4664380000000  0.4594250000000  0.5277350000000 1.0
C      1  0.4186920000000  0.4450350000000  0.5428490000000 1.0
C      1  0.4338040000000  0.4479120000000  0.5923660000000 1.0
C      1  0.5190230000000  0.4928140000000  0.4710300000000 1.0
C      1  0.4514720000000  0.5461870000000  0.5931600000000 1.0
C      1  0.4506910000000  0.5127690000000  0.4894110000000 1.0
C      1  0.5153020000000  0.4966620000000  0.4979320000000 1.0
C      1  0.5269730000000  0.4050480000000  0.4447900000000 1.0
C      1  0.5050160000000  0.4323580000000  0.5173870000000 1.0
C      1  0.5270600000000  0.5068880000000  0.3871400000000 1.0
C      1  0.4810280000000  0.5522150000000  0.4000450000000 1.0
C      1  0.6216940000000  0.5038390000000  0.4803280000000 1.0
C      1  0.4315620000000  0.4335850000000  0.5671220000000 1.0
C      1  0.3926020000000  0.5492090000000  0.5198060000000 1.0
C      1  0.4576200000000  0.5388480000000  0.4031620000000 1.0
C      1  0.4492910000000  0.5613180000000  0.4773280000000 1.0
C      1  0.4007200000000  0.4657010000000  0.4978920000000 1.0
C      1  0.5706100000000  0.5306890000000  0.4500020000000 1.0
C      1  0.5817540000000  0.5568320000000  0.4447450000000 1.0
C      1  0.6123610000000  0.5092810000000  0.4543040000000 1.0
C      1  0.4485340000000  0.4963900000000  0.6135780000000 1.0
C      1  0.6165020000000  0.5219510000000  0.5033730000000 1.0
C      1  0.4640430000000  0.5359620000000  0.4790560000000 1.0
C      1  0.4435990000000  0.4575680000000  0.4520620000000 1.0
C      1  0.4059320000000  0.5385650000000  0.4719730000000 1.0
C      1  0.5481820000000  0.5300860000000  0.4665530000000 1.0
C      1  0.4357680000000  0.4314580000000  0.4511930000000 1.0
C      1  0.5177880000000  0.6068160000000  0.5018830000000 1.0
C      1  0.5018120000000  0.5646200000000  0.4787820000000 1.0
C      1  0.5748470000000  0.4704810000000  0.5386020000000 1.0
C      1  0.4766200000000  0.4111180000000  0.5736710000000 1.0
C      1  0.4554800000000  0.5832010000000  0.4942450000000 1.0
C      1  0.3648770000000  0.4706690000000  0.4658040000000 1.0
C      1  0.5193570000000  0.4672880000000  0.4599910000000 1.0
C      1  0.4430890000000  0.5319010000000  0.5330120000000 1.0
C      1  0.5165020000000  0.4921990000000  0.5722590000000 1.0
C      1  0.5225900000000  0.4802930000000  0.3842310000000 1.0
C      1  0.5219020000000  0.4537590000000  0.5150170000000 1.0
C      1  0.5738130000000  0.5555400000000  0.5030920000000 1.0
C      1  0.5267010000000  0.5151520000000  0.4557840000000 1.0
C      1  0.4063650000000  0.5334960000000  0.5003690000000 1.0
C      1  0.5484460000000  0.4178800000000  0.4046290000000 1.0
C      1  0.4610500000000  0.4122270000000  0.5159320000000 1.0
C      1  0.5298600000000  0.5377010000000  0.5109000000000 1.0
C      1  0.4486080000000  0.4001480000000  0.5366980000000 1.0
C      1  0.4723780000000  0.4847880000000  0.4162400000000 1.0
C      1  0.4787180000000  0.5917410000000  0.5409380000000 1.0
C      1  0.5069300000000  0.5085130000000  0.5521080000000 1.0
C      1  0.5801430000000  0.5373680000000  0.5649170000000 1.0
C      1  0.5025610000000  0.6083730000000  0.5449970000000 1.0
C      1  0.5120020000000  0.4429540000000  0.5843690000000 1.0
C      1  0.4688210000000  0.5427560000000  0.5378270000000 1.0
C      1  0.4444110000000  0.4744940000000  0.5958900000000 1.0
C      1  0.3914780000000  0.4757820000000  0.4729690000000 1.0
C      1  0.4913850000000  0.5386500000000  0.4838990000000 1.0
C      1  0.6092080000000  0.5554440000000  0.4379340000000 1.0
C      1  0.5101910000000  0.5296690000000  0.6019860000000 1.0
C      1  0.5502240000000  0.4063990000000  0.5587070000000 1.0
C      1  0.4892540000000  0.5238190000000  0.5397360000000 1.0
C      1  0.4895790000000  0.4419330000000  0.4335170000000 1.0
C      1  0.5522150000000  0.5387990000000  0.4936820000000 1.0
C      1  0.5095570000000  0.5532250000000  0.4031660000000 1.0
C      1  0.4663880000000  0.4670990000000  0.4674410000000 1.0
C      1  0.4448240000000  0.4924350000000  0.4186550000000 1.0
C      1  0.3980410000000  0.4900720000000  0.5623570000000 1.0
C      1  0.4565660000000  0.4845130000000  0.4885550000000 1.0
C      1  0.5561660000000  0.4844310000000  0.5253830000000 1.0
C      1  0.4639630000000  0.5951560000000  0.5167440000000 1.0
C      1  0.5395900000000  0.5705560000000  0.5458540000000 1.0
C      1  0.5237280000000  0.4324430000000  0.4037190000000 1.0
C      1  0.3940440000000  0.5624400000000  0.5434420000000 1.0
C      1  0.5430810000000  0.5833280000000  0.4323420000000 1.0
C      1  0.5034130000000  0.5539560000000  0.5884580000000 1.0
C      1  0.4140650000000  0.5282840000000  0.4253000000000 1.0
C      1  0.4891470000000  0.5031250000000  0.4293550000000 1.0
C      1  0.5095880000000  0.4222030000000  0.4285420000000 1.0
C      1  0.5518120000000  0.5957620000000  0.5310870000000 1.0
C      1  0.5227590000000  0.4060360000000  0.5518600000000 1.0
C      1  0.5844380000000  0.5051920000000  0.4483220000000 1.0
C      1  0.4202550000000  0.4597690000000  0.5173700000000 1.0
C      1  0.6472800000000  0.4607240000000  0.4739030000000 1.0
C      1  0.6387750000000  0.4817050000000  0.4887790000000 1.0
C      1  0.5668510000000  0.5846460000000  0.5050540000000 1.0
C      1  0.4238460000000  0.4989320000000  0.5613390000000 1.0
C      1  0.5211220000000  0.4646060000000  0.5683120000000 1.0
C      1  0.4728870000000  0.5665950000000  0.5538950000000 1.0
C      1  0.4382720000000  0.5201640000000  0.4128200000000 1.0
C      1  0.4663230000000  0.4723730000000  0.5524340000000 1.0
C      1  0.5041280000000  0.4182990000000  0.5714240000000 1.0
C      1  0.6444570000000  0.4870830000000  0.5165650000000 1.0
END
