TITL C-612600-6631-336 5666.07057010081 125000 -865.75825883996 0 0 142 (C1) n - 1
REM
REM in /home/nfs/bkarasulu/CARBON/AIRSS/Generating-Clusters/TERSOFF/Only-C1/FIRE-HFTN
REM
REM
REM
REM
REM
REM ./C.cell (11c1c37f851c82e70ff6c80c92926a4b)
REM AIRSS Version 0.9.1 bugfix July 2018 build 013d7b7c2542+ Fri, 06 Jul 2018 19:26:36 +0100
REM compiler GCC version 9.2.1 20190827 (Red Hat 9.2.1-1)
REM options -cpp -mtune=generic -march=x86-64 -g -O0 -fpre-include=/usr/include/finclude/math-vector-fortran.h
REM seed -686442127 -212586644 -1029434369 -299533261 -2050553584 -1902347695 1328358096 331941916 -321729639 2029472879 196543127 -164402812 1886769106 -1853019938 1725602117 -991279396 780784893 -186110970 -1630113978 1753566135 464499175 -100665238 1295226130 -790349927 -871224937 -1398540642 316592608 2112190041 1412330465 -759148458 -348910567 743160829 1433777275
REM
CELL 1.54180   50.00000   50.00000   50.00000   90.00000   90.00000   90.00000
LATT -1
SFAC C  
C      1  0.4275080000000  0.3309850000000  0.5035350000000 1.0
C      1  0.5623090000000  0.4678310000000  0.5851760000000 1.0
C      1  0.4614130000000  0.5296720000000  0.5917850000000 1.0
C      1  0.5768560000000  0.5168190000000  0.4314260000000 1.0
C      1  0.5106590000000  0.4007790000000  0.5246370000000 1.0
C      1  0.5308520000000  0.5564190000000  0.5083270000000 1.0
C      1  0.5830410000000  0.5047770000000  0.4565970000000 1.0
C      1  0.5156860000000  0.4566950000000  0.5437920000000 1.0
C      1  0.4442280000000  0.4633580000000  0.5157500000000 1.0
C      1  0.4301620000000  0.6091540000000  0.4162900000000 1.0
C      1  0.5127710000000  0.4695150000000  0.6077930000000 1.0
C      1  0.4617950000000  0.6096240000000  0.4533570000000 1.0
C      1  0.5576850000000  0.5618330000000  0.4039050000000 1.0
C      1  0.5724620000000  0.4502780000000  0.5643440000000 1.0
C      1  0.4904710000000  0.4704280000000  0.5511990000000 1.0
C      1  0.4175310000000  0.4026570000000  0.5019510000000 1.0
C      1  0.5105440000000  0.4311590000000  0.4117290000000 1.0
C      1  0.5705830000000  0.5117970000000  0.5407770000000 1.0
C      1  0.4694970000000  0.5560580000000  0.5856170000000 1.0
C      1  0.4785750000000  0.5456710000000  0.4571410000000 1.0
C      1  0.5922600000000  0.4695740000000  0.5019980000000 1.0
C      1  0.4344500000000  0.5126600000000  0.5520870000000 1.0
C      1  0.5404510000000  0.4906640000000  0.4146410000000 1.0
C      1  0.4996610000000  0.5307990000000  0.3756120000000 1.0
C      1  0.5347490000000  0.4439900000000  0.4052390000000 1.0
C      1  0.5235370000000  0.4206950000000  0.4836010000000 1.0
C      1  0.5555020000000  0.4216350000000  0.5236650000000 1.0
C      1  0.6065540000000  0.4183340000000  0.4292030000000 1.0
C      1  0.5511990000000  0.4643850000000  0.4156950000000 1.0
C      1  0.4212440000000  0.4299990000000  0.4340470000000 1.0
C      1  0.5374750000000  0.4586700000000  0.5969830000000 1.0
C      1  0.4477340000000  0.3826290000000  0.5744930000000 1.0
C      1  0.3970210000000  0.4464030000000  0.4943740000000 1.0
C      1  0.4353140000000  0.4913620000000  0.5941680000000 1.0
C      1  0.4101880000000  0.5124130000000  0.5372270000000 1.0
C      1  0.5170340000000  0.5441600000000  0.3917260000000 1.0
C      1  0.4545890000000  0.4005540000000  0.5543050000000 1.0
C      1  0.5202580000000  0.5458780000000  0.5948780000000 1.0
C      1  0.5200990000000  0.5276100000000  0.4667630000000 1.0
C      1  0.3745370000000  0.6237240000000  0.4951880000000 1.0
C      1  0.4593430000000  0.4342330000000  0.3991540000000 1.0
C      1  0.3965150000000  0.5366500000000  0.5340060000000 1.0
C      1  0.4548530000000  0.4224350000000  0.4659780000000 1.0
C      1  0.5901650000000  0.4390480000000  0.4312330000000 1.0
C      1  0.5029950000000  0.5258920000000  0.5487580000000 1.0
C      1  0.5363500000000  0.4718240000000  0.5262620000000 1.0
C      1  0.6224660000000  0.3977590000000  0.4274550000000 1.0
C      1  0.4352300000000  0.6124630000000  0.4436890000000 1.0
C      1  0.5764720000000  0.5616410000000  0.4807110000000 1.0
C      1  0.5113070000000  0.5700000000000  0.4056090000000 1.0
C      1  0.4652470000000  0.5187420000000  0.4573770000000 1.0
C      1  0.5757750000000  0.5895920000000  0.4861480000000 1.0
C      1  0.5320890000000  0.4339140000000  0.5844250000000 1.0
C      1  0.4691380000000  0.5911400000000  0.3940300000000 1.0
C      1  0.5492640000000  0.5551540000000  0.5306280000000 1.0
C      1  0.4867010000000  0.5699430000000  0.5668780000000 1.0
C      1  0.4112530000000  0.4241120000000  0.4846270000000 1.0
C      1  0.4972630000000  0.6163780000000  0.4826040000000 1.0
C      1  0.4629150000000  0.4840780000000  0.5932690000000 1.0
C      1  0.4729630000000  0.4399910000000  0.5824460000000 1.0
C      1  0.5458190000000  0.5361490000000  0.3967070000000 1.0
C      1  0.5835290000000  0.5072100000000  0.5656020000000 1.0
C      1  0.4906060000000  0.4428220000000  0.6063010000000 1.0
C      1  0.6055170000000  0.4943950000000  0.4984950000000 1.0
C      1  0.4543610000000  0.5111010000000  0.4845390000000 1.0
C      1  0.5564110000000  0.5139350000000  0.4111870000000 1.0
C      1  0.3864420000000  0.5603910000000  0.5302500000000 1.0
C      1  0.5692020000000  0.4676600000000  0.4850440000000 1.0
C      1  0.5165740000000  0.5802020000000  0.5063930000000 1.0
C      1  0.4574800000000  0.4284080000000  0.5594690000000 1.0
C      1  0.5306730000000  0.5331640000000  0.4920650000000 1.0
C      1  0.5228360000000  0.4797980000000  0.4776340000000 1.0
C      1  0.4898140000000  0.5875860000000  0.4128530000000 1.0
C      1  0.5121480000000  0.3851380000000  0.5704560000000 1.0
C      1  0.5229430000000  0.5005480000000  0.4577310000000 1.0
C      1  0.5035640000000  0.4259570000000  0.4644970000000 1.0
C      1  0.4743600000000  0.4672020000000  0.5740960000000 1.0
C      1  0.4561670000000  0.6113310000000  0.5062530000000 1.0
C      1  0.5316550000000  0.4129130000000  0.5093020000000 1.0
C      1  0.5340500000000  0.5979020000000  0.4589340000000 1.0
C      1  0.5265490000000  0.5196190000000  0.6044170000000 1.0
C      1  0.5596200000000  0.5564000000000  0.4581530000000 1.0
C      1  0.5536190000000  0.5114010000000  0.6039270000000 1.0
C      1  0.4848660000000  0.3923400000000  0.5169170000000 1.0
C      1  0.4974170000000  0.4771640000000  0.4879540000000 1.0
C      1  0.5368370000000  0.5750160000000  0.4182840000000 1.0
C      1  0.3995710000000  0.4892870000000  0.5249710000000 1.0
C      1  0.4141110000000  0.6179970000000  0.4610790000000 1.0
C      1  0.4869850000000  0.6023270000000  0.4381230000000 1.0
C      1  0.4419530000000  0.3655410000000  0.5932980000000 1.0
C      1  0.4685370000000  0.5020610000000  0.4350650000000 1.0
C      1  0.4743560000000  0.4640160000000  0.4789510000000 1.0
C      1  0.5084870000000  0.6092590000000  0.4571820000000 1.0
C      1  0.5244850000000  0.5108940000000  0.5511780000000 1.0
C      1  0.5155240000000  0.5639340000000  0.5726080000000 1.0
C      1  0.4356660000000  0.3836680000000  0.5121440000000 1.0
C      1  0.4676110000000  0.5516110000000  0.5258150000000 1.0
C      1  0.5841450000000  0.5391030000000  0.4972750000000 1.0
C      1  0.5944870000000  0.4503160000000  0.5219530000000 1.0
C      1  0.4647750000000  0.5594310000000  0.4781090000000 1.0
C      1  0.5701140000000  0.4951530000000  0.5877020000000 1.0
C      1  0.4791750000000  0.5069060000000  0.6007460000000 1.0
C      1  0.5455430000000  0.4966360000000  0.5392790000000 1.0
C      1  0.4575900000000  0.5433870000000  0.5003320000000 1.0
C      1  0.3940010000000  0.6211250000000  0.4780430000000 1.0
C      1  0.5175070000000  0.4942640000000  0.4305980000000 1.0
C      1  0.5206610000000  0.4318670000000  0.5588800000000 1.0
C      1  0.5719790000000  0.4598980000000  0.4350050000000 1.0
C      1  0.4356230000000  0.4331910000000  0.4115380000000 1.0
C      1  0.4439570000000  0.6001500000000  0.3952020000000 1.0
C      1  0.4359280000000  0.5172180000000  0.5805290000000 1.0
C      1  0.4522420000000  0.4797990000000  0.4916400000000 1.0
C      1  0.4778640000000  0.4373410000000  0.4702900000000 1.0
C      1  0.5137420000000  0.4053150000000  0.5521380000000 1.0
C      1  0.4584910000000  0.3916400000000  0.5272610000000 1.0
C      1  0.5743730000000  0.4766530000000  0.4581760000000 1.0
C      1  0.4769990000000  0.5302230000000  0.5406190000000 1.0
C      1  0.5467500000000  0.5128400000000  0.4997940000000 1.0
C      1  0.4600580000000  0.5076720000000  0.5409910000000 1.0
C      1  0.4312360000000  0.3564770000000  0.5074580000000 1.0
C      1  0.5111370000000  0.6077810000000  0.5056840000000 1.0
C      1  0.5069470000000  0.5483540000000  0.4543250000000 1.0
C      1  0.4782830000000  0.4874550000000  0.5330120000000 1.0
C      1  0.5062220000000  0.4990020000000  0.6068990000000 1.0
C      1  0.5567320000000  0.6054840000000  0.4745300000000 1.0
C      1  0.5745300000000  0.4383540000000  0.5381770000000 1.0
C      1  0.4476170000000  0.4462870000000  0.5374220000000 1.0
C      1  0.3935970000000  0.4684830000000  0.5091840000000 1.0
C      1  0.5377670000000  0.5656360000000  0.5545480000000 1.0
C      1  0.4617780000000  0.5992280000000  0.5297400000000 1.0
C      1  0.5091410000000  0.4205670000000  0.4376460000000 1.0
C      1  0.4927290000000  0.4925990000000  0.5101950000000 1.0
C      1  0.5192980000000  0.6249660000000  0.5252050000000 1.0
C      1  0.4906490000000  0.4928830000000  0.4229230000000 1.0
C      1  0.4728810000000  0.5758380000000  0.5408600000000 1.0
C      1  0.4860900000000  0.4334870000000  0.3980050000000 1.0
C      1  0.5721370000000  0.5369860000000  0.5253000000000 1.0
C      1  0.5429190000000  0.4703850000000  0.4964050000000 1.0
C      1  0.4685660000000  0.6154780000000  0.4813400000000 1.0
C      1  0.4272940000000  0.4252130000000  0.4610630000000 1.0
C      1  0.5936580000000  0.5153000000000  0.4825460000000 1.0
C      1  0.5356570000000  0.5706460000000  0.4472560000000 1.0
END
