TITL C-612602-9376-971 597.991731595893 125000 -1131.19451399462 0 0 183 (C1) n - 1
REM
REM in /home/nfs/bkarasulu/CARBON/AIRSS/Generating-Clusters/TERSOFF/Only-C1/FIRE-HFTN
REM
REM
REM
REM
REM
REM ./C.cell (11c1c37f851c82e70ff6c80c92926a4b)
REM AIRSS Version 0.9.1 bugfix July 2018 build 013d7b7c2542+ Fri, 06 Jul 2018 19:26:36 +0100
REM compiler GCC version 9.2.1 20190827 (Red Hat 9.2.1-1)
REM options -cpp -mtune=generic -march=x86-64 -g -O0 -fpre-include=/usr/include/finclude/math-vector-fortran.h
REM seed 1408666370 -2038555571 294781058 1092045670 -748988135 -441488416 1160682272 157669608 -1084482264 1949539042 1846640686 -952430014 -886187111 1770201549 791251220 -1052829079 551649163 -713400226 1925027577 -615520643 1955136517 144816521 973819783 910826877 1715345500 945567561 -1227169871 -2092970046 -268784840 1324533312 91637313 -573588992 1058525103
REM
CELL 1.54180   50.00000   50.00000   50.00000   90.00000   90.00000   90.00000
LATT -1
SFAC C  
C      1  0.5338630000000  0.5784250000000  0.5783320000000 1.0
C      1  0.6155550000000  0.4631690000000  0.3929300000000 1.0
C      1  0.5626760000000  0.4234220000000  0.4259780000000 1.0
C      1  0.4950330000000  0.4207960000000  0.4434580000000 1.0
C      1  0.4386920000000  0.5047080000000  0.4380470000000 1.0
C      1  0.5812480000000  0.5310960000000  0.4496510000000 1.0
C      1  0.5647740000000  0.4277270000000  0.5766450000000 1.0
C      1  0.4891360000000  0.5322170000000  0.5608230000000 1.0
C      1  0.4786860000000  0.4601850000000  0.5980720000000 1.0
C      1  0.4372550000000  0.5876720000000  0.5230720000000 1.0
C      1  0.6336930000000  0.4306360000000  0.4605310000000 1.0
C      1  0.6281670000000  0.5542170000000  0.4873830000000 1.0
C      1  0.5265690000000  0.5007560000000  0.5820820000000 1.0
C      1  0.3803200000000  0.5212270000000  0.5144120000000 1.0
C      1  0.4913230000000  0.5707600000000  0.5020170000000 1.0
C      1  0.5933750000000  0.5109660000000  0.4339360000000 1.0
C      1  0.5646830000000  0.4663330000000  0.4600880000000 1.0
C      1  0.5500700000000  0.4929290000000  0.5178770000000 1.0
C      1  0.4682690000000  0.4900660000000  0.6373310000000 1.0
C      1  0.5811230000000  0.5452010000000  0.5587740000000 1.0
C      1  0.4728070000000  0.4409930000000  0.3799280000000 1.0
C      1  0.4596760000000  0.5296650000000  0.5685130000000 1.0
C      1  0.5612530000000  0.4139760000000  0.5535840000000 1.0
C      1  0.4051940000000  0.4678310000000  0.4482200000000 1.0
C      1  0.5317120000000  0.5555730000000  0.4812700000000 1.0
C      1  0.4607570000000  0.5156640000000  0.6279520000000 1.0
C      1  0.5418990000000  0.4265980000000  0.4458850000000 1.0
C      1  0.3934890000000  0.5428790000000  0.4467030000000 1.0
C      1  0.4074450000000  0.4234470000000  0.5088460000000 1.0
C      1  0.4860270000000  0.6126500000000  0.5291430000000 1.0
C      1  0.4491600000000  0.3908040000000  0.4966750000000 1.0
C      1  0.5182070000000  0.6011880000000  0.4586980000000 1.0
C      1  0.4842960000000  0.5833580000000  0.4321240000000 1.0
C      1  0.4450640000000  0.5074400000000  0.5573220000000 1.0
C      1  0.4581630000000  0.4310450000000  0.4821460000000 1.0
C      1  0.6115180000000  0.4785730000000  0.5365440000000 1.0
C      1  0.5044850000000  0.5380490000000  0.4196500000000 1.0
C      1  0.4628600000000  0.4903540000000  0.4455160000000 1.0
C      1  0.6205440000000  0.4471060000000  0.4758600000000 1.0
C      1  0.4207520000000  0.4642960000000  0.5351950000000 1.0
C      1  0.4402040000000  0.4439070000000  0.5701320000000 1.0
C      1  0.4465680000000  0.4989910000000  0.4921560000000 1.0
C      1  0.4952980000000  0.5175640000000  0.5365720000000 1.0
C      1  0.4344160000000  0.5149780000000  0.6169440000000 1.0
C      1  0.4148390000000  0.5807980000000  0.5781560000000 1.0
C      1  0.4855870000000  0.5311090000000  0.4420230000000 1.0
C      1  0.5850360000000  0.4958610000000  0.4110280000000 1.0
C      1  0.5485490000000  0.3999140000000  0.5321100000000 1.0
C      1  0.4453800000000  0.5508170000000  0.4200100000000 1.0
C      1  0.5413400000000  0.4555730000000  0.4477560000000 1.0
C      1  0.4337450000000  0.4187460000000  0.5577790000000 1.0
C      1  0.4123010000000  0.4190420000000  0.5378590000000 1.0
C      1  0.5113990000000  0.5502220000000  0.5001160000000 1.0
C      1  0.5315910000000  0.4581450000000  0.4967310000000 1.0
C      1  0.4504990000000  0.5720550000000  0.4632520000000 1.0
C      1  0.5199520000000  0.3948680000000  0.5329630000000 1.0
C      1  0.4869210000000  0.5917190000000  0.5981260000000 1.0
C      1  0.5052680000000  0.5725510000000  0.5858400000000 1.0
C      1  0.4904690000000  0.4493460000000  0.4391880000000 1.0
C      1  0.4443770000000  0.4545840000000  0.4163440000000 1.0
C      1  0.5722100000000  0.5424240000000  0.5864300000000 1.0
C      1  0.6047880000000  0.4651920000000  0.4901690000000 1.0
C      1  0.3907570000000  0.5146060000000  0.4467450000000 1.0
C      1  0.4370430000000  0.5247200000000  0.4987290000000 1.0
C      1  0.4164500000000  0.4522160000000  0.4271050000000 1.0
C      1  0.4406440000000  0.4570940000000  0.5158890000000 1.0
C      1  0.4688970000000  0.6177980000000  0.4666710000000 1.0
C      1  0.4852400000000  0.4786830000000  0.5127820000000 1.0
C      1  0.5767960000000  0.4436890000000  0.4136160000000 1.0
C      1  0.3970300000000  0.5022200000000  0.5277380000000 1.0
C      1  0.4615200000000  0.4606870000000  0.4412110000000 1.0
C      1  0.5498860000000  0.4964920000000  0.5649180000000 1.0
C      1  0.4296250000000  0.5891440000000  0.4714320000000 1.0
C      1  0.4245380000000  0.4036620000000  0.4950310000000 1.0
C      1  0.5554960000000  0.5069500000000  0.5402990000000 1.0
C      1  0.4236540000000  0.5645160000000  0.5317810000000 1.0
C      1  0.4640320000000  0.4848320000000  0.5564280000000 1.0
C      1  0.5088610000000  0.5666490000000  0.4283840000000 1.0
C      1  0.5912050000000  0.4677220000000  0.4064280000000 1.0
C      1  0.5338700000000  0.5115530000000  0.4503040000000 1.0
C      1  0.5630250000000  0.5385430000000  0.3927270000000 1.0
C      1  0.5243800000000  0.5147060000000  0.4226050000000 1.0
C      1  0.4552480000000  0.4313040000000  0.4004300000000 1.0
C      1  0.5064710000000  0.4578970000000  0.5979430000000 1.0
C      1  0.4529880000000  0.5094470000000  0.3934030000000 1.0
C      1  0.4682150000000  0.4671820000000  0.6232200000000 1.0
C      1  0.5717600000000  0.5128890000000  0.3923460000000 1.0
C      1  0.4419790000000  0.6105950000000  0.5095720000000 1.0
C      1  0.5716720000000  0.5919420000000  0.5510410000000 1.0
C      1  0.5079230000000  0.5225520000000  0.5834290000000 1.0
C      1  0.5498610000000  0.4407830000000  0.5970730000000 1.0
C      1  0.5751790000000  0.5187920000000  0.6040380000000 1.0
C      1  0.5128250000000  0.4906980000000  0.4603960000000 1.0
C      1  0.5120690000000  0.4135640000000  0.4884350000000 1.0
C      1  0.5039130000000  0.4786660000000  0.3900290000000 1.0
C      1  0.5112330000000  0.5252020000000  0.5142710000000 1.0
C      1  0.4601640000000  0.4070910000000  0.4134000000000 1.0
C      1  0.3895630000000  0.5541820000000  0.4733780000000 1.0
C      1  0.5566130000000  0.5695470000000  0.4347260000000 1.0
C      1  0.5024040000000  0.3944730000000  0.5087500000000 1.0
C      1  0.4119400000000  0.4961110000000  0.4442300000000 1.0
C      1  0.3769580000000  0.5310120000000  0.4881040000000 1.0
C      1  0.5667220000000  0.5961860000000  0.4841710000000 1.0
C      1  0.3885460000000  0.4622220000000  0.4724490000000 1.0
C      1  0.4173550000000  0.4997260000000  0.6025360000000 1.0
C      1  0.3949730000000  0.4511970000000  0.4994130000000 1.0
C      1  0.4661510000000  0.3832240000000  0.5400990000000 1.0
C      1  0.4508960000000  0.3965730000000  0.5577020000000 1.0
C      1  0.5272820000000  0.5038530000000  0.5045020000000 1.0
C      1  0.4476760000000  0.4531110000000  0.4674930000000 1.0
C      1  0.5301190000000  0.5940070000000  0.5258030000000 1.0
C      1  0.4194550000000  0.4632640000000  0.5637910000000 1.0
C      1  0.4941730000000  0.5616330000000  0.5601100000000 1.0
C      1  0.4556150000000  0.4814240000000  0.3941280000000 1.0
C      1  0.5575450000000  0.5223180000000  0.4638930000000 1.0
C      1  0.4811990000000  0.3740620000000  0.4415930000000 1.0
C      1  0.4420390000000  0.5227790000000  0.4162480000000 1.0
C      1  0.6391400000000  0.4589150000000  0.3816380000000 1.0
C      1  0.5638950000000  0.3908960000000  0.5106020000000 1.0
C      1  0.4396500000000  0.5752620000000  0.5902980000000 1.0
C      1  0.4847270000000  0.4910940000000  0.5375480000000 1.0
C      1  0.5303640000000  0.5737790000000  0.4504170000000 1.0
C      1  0.4749410000000  0.4948140000000  0.4911340000000 1.0
C      1  0.5910060000000  0.5632570000000  0.5160150000000 1.0
C      1  0.4634160000000  0.4611710000000  0.5740660000000 1.0
C      1  0.5571530000000  0.5602950000000  0.4076720000000 1.0
C      1  0.5686030000000  0.5305020000000  0.5372200000000 1.0
C      1  0.5023110000000  0.5415110000000  0.6044040000000 1.0
C      1  0.4787950000000  0.3999060000000  0.4331290000000 1.0
C      1  0.4582110000000  0.5708980000000  0.4354290000000 1.0
C      1  0.4483210000000  0.5491180000000  0.5848130000000 1.0
C      1  0.3974650000000  0.4734370000000  0.5208520000000 1.0
C      1  0.5545320000000  0.5395890000000  0.4868850000000 1.0
C      1  0.6169010000000  0.4825370000000  0.5092860000000 1.0
C      1  0.4805390000000  0.5396360000000  0.4666710000000 1.0
C      1  0.4282940000000  0.5376240000000  0.5227920000000 1.0
C      1  0.4715480000000  0.5626290000000  0.4812210000000 1.0
C      1  0.5212610000000  0.4829950000000  0.4867140000000 1.0
C      1  0.4626850000000  0.4385570000000  0.5096320000000 1.0
C      1  0.6366240000000  0.5291950000000  0.4916480000000 1.0
C      1  0.5575340000000  0.4673350000000  0.5064970000000 1.0
C      1  0.5212650000000  0.4337780000000  0.5952070000000 1.0
C      1  0.4734710000000  0.3872970000000  0.5127380000000 1.0
C      1  0.5769570000000  0.4662450000000  0.4857870000000 1.0
C      1  0.5517880000000  0.4691370000000  0.6087520000000 1.0
C      1  0.4072490000000  0.5700950000000  0.5543930000000 1.0
C      1  0.4726310000000  0.5248910000000  0.3801060000000 1.0
C      1  0.5093480000000  0.3977520000000  0.5590640000000 1.0
C      1  0.5153480000000  0.4687630000000  0.4387350000000 1.0
C      1  0.3723700000000  0.5091280000000  0.4688510000000 1.0
C      1  0.5247220000000  0.4797120000000  0.6015180000000 1.0
C      1  0.4598540000000  0.5928140000000  0.5991530000000 1.0
C      1  0.4837890000000  0.4953130000000  0.4643130000000 1.0
C      1  0.5786180000000  0.3850760000000  0.4899000000000 1.0
C      1  0.5796010000000  0.5610170000000  0.4502360000000 1.0
C      1  0.5886920000000  0.5701720000000  0.5444260000000 1.0
C      1  0.5866040000000  0.5785680000000  0.4724120000000 1.0
C      1  0.5118540000000  0.4393910000000  0.5012620000000 1.0
C      1  0.5171690000000  0.4871920000000  0.4133990000000 1.0
C      1  0.6319600000000  0.5044720000000  0.5004200000000 1.0
C      1  0.4218800000000  0.5144740000000  0.5403350000000 1.0
C      1  0.4900710000000  0.6054890000000  0.4514830000000 1.0
C      1  0.5015820000000  0.5925370000000  0.5188210000000 1.0
C      1  0.5704240000000  0.5425690000000  0.5110880000000 1.0
C      1  0.5484240000000  0.5998770000000  0.5039890000000 1.0
C      1  0.4817070000000  0.5345020000000  0.6224670000000 1.0
C      1  0.5725890000000  0.4891200000000  0.6027650000000 1.0
C      1  0.4111280000000  0.4810820000000  0.5840370000000 1.0
C      1  0.4880170000000  0.4504270000000  0.5121490000000 1.0
C      1  0.5748900000000  0.4848220000000  0.5743290000000 1.0
C      1  0.5533470000000  0.5629580000000  0.5928120000000 1.0
C      1  0.4785520000000  0.4687750000000  0.3825160000000 1.0
C      1  0.4444860000000  0.6123200000000  0.4813910000000 1.0
C      1  0.5184190000000  0.4149700000000  0.4594400000000 1.0
C      1  0.4933130000000  0.5372830000000  0.3921770000000 1.0
C      1  0.4043780000000  0.5778570000000  0.4775550000000 1.0
C      1  0.3673820000000  0.4818780000000  0.4737960000000 1.0
C      1  0.6624510000000  0.4546710000000  0.3707660000000 1.0
C      1  0.5113990000000  0.4111780000000  0.5821040000000 1.0
C      1  0.6050470000000  0.5692110000000  0.4922090000000 1.0
C      1  0.4375980000000  0.4716340000000  0.4894310000000 1.0
C      1  0.5427470000000  0.5902560000000  0.5525380000000 1.0
C      1  0.5967330000000  0.4779530000000  0.5586810000000 1.0
END
