TITL C-612607-4507-562 0.212155334447064 125000 -116.413626077021 0 0 21 (C1) n - 1
REM
REM in /home/nfs/bkarasulu/CARBON/AIRSS/Generating-Clusters/TERSOFF/Only-C1/FIRE-HFTN
REM
REM
REM
REM
REM
REM ./C.cell (11c1c37f851c82e70ff6c80c92926a4b)
REM AIRSS Version 0.9.1 bugfix July 2018 build 013d7b7c2542+ Fri, 06 Jul 2018 19:26:36 +0100
REM compiler GCC version 9.2.1 20190827 (Red Hat 9.2.1-1)
REM options -cpp -mtune=generic -march=x86-64 -g -O0 -fpre-include=/usr/include/finclude/math-vector-fortran.h
REM seed 548429148 -894057424 -305104774 -1891789787 -1659551865 223057351 13900927 -1469643092 2032443401 -686183768 1412486828 1241365567 1949179457 -950405779 1073458504 2106547062 -8344517 1246497340 747493161 1292429402 -738277493 1883525574 -341558757 1183977823 1288921758 -1219874843 -1911675424 449926307 1398019514 -1669901840 -765940888 1179784577 938633464
REM
CELL 1.54180   50.00000   50.00000   50.00000   90.00000   90.00000   90.00000
LATT -1
SFAC C  
C      1  0.4999600000000  0.5141500000000  0.5010140000000 1.0
C      1  0.5144220000000  0.4951650000000  0.5155060000000 1.0
C      1  0.5063520000000  0.4684370000000  0.5157530000000 1.0
C      1  0.5625330000000  0.5026170000000  0.5177540000000 1.0
C      1  0.5322500000000  0.5189140000000  0.5814300000000 1.0
C      1  0.4865920000000  0.5325440000000  0.4874300000000 1.0
C      1  0.4651740000000  0.5988560000000  0.4569720000000 1.0
C      1  0.5860740000000  0.5019960000000  0.5056160000000 1.0
C      1  0.4991190000000  0.4429630000000  0.5163140000000 1.0
C      1  0.4275590000000  0.5918450000000  0.4326290000000 1.0
C      1  0.4350090000000  0.5672070000000  0.4435940000000 1.0
C      1  0.4704730000000  0.3413760000000  0.5186950000000 1.0
C      1  0.4732630000000  0.5509800000000  0.4738650000000 1.0
C      1  0.4459400000000  0.6111300000000  0.4407800000000 1.0
C      1  0.4847380000000  0.3919670000000  0.5175090000000 1.0
C      1  0.5374840000000  0.5030900000000  0.5300810000000 1.0
C      1  0.4593940000000  0.5701630000000  0.4597510000000 1.0
C      1  0.4919280000000  0.4174650000000  0.5169110000000 1.0
C      1  0.5349720000000  0.5113060000000  0.5566530000000 1.0
C      1  0.4775460000000  0.3664620000000  0.5181070000000 1.0
C      1  0.6092190000000  0.5013690000000  0.4936360000000 1.0
END
