TITL C-612605-9286-1154 0.118499775472743 125000 -526.957329798608 0 0 86 (C1) n - 1
REM
REM in /home/nfs/bkarasulu/CARBON/AIRSS/Generating-Clusters/TERSOFF/Only-C1/FIRE-HFTN
REM
REM
REM
REM
REM
REM ./C.cell (11c1c37f851c82e70ff6c80c92926a4b)
REM AIRSS Version 0.9.1 bugfix July 2018 build 013d7b7c2542+ Fri, 06 Jul 2018 19:26:36 +0100
REM compiler GCC version 9.2.1 20190827 (Red Hat 9.2.1-1)
REM options -cpp -mtune=generic -march=x86-64 -g -O0 -fpre-include=/usr/include/finclude/math-vector-fortran.h
REM seed -16538020 -1150332269 1300714229 -672800000 645376563 -1555528676 1029544063 -2084327811 568526363 -1617586698 720902430 -441477154 468938748 425098060 -179454047 -17964953 457114977 -1223720103 -842476502 905307436 841509476 164891763 -735525065 -227484274 -140006237 -1563743125 -75494684 362830446 1021514156 1088137243 475513064 -1927880129 1513406816
REM
CELL 1.54180   50.00000   50.00000   50.00000   90.00000   90.00000   90.00000
LATT -1
SFAC C  
C      1  0.4355230000000  0.4783240000000  0.5475000000000 1.0
C      1  0.5417430000000  0.4028870000000  0.4857560000000 1.0
C      1  0.5039750000000  0.4233940000000  0.5112060000000 1.0
C      1  0.5679540000000  0.5001260000000  0.5553350000000 1.0
C      1  0.5824970000000  0.4358030000000  0.4379230000000 1.0
C      1  0.5725090000000  0.5318210000000  0.4401400000000 1.0
C      1  0.5003370000000  0.5593680000000  0.5152210000000 1.0
C      1  0.4734210000000  0.5123830000000  0.5633480000000 1.0
C      1  0.4029910000000  0.4962290000000  0.4830760000000 1.0
C      1  0.4847380000000  0.4299620000000  0.4700020000000 1.0
C      1  0.5455070000000  0.4848330000000  0.5147280000000 1.0
C      1  0.5473160000000  0.4565110000000  0.5543120000000 1.0
C      1  0.5571300000000  0.4899250000000  0.4891770000000 1.0
C      1  0.4614290000000  0.4184450000000  0.4816570000000 1.0
C      1  0.4442810000000  0.4641550000000  0.5704430000000 1.0
C      1  0.4789920000000  0.6536990000000  0.5064550000000 1.0
C      1  0.5257220000000  0.4062080000000  0.5070720000000 1.0
C      1  0.5670410000000  0.5210160000000  0.5717670000000 1.0
C      1  0.4071550000000  0.5065220000000  0.4571630000000 1.0
C      1  0.5287610000000  0.4412290000000  0.5659480000000 1.0
C      1  0.4927790000000  0.4207600000000  0.4456960000000 1.0
C      1  0.5403100000000  0.5785270000000  0.4683020000000 1.0
C      1  0.4211720000000  0.5462730000000  0.4372740000000 1.0
C      1  0.4361030000000  0.4443870000000  0.5118450000000 1.0
C      1  0.3995710000000  0.4685300000000  0.4875270000000 1.0
C      1  0.5551500000000  0.4307540000000  0.4417630000000 1.0
C      1  0.4665760000000  0.4696860000000  0.5848820000000 1.0
C      1  0.4586020000000  0.4886270000000  0.5024600000000 1.0
C      1  0.4579990000000  0.5138690000000  0.5163320000000 1.0
C      1  0.5829420000000  0.4995860000000  0.4821610000000 1.0
C      1  0.5117930000000  0.5666250000000  0.5763800000000 1.0
C      1  0.4462670000000  0.5218260000000  0.5681210000000 1.0
C      1  0.5876390000000  0.5333500000000  0.4174470000000 1.0
C      1  0.5759130000000  0.5513050000000  0.6079000000000 1.0
C      1  0.4290890000000  0.5070770000000  0.5501560000000 1.0
C      1  0.5011590000000  0.4706540000000  0.4977260000000 1.0
C      1  0.4001020000000  0.5339240000000  0.4502910000000 1.0
C      1  0.4917300000000  0.5790960000000  0.5337650000000 1.0
C      1  0.5456740000000  0.5458770000000  0.5234540000000 1.0
C      1  0.5599920000000  0.5653050000000  0.5116830000000 1.0
C      1  0.4641380000000  0.4671370000000  0.4190440000000 1.0
C      1  0.4556400000000  0.4238560000000  0.5091650000000 1.0
C      1  0.4834560000000  0.4206960000000  0.5538510000000 1.0
C      1  0.4299150000000  0.5187750000000  0.5236000000000 1.0
C      1  0.4875390000000  0.5263170000000  0.4524370000000 1.0
C      1  0.5159720000000  0.4865190000000  0.4517210000000 1.0
C      1  0.4806880000000  0.5400090000000  0.4064420000000 1.0
C      1  0.5187020000000  0.5383740000000  0.5227790000000 1.0
C      1  0.4919530000000  0.4996260000000  0.4617410000000 1.0
C      1  0.5486100000000  0.4117410000000  0.4615060000000 1.0
C      1  0.4805200000000  0.4859090000000  0.4846110000000 1.0
C      1  0.5344570000000  0.5550420000000  0.5840330000000 1.0
C      1  0.5021510000000  0.5480620000000  0.4638990000000 1.0
C      1  0.5356100000000  0.4475370000000  0.4301960000000 1.0
C      1  0.6050650000000  0.4823850000000  0.4828230000000 1.0
C      1  0.4800660000000  0.5145330000000  0.5356380000000 1.0
C      1  0.4867010000000  0.6051770000000  0.5251300000000 1.0
C      1  0.4116510000000  0.4466230000000  0.4977310000000 1.0
C      1  0.4703200000000  0.5316330000000  0.4303360000000 1.0
C      1  0.5050540000000  0.4289400000000  0.5676810000000 1.0
C      1  0.4792860000000  0.4201530000000  0.5261200000000 1.0
C      1  0.4450230000000  0.5487280000000  0.5758980000000 1.0
C      1  0.4819510000000  0.4916380000000  0.5804990000000 1.0
C      1  0.4906720000000  0.4645300000000  0.4171160000000 1.0
C      1  0.4426760000000  0.4783070000000  0.4303420000000 1.0
C      1  0.6137820000000  0.4618450000000  0.4680520000000 1.0
C      1  0.5008390000000  0.4431590000000  0.4905800000000 1.0
C      1  0.5560510000000  0.5806270000000  0.4899790000000 1.0
C      1  0.5066680000000  0.5127290000000  0.5258500000000 1.0
C      1  0.5592510000000  0.5425110000000  0.5880430000000 1.0
C      1  0.4888270000000  0.5726540000000  0.5614270000000 1.0
C      1  0.5565050000000  0.4793090000000  0.5404260000000 1.0
C      1  0.4097300000000  0.5134680000000  0.5047350000000 1.0
C      1  0.5149500000000  0.4668090000000  0.4310960000000 1.0
C      1  0.4312630000000  0.5014130000000  0.4409480000000 1.0
C      1  0.4827610000000  0.6296650000000  0.5158220000000 1.0
C      1  0.6047560000000  0.4452430000000  0.4491810000000 1.0
C      1  0.4427580000000  0.5275530000000  0.4333560000000 1.0
C      1  0.5458070000000  0.5407940000000  0.4403490000000 1.0
C      1  0.5279800000000  0.5567270000000  0.4550240000000 1.0
C      1  0.5170220000000  0.4878540000000  0.5148740000000 1.0
C      1  0.4631900000000  0.5682540000000  0.5722740000000 1.0
C      1  0.5393530000000  0.4884280000000  0.4671330000000 1.0
C      1  0.4928830000000  0.5590710000000  0.4881460000000 1.0
C      1  0.5831820000000  0.5211280000000  0.4639270000000 1.0
C      1  0.4450440000000  0.4696320000000  0.5210440000000 1.0
END
