TITL C-612604-1799-1500 3.79537532581533e-05 125000 -428.016682633436 0 0 70 (C1) n - 1
REM
REM in /home/nfs/bkarasulu/CARBON/AIRSS/Generating-Clusters/TERSOFF/Only-C1/FIRE-HFTN
REM
REM
REM
REM
REM
REM ./C.cell (11c1c37f851c82e70ff6c80c92926a4b)
REM AIRSS Version 0.9.1 bugfix July 2018 build 013d7b7c2542+ Fri, 06 Jul 2018 19:26:36 +0100
REM compiler GCC version 9.2.1 20190827 (Red Hat 9.2.1-1)
REM options -cpp -mtune=generic -march=x86-64 -g -O0 -fpre-include=/usr/include/finclude/math-vector-fortran.h
REM seed 168566088 1310877739 1979289341 270449049 -1119813456 -1487024655 1002025146 1030638554 818167526 -1000532431 723317604 -880246120 -1635532968 657190149 1153426277 638039460 -247782918 -519398397 570326886 -1543343617 979485344 -455697890 -1293097384 -839138591 -507912867 -758546333 -1472341101 1394120135 719088440 -1973557727 2145707789 1601304845 787515516
REM
CELL 1.54180   50.00000   50.00000   50.00000   90.00000   90.00000   90.00000
LATT -1
SFAC C  
C      1  0.4496610000000  0.4934910000000  0.5831590000000 1.0
C      1  0.4522400000000  0.5191270000000  0.5757930000000 1.0
C      1  0.5616090000000  0.4852370000000  0.4244200000000 1.0
C      1  0.5232940000000  0.5578770000000  0.4909940000000 1.0
C      1  0.5158190000000  0.5524690000000  0.5647310000000 1.0
C      1  0.5043050000000  0.5017020000000  0.4469910000000 1.0
C      1  0.5111730000000  0.5077230000000  0.6091220000000 1.0
C      1  0.4323110000000  0.5238330000000  0.4561800000000 1.0
C      1  0.4608440000000  0.4703640000000  0.5754640000000 1.0
C      1  0.5077600000000  0.5273610000000  0.4361380000000 1.0
C      1  0.5700400000000  0.4953200000000  0.5463550000000 1.0
C      1  0.4962230000000  0.4351230000000  0.4159600000000 1.0
C      1  0.4521200000000  0.5424860000000  0.4637910000000 1.0
C      1  0.5359080000000  0.4752070000000  0.4172000000000 1.0
C      1  0.5738410000000  0.4974130000000  0.4883430000000 1.0
C      1  0.5466550000000  0.5034160000000  0.4838890000000 1.0
C      1  0.5742100000000  0.5339960000000  0.4413670000000 1.0
C      1  0.4939230000000  0.5446070000000  0.5819670000000 1.0
C      1  0.5568980000000  0.4538370000000  0.4953290000000 1.0
C      1  0.4976460000000  0.5310680000000  0.6064030000000 1.0
C      1  0.4827250000000  0.4495770000000  0.5058760000000 1.0
C      1  0.5298890000000  0.4786900000000  0.5716040000000 1.0
C      1  0.4724310000000  0.4499830000000  0.4794730000000 1.0
C      1  0.4928320000000  0.4559460000000  0.4347930000000 1.0
C      1  0.4059360000000  0.4973850000000  0.5217340000000 1.0
C      1  0.5103480000000  0.4433880000000  0.5084400000000 1.0
C      1  0.5203870000000  0.5497370000000  0.4439630000000 1.0
C      1  0.4825060000000  0.5158840000000  0.4900420000000 1.0
C      1  0.4400670000000  0.4633000000000  0.5252170000000 1.0
C      1  0.5114960000000  0.4782000000000  0.4327550000000 1.0
C      1  0.4008320000000  0.5383160000000  0.4924940000000 1.0
C      1  0.5855470000000  0.5151060000000  0.5067220000000 1.0
C      1  0.4041520000000  0.4799350000000  0.4977130000000 1.0
C      1  0.5181430000000  0.4200570000000  0.5204500000000 1.0
C      1  0.5717330000000  0.5191500000000  0.5310380000000 1.0
C      1  0.4505070000000  0.4761410000000  0.4443550000000 1.0
C      1  0.4776800000000  0.5153930000000  0.5177600000000 1.0
C      1  0.4822250000000  0.5346100000000  0.5376620000000 1.0
C      1  0.5063300000000  0.4664840000000  0.5618980000000 1.0
C      1  0.5427420000000  0.5418050000000  0.5639110000000 1.0
C      1  0.5685180000000  0.5124350000000  0.4265090000000 1.0
C      1  0.5342510000000  0.4553140000000  0.3968280000000 1.0
C      1  0.5157210000000  0.4354730000000  0.3970890000000 1.0
C      1  0.4758160000000  0.5416020000000  0.4787540000000 1.0
C      1  0.4790810000000  0.4625800000000  0.5551930000000 1.0
C      1  0.5374960000000  0.5557220000000  0.4661690000000 1.0
C      1  0.5782780000000  0.4693400000000  0.4843640000000 1.0
C      1  0.4230150000000  0.4585140000000  0.5020320000000 1.0
C      1  0.4258020000000  0.4851150000000  0.5383450000000 1.0
C      1  0.5518230000000  0.5393810000000  0.5357280000000 1.0
C      1  0.5296720000000  0.5496330000000  0.5179430000000 1.0
C      1  0.4723650000000  0.5349580000000  0.5647840000000 1.0
C      1  0.4708120000000  0.4585400000000  0.4526360000000 1.0
C      1  0.4079930000000  0.5210810000000  0.4707190000000 1.0
C      1  0.3948530000000  0.5647090000000  0.4896200000000 1.0
C      1  0.4002330000000  0.5246120000000  0.5174400000000 1.0
C      1  0.4948340000000  0.5614120000000  0.4858360000000 1.0
C      1  0.5234790000000  0.4878750000000  0.4881300000000 1.0
C      1  0.5067670000000  0.5501730000000  0.5364180000000 1.0
C      1  0.5311470000000  0.5000350000000  0.5907990000000 1.0
C      1  0.5892950000000  0.4613740000000  0.4597870000000 1.0
C      1  0.3985880000000  0.4941860000000  0.4740770000000 1.0
C      1  0.5292980000000  0.4613040000000  0.4975570000000 1.0
C      1  0.5805520000000  0.4670760000000  0.4350120000000 1.0
C      1  0.4675800000000  0.4572560000000  0.5290180000000 1.0
C      1  0.5644870000000  0.5508710000000  0.4600420000000 1.0
C      1  0.4405640000000  0.5007930000000  0.4421550000000 1.0
C      1  0.5482540000000  0.5219240000000  0.5832460000000 1.0
C      1  0.5006890000000  0.4992820000000  0.4756530000000 1.0
C      1  0.5537480000000  0.4766860000000  0.5566220000000 1.0
END
