TITL C-612602-9376-525 2.86494386519999 125000 -1193.90500003727 0 0 194 (C1) n - 1
REM
REM in /home/nfs/bkarasulu/CARBON/AIRSS/Generating-Clusters/TERSOFF/Only-C1/FIRE-HFTN
REM
REM
REM
REM
REM
REM ./C.cell (11c1c37f851c82e70ff6c80c92926a4b)
REM AIRSS Version 0.9.1 bugfix July 2018 build 013d7b7c2542+ Fri, 06 Jul 2018 19:26:36 +0100
REM compiler GCC version 9.2.1 20190827 (Red Hat 9.2.1-1)
REM options -cpp -mtune=generic -march=x86-64 -g -O0 -fpre-include=/usr/include/finclude/math-vector-fortran.h
REM seed -1046826171 -324541862 160197564 1463919181 -455665553 -838622495 1652983843 1904118666 858471494 461164299 -2121090958 -1329125777 1626320520 632455302 1275014035 -759251833 1253555332 1779277848 -883764500 -1751179511 -715075689 -412271357 -897452916 -2070988280 -830734057 -765259647 411738339 -1415299723 1368819387 -632139779 652427367 1092792815 -66180273
REM
CELL 1.54180   50.00000   50.00000   50.00000   90.00000   90.00000   90.00000
LATT -1
SFAC C  
C      1  0.6037050000000  0.4564360000000  0.5508470000000 1.0
C      1  0.4539650000000  0.5259110000000  0.5776100000000 1.0
C      1  0.5254780000000  0.6149760000000  0.5196520000000 1.0
C      1  0.4083190000000  0.4889170000000  0.4371770000000 1.0
C      1  0.5689960000000  0.5914120000000  0.4861100000000 1.0
C      1  0.5032750000000  0.5347640000000  0.5305770000000 1.0
C      1  0.5799030000000  0.4343070000000  0.4562730000000 1.0
C      1  0.4938350000000  0.5057800000000  0.5309120000000 1.0
C      1  0.5173050000000  0.4869840000000  0.5729540000000 1.0
C      1  0.5719560000000  0.5163690000000  0.5895230000000 1.0
C      1  0.5474550000000  0.4869250000000  0.5327720000000 1.0
C      1  0.6013070000000  0.4411540000000  0.5039880000000 1.0
C      1  0.4858820000000  0.4738840000000  0.6302140000000 1.0
C      1  0.4947420000000  0.4526790000000  0.4852690000000 1.0
C      1  0.5369660000000  0.3981200000000  0.5522540000000 1.0
C      1  0.4046100000000  0.4903340000000  0.5344550000000 1.0
C      1  0.4826310000000  0.3655230000000  0.4551140000000 1.0
C      1  0.5557290000000  0.4170890000000  0.5416980000000 1.0
C      1  0.4580340000000  0.4339290000000  0.4411400000000 1.0
C      1  0.4419410000000  0.5985330000000  0.4249620000000 1.0
C      1  0.5235040000000  0.5982990000000  0.6471280000000 1.0
C      1  0.4107130000000  0.5363090000000  0.4585710000000 1.0
C      1  0.4613520000000  0.5893810000000  0.5195770000000 1.0
C      1  0.5394600000000  0.5858120000000  0.5646310000000 1.0
C      1  0.5267090000000  0.6184760000000  0.4898180000000 1.0
C      1  0.5210340000000  0.4879880000000  0.6014310000000 1.0
C      1  0.5159280000000  0.6092930000000  0.4392390000000 1.0
C      1  0.5309640000000  0.4951630000000  0.3739010000000 1.0
C      1  0.5118130000000  0.3458570000000  0.5071990000000 1.0
C      1  0.4646340000000  0.4857640000000  0.3716510000000 1.0
C      1  0.5939860000000  0.4253530000000  0.4810190000000 1.0
C      1  0.3843440000000  0.5322040000000  0.6042980000000 1.0
C      1  0.6019620000000  0.5277740000000  0.5348290000000 1.0
C      1  0.5392220000000  0.5201290000000  0.6394100000000 1.0
C      1  0.4358490000000  0.4540150000000  0.5148740000000 1.0
C      1  0.5195410000000  0.4050000000000  0.5742740000000 1.0
C      1  0.5408450000000  0.5086870000000  0.4895820000000 1.0
C      1  0.5455060000000  0.4458880000000  0.4995530000000 1.0
C      1  0.5408390000000  0.5982300000000  0.4301570000000 1.0
C      1  0.4755120000000  0.6087650000000  0.4638480000000 1.0
C      1  0.5549070000000  0.5378200000000  0.3864320000000 1.0
C      1  0.5838720000000  0.3992470000000  0.4870360000000 1.0
C      1  0.4414650000000  0.5535200000000  0.4014670000000 1.0
C      1  0.5208420000000  0.5824280000000  0.6260930000000 1.0
C      1  0.3979680000000  0.5107090000000  0.4535130000000 1.0
C      1  0.4332060000000  0.4538650000000  0.4852230000000 1.0
C      1  0.6009780000000  0.4326580000000  0.5319800000000 1.0
C      1  0.4848010000000  0.4672890000000  0.3795440000000 1.0
C      1  0.4676900000000  0.3835390000000  0.4680290000000 1.0
C      1  0.6021190000000  0.5316830000000  0.4674830000000 1.0
C      1  0.4896760000000  0.5868770000000  0.5136390000000 1.0
C      1  0.4367630000000  0.5512830000000  0.5015680000000 1.0
C      1  0.4473230000000  0.4816160000000  0.5582250000000 1.0
C      1  0.5576300000000  0.4633130000000  0.5426580000000 1.0
C      1  0.4964480000000  0.5781560000000  0.4061920000000 1.0
C      1  0.4784550000000  0.4907850000000  0.5123030000000 1.0
C      1  0.5113530000000  0.4769460000000  0.3760480000000 1.0
C      1  0.5147100000000  0.4990900000000  0.4815440000000 1.0
C      1  0.4148100000000  0.5582480000000  0.4409180000000 1.0
C      1  0.5941620000000  0.5799110000000  0.4808280000000 1.0
C      1  0.3681300000000  0.4133170000000  0.4908310000000 1.0
C      1  0.4703360000000  0.4047890000000  0.4858790000000 1.0
C      1  0.3700720000000  0.4080300000000  0.4648860000000 1.0
C      1  0.4942160000000  0.5210200000000  0.4808370000000 1.0
C      1  0.5205960000000  0.4408530000000  0.6124380000000 1.0
C      1  0.5497530000000  0.5228070000000  0.4663390000000 1.0
C      1  0.5320840000000  0.6030980000000  0.5440510000000 1.0
C      1  0.3798730000000  0.4115930000000  0.3914310000000 1.0
C      1  0.5059580000000  0.6151680000000  0.4672850000000 1.0
C      1  0.3740000000000  0.4127720000000  0.4390890000000 1.0
C      1  0.6216160000000  0.4785670000000  0.5461990000000 1.0
C      1  0.5286250000000  0.5665600000000  0.4800770000000 1.0
C      1  0.4297320000000  0.4755610000000  0.5354410000000 1.0
C      1  0.5584270000000  0.4981790000000  0.5084990000000 1.0
C      1  0.5958300000000  0.4682370000000  0.5026240000000 1.0
C      1  0.4384860000000  0.4550780000000  0.6013940000000 1.0
C      1  0.4779440000000  0.5629820000000  0.4597810000000 1.0
C      1  0.4538050000000  0.5101500000000  0.3759640000000 1.0
C      1  0.3782360000000  0.5035020000000  0.4722930000000 1.0
C      1  0.5314690000000  0.5440080000000  0.5361910000000 1.0
C      1  0.5093910000000  0.4663780000000  0.6164300000000 1.0
C      1  0.5056010000000  0.4644150000000  0.4426100000000 1.0
C      1  0.5791940000000  0.4981110000000  0.3790010000000 1.0
C      1  0.5592860000000  0.3934310000000  0.4705150000000 1.0
C      1  0.5807580000000  0.3899280000000  0.5142960000000 1.0
C      1  0.5350010000000  0.5010970000000  0.5542160000000 1.0
C      1  0.5290400000000  0.6298590000000  0.6893520000000 1.0
C      1  0.4806840000000  0.4439890000000  0.5279490000000 1.0
C      1  0.5013990000000  0.4459850000000  0.5467390000000 1.0
C      1  0.5541270000000  0.5108900000000  0.3775600000000 1.0
C      1  0.5981610000000  0.5289440000000  0.4384320000000 1.0
C      1  0.5850310000000  0.5489130000000  0.4232370000000 1.0
C      1  0.3833590000000  0.4793850000000  0.5188900000000 1.0
C      1  0.4984690000000  0.5415420000000  0.5021190000000 1.0
C      1  0.5370800000000  0.3742680000000  0.5363390000000 1.0
C      1  0.4498350000000  0.5161080000000  0.4724410000000 1.0
C      1  0.5855120000000  0.4940180000000  0.4994060000000 1.0
C      1  0.4409530000000  0.5400720000000  0.5278700000000 1.0
C      1  0.5495280000000  0.4409420000000  0.5278650000000 1.0
C      1  0.3744680000000  0.4531470000000  0.5226760000000 1.0
C      1  0.4832320000000  0.5477940000000  0.5477960000000 1.0
C      1  0.3835450000000  0.4533650000000  0.4148370000000 1.0
C      1  0.5409300000000  0.5644900000000  0.5854150000000 1.0
C      1  0.4156540000000  0.5855730000000  0.5361230000000 1.0
C      1  0.5316640000000  0.5081720000000  0.6174480000000 1.0
C      1  0.5832090000000  0.4096620000000  0.5353180000000 1.0
C      1  0.5774110000000  0.4903070000000  0.5805710000000 1.0
C      1  0.5136030000000  0.5383440000000  0.4374480000000 1.0
C      1  0.3994440000000  0.5463850000000  0.5864810000000 1.0
C      1  0.4930040000000  0.6018920000000  0.4218420000000 1.0
C      1  0.4865680000000  0.5754040000000  0.3809480000000 1.0
C      1  0.6013850000000  0.5024790000000  0.4252560000000 1.0
C      1  0.4495140000000  0.5767910000000  0.4961930000000 1.0
C      1  0.4647660000000  0.5835300000000  0.4732610000000 1.0
C      1  0.6184450000000  0.5052180000000  0.5413440000000 1.0
C      1  0.4882990000000  0.5359820000000  0.4538230000000 1.0
C      1  0.6177980000000  0.4867410000000  0.4654910000000 1.0
C      1  0.4564960000000  0.4854500000000  0.4267770000000 1.0
C      1  0.4580420000000  0.4426300000000  0.5844290000000 1.0
C      1  0.4334880000000  0.4749340000000  0.4404600000000 1.0
C      1  0.4693820000000  0.4171070000000  0.5813940000000 1.0
C      1  0.4495780000000  0.5265690000000  0.3985590000000 1.0
C      1  0.5606060000000  0.5422390000000  0.5899210000000 1.0
C      1  0.4547250000000  0.4085870000000  0.5092440000000 1.0
C      1  0.4972080000000  0.4675220000000  0.5647200000000 1.0
C      1  0.4296200000000  0.5342540000000  0.4799990000000 1.0
C      1  0.4625490000000  0.4870640000000  0.6262550000000 1.0
C      1  0.5346080000000  0.4043080000000  0.4102240000000 1.0
C      1  0.5423120000000  0.5727090000000  0.4173750000000 1.0
C      1  0.5786750000000  0.4669130000000  0.5619300000000 1.0
C      1  0.4172820000000  0.5666090000000  0.5950800000000 1.0
C      1  0.5043420000000  0.5685520000000  0.4962550000000 1.0
C      1  0.5449410000000  0.3738180000000  0.4865610000000 1.0
C      1  0.5284510000000  0.4209370000000  0.5961300000000 1.0
C      1  0.3976540000000  0.5415240000000  0.5581830000000 1.0
C      1  0.4910840000000  0.4026730000000  0.5740870000000 1.0
C      1  0.5167170000000  0.3552120000000  0.5322340000000 1.0
C      1  0.4622660000000  0.5233270000000  0.4473260000000 1.0
C      1  0.5084310000000  0.4367460000000  0.4338040000000 1.0
C      1  0.3693870000000  0.4293420000000  0.5119860000000 1.0
C      1  0.4691910000000  0.5061440000000  0.4902640000000 1.0
C      1  0.5552880000000  0.4162560000000  0.4517240000000 1.0
C      1  0.4953730000000  0.5494120000000  0.6016370000000 1.0
C      1  0.5548160000000  0.6157590000000  0.4812370000000 1.0
C      1  0.5069420000000  0.3553190000000  0.4599540000000 1.0
C      1  0.4832140000000  0.4776640000000  0.4318200000000 1.0
C      1  0.4789250000000  0.4439230000000  0.3954490000000 1.0
C      1  0.3993420000000  0.5648640000000  0.5420250000000 1.0
C      1  0.4723050000000  0.5366530000000  0.5966300000000 1.0
C      1  0.3740710000000  0.4935570000000  0.4965890000000 1.0
C      1  0.5416590000000  0.4614120000000  0.4753720000000 1.0
C      1  0.5268900000000  0.5119610000000  0.4284150000000 1.0
C      1  0.4567430000000  0.5381990000000  0.5515360000000 1.0
C      1  0.5485970000000  0.5017800000000  0.4450870000000 1.0
C      1  0.4548860000000  0.5133000000000  0.4226630000000 1.0
C      1  0.6035220000000  0.4791260000000  0.4422210000000 1.0
C      1  0.5338390000000  0.5464330000000  0.4603290000000 1.0
C      1  0.5507780000000  0.5725180000000  0.4964860000000 1.0
C      1  0.4399450000000  0.4518670000000  0.4565660000000 1.0
C      1  0.5569530000000  0.4752530000000  0.4540080000000 1.0
C      1  0.4809870000000  0.4322080000000  0.4220510000000 1.0
C      1  0.5558940000000  0.3747720000000  0.5141890000000 1.0
C      1  0.6037610000000  0.5536520000000  0.4860150000000 1.0
C      1  0.5470320000000  0.5626530000000  0.5219970000000 1.0
C      1  0.4545570000000  0.4329870000000  0.5237080000000 1.0
C      1  0.4430620000000  0.4997010000000  0.5811480000000 1.0
C      1  0.5131960000000  0.4702370000000  0.4708110000000 1.0
C      1  0.3996870000000  0.5152060000000  0.5475420000000 1.0
C      1  0.5473330000000  0.5265040000000  0.5509450000000 1.0
C      1  0.5187590000000  0.5650540000000  0.6042040000000 1.0
C      1  0.6080960000000  0.5455560000000  0.5133350000000 1.0
C      1  0.3918170000000  0.4800740000000  0.4155560000000 1.0
C      1  0.5317640000000  0.6453810000000  0.7101200000000 1.0
C      1  0.4327180000000  0.5709240000000  0.4223900000000 1.0
C      1  0.5758540000000  0.5293150000000  0.5462450000000 1.0
C      1  0.4685820000000  0.4648360000000  0.5685640000000 1.0
C      1  0.4428500000000  0.5938030000000  0.5407430000000 1.0
C      1  0.4242520000000  0.6182380000000  0.4172020000000 1.0
C      1  0.6035890000000  0.5064030000000  0.4807450000000 1.0
C      1  0.4427650000000  0.4836350000000  0.6061140000000 1.0
C      1  0.3846550000000  0.4974730000000  0.3956900000000 1.0
C      1  0.5810050000000  0.4615870000000  0.4469650000000 1.0
C      1  0.5159020000000  0.5604380000000  0.4171070000000 1.0
C      1  0.4360810000000  0.5848460000000  0.5892490000000 1.0
C      1  0.4890650000000  0.4254630000000  0.4804810000000 1.0
C      1  0.5325840000000  0.4199210000000  0.4331920000000 1.0
C      1  0.5982240000000  0.4983670000000  0.3977670000000 1.0
C      1  0.5227710000000  0.3563770000000  0.4829670000000 1.0
C      1  0.4486300000000  0.5962630000000  0.5682630000000 1.0
C      1  0.3791250000000  0.4257320000000  0.4148230000000 1.0
C      1  0.4841850000000  0.4637800000000  0.5082440000000 1.0
C      1  0.5262710000000  0.6140770000000  0.6682370000000 1.0
C      1  0.4677800000000  0.6073300000000  0.4346990000000 1.0
C      1  0.5625860000000  0.5555700000000  0.4074730000000 1.0
END
