TITL C-612604-1799-462 -12.6632220134165 125000 -876.837569995721 0 0 144 (C1) n - 1
REM
REM in /home/nfs/bkarasulu/CARBON/AIRSS/Generating-Clusters/TERSOFF/Only-C1/FIRE-HFTN
REM
REM
REM
REM
REM
REM ./C.cell (11c1c37f851c82e70ff6c80c92926a4b)
REM AIRSS Version 0.9.1 bugfix July 2018 build 013d7b7c2542+ Fri, 06 Jul 2018 19:26:36 +0100
REM compiler GCC version 9.2.1 20190827 (Red Hat 9.2.1-1)
REM options -cpp -mtune=generic -march=x86-64 -g -O0 -fpre-include=/usr/include/finclude/math-vector-fortran.h
REM seed -242194511 1932745665 64983464 -1481806839 -111236778 588791728 -1978961010 -2134863169 1042050744 -2138780669 1271976086 531372927 136106142 1694688388 199970222 -264799959 -2100624963 994587132 321693732 804152243 -65398641 -2025289728 28352321 -2110154171 -787515616 -579302070 -477783447 -816094827 573152753 -273708939 1537450626 -1678527464 453647398
REM
CELL 1.54180   50.00000   50.00000   50.00000   90.00000   90.00000   90.00000
LATT -1
SFAC C  
C      1  0.4543320000000  0.4793730000000  0.4172980000000 1.0
C      1  0.4677040000000  0.3887370000000  0.4943190000000 1.0
C      1  0.5055740000000  0.4051630000000  0.4701110000000 1.0
C      1  0.4579640000000  0.6483080000000  0.4195770000000 1.0
C      1  0.4734880000000  0.4409310000000  0.4767970000000 1.0
C      1  0.5009080000000  0.5777450000000  0.4298510000000 1.0
C      1  0.4751980000000  0.6177740000000  0.5193960000000 1.0
C      1  0.4777490000000  0.4781660000000  0.5409180000000 1.0
C      1  0.5386750000000  0.4850670000000  0.5172510000000 1.0
C      1  0.5065850000000  0.5281490000000  0.4927700000000 1.0
C      1  0.5814650000000  0.5363820000000  0.5573360000000 1.0
C      1  0.4537760000000  0.4372370000000  0.5620060000000 1.0
C      1  0.4767150000000  0.5704380000000  0.4385420000000 1.0
C      1  0.4324460000000  0.4993080000000  0.5507000000000 1.0
C      1  0.4950420000000  0.4633960000000  0.6208880000000 1.0
C      1  0.5224750000000  0.4680580000000  0.5340400000000 1.0
C      1  0.4421650000000  0.5026720000000  0.4320270000000 1.0
C      1  0.4288660000000  0.5201830000000  0.5705420000000 1.0
C      1  0.4369400000000  0.5900790000000  0.5471840000000 1.0
C      1  0.5132670000000  0.5051450000000  0.5664640000000 1.0
C      1  0.4859350000000  0.5092950000000  0.4946830000000 1.0
C      1  0.4513420000000  0.4807430000000  0.5997110000000 1.0
C      1  0.5505720000000  0.5673240000000  0.4918370000000 1.0
C      1  0.4585250000000  0.5544260000000  0.4804310000000 1.0
C      1  0.4580340000000  0.5119550000000  0.4990480000000 1.0
C      1  0.5570900000000  0.4343320000000  0.4384740000000 1.0
C      1  0.4923360000000  0.4823890000000  0.4969420000000 1.0
C      1  0.5535930000000  0.4961330000000  0.4025960000000 1.0
C      1  0.5235620000000  0.6086070000000  0.5099100000000 1.0
C      1  0.4627410000000  0.5487060000000  0.4510350000000 1.0
C      1  0.6141830000000  0.5578740000000  0.4944960000000 1.0
C      1  0.5332330000000  0.4951180000000  0.4709030000000 1.0
C      1  0.5037990000000  0.4825530000000  0.5509820000000 1.0
C      1  0.5216990000000  0.4424390000000  0.5193030000000 1.0
C      1  0.4185590000000  0.5329430000000  0.5200400000000 1.0
C      1  0.5052020000000  0.4299870000000  0.5758080000000 1.0
C      1  0.4165080000000  0.5026910000000  0.4443850000000 1.0
C      1  0.3908160000000  0.5235790000000  0.4806740000000 1.0
C      1  0.5639880000000  0.4936090000000  0.5704600000000 1.0
C      1  0.4007530000000  0.4494890000000  0.4715530000000 1.0
C      1  0.4881250000000  0.4772750000000  0.3807640000000 1.0
C      1  0.4684680000000  0.4426210000000  0.5041800000000 1.0
C      1  0.4621180000000  0.4575120000000  0.4579290000000 1.0
C      1  0.4464490000000  0.5386950000000  0.5055460000000 1.0
C      1  0.5857150000000  0.4611560000000  0.5102000000000 1.0
C      1  0.5952660000000  0.4294810000000  0.4750190000000 1.0
C      1  0.4608680000000  0.6444410000000  0.4451940000000 1.0
C      1  0.5700960000000  0.4587320000000  0.4314370000000 1.0
C      1  0.5256240000000  0.5675770000000  0.4220640000000 1.0
C      1  0.5496770000000  0.5677490000000  0.4372460000000 1.0
C      1  0.4766600000000  0.4833350000000  0.6131450000000 1.0
C      1  0.4617990000000  0.4542730000000  0.4299050000000 1.0
C      1  0.5171120000000  0.4611260000000  0.4391940000000 1.0
C      1  0.4479870000000  0.4265320000000  0.5149520000000 1.0
C      1  0.5105990000000  0.5239700000000  0.4015100000000 1.0
C      1  0.6072420000000  0.5120320000000  0.4729520000000 1.0
C      1  0.6077760000000  0.5627620000000  0.5199310000000 1.0
C      1  0.5414980000000  0.5120310000000  0.5596470000000 1.0
C      1  0.5272640000000  0.5475150000000  0.4021500000000 1.0
C      1  0.4845090000000  0.3880480000000  0.5179390000000 1.0
C      1  0.4218400000000  0.5437820000000  0.5540400000000 1.0
C      1  0.5876990000000  0.5078140000000  0.5606350000000 1.0
C      1  0.5228400000000  0.4274060000000  0.4714900000000 1.0
C      1  0.6138720000000  0.5392670000000  0.4752740000000 1.0
C      1  0.5556900000000  0.4457510000000  0.5588140000000 1.0
C      1  0.4939020000000  0.4225950000000  0.4082690000000 1.0
C      1  0.4929380000000  0.4068130000000  0.5379030000000 1.0
C      1  0.4783630000000  0.3965460000000  0.4681960000000 1.0
C      1  0.5092350000000  0.5961230000000  0.5741980000000 1.0
C      1  0.5570870000000  0.4679010000000  0.4068980000000 1.0
C      1  0.5613700000000  0.5454900000000  0.4509740000000 1.0
C      1  0.5214900000000  0.4594870000000  0.6173950000000 1.0
C      1  0.5412690000000  0.5915230000000  0.4990830000000 1.0
C      1  0.4145140000000  0.4555860000000  0.5295290000000 1.0
C      1  0.4017700000000  0.5798810000000  0.5781050000000 1.0
C      1  0.6042920000000  0.4942040000000  0.5425870000000 1.0
C      1  0.5502370000000  0.5431010000000  0.4769260000000 1.0
C      1  0.4201840000000  0.5710710000000  0.5597990000000 1.0
C      1  0.4624150000000  0.5249140000000  0.4332040000000 1.0
C      1  0.5518780000000  0.5407840000000  0.5658230000000 1.0
C      1  0.3956810000000  0.5408270000000  0.5027000000000 1.0
C      1  0.4995040000000  0.5214160000000  0.5858400000000 1.0
C      1  0.5032880000000  0.5534990000000  0.5047920000000 1.0
C      1  0.4712640000000  0.4267220000000  0.4250110000000 1.0
C      1  0.5380350000000  0.4748710000000  0.4904480000000 1.0
C      1  0.4001440000000  0.4755890000000  0.4834110000000 1.0
C      1  0.5025650000000  0.6157600000000  0.5275300000000 1.0
C      1  0.5669200000000  0.5194310000000  0.4105470000000 1.0
C      1  0.5401770000000  0.3961580000000  0.5242020000000 1.0
C      1  0.4547830000000  0.6055260000000  0.5346440000000 1.0
C      1  0.5298610000000  0.5578020000000  0.5538820000000 1.0
C      1  0.4426910000000  0.4890410000000  0.4935030000000 1.0
C      1  0.5571840000000  0.3791260000000  0.5142430000000 1.0
C      1  0.3893660000000  0.4517070000000  0.5397700000000 1.0
C      1  0.5118670000000  0.5682640000000  0.5735130000000 1.0
C      1  0.5574740000000  0.4670860000000  0.5786320000000 1.0
C      1  0.5861800000000  0.4552360000000  0.4806910000000 1.0
C      1  0.5440500000000  0.4628540000000  0.6032510000000 1.0
C      1  0.4805440000000  0.4226600000000  0.5605420000000 1.0
C      1  0.5206200000000  0.4863300000000  0.4475690000000 1.0
C      1  0.5189640000000  0.5578180000000  0.5278640000000 1.0
C      1  0.4821530000000  0.5680890000000  0.4923520000000 1.0
C      1  0.3807710000000  0.5631330000000  0.5077610000000 1.0
C      1  0.4687240000000  0.6312440000000  0.4958060000000 1.0
C      1  0.5878870000000  0.5020130000000  0.4540800000000 1.0
C      1  0.5176360000000  0.4309860000000  0.3980500000000 1.0
C      1  0.4512920000000  0.4629120000000  0.5765140000000 1.0
C      1  0.6146430000000  0.4961560000000  0.4949230000000 1.0
C      1  0.4942960000000  0.5496600000000  0.5855950000000 1.0
C      1  0.5456560000000  0.5088350000000  0.5296780000000 1.0
C      1  0.4178770000000  0.4799080000000  0.5084010000000 1.0
C      1  0.5287980000000  0.4463180000000  0.4919230000000 1.0
C      1  0.4622560000000  0.5500620000000  0.5296800000000 1.0
C      1  0.4891770000000  0.5080260000000  0.6082370000000 1.0
C      1  0.4786630000000  0.4660350000000  0.5154360000000 1.0
C      1  0.4437450000000  0.4016300000000  0.5027320000000 1.0
C      1  0.4832430000000  0.5176940000000  0.4108460000000 1.0
C      1  0.4538920000000  0.4818160000000  0.5544670000000 1.0
C      1  0.5739190000000  0.5225090000000  0.4382160000000 1.0
C      1  0.4359490000000  0.5062270000000  0.5954350000000 1.0
C      1  0.4611860000000  0.4078100000000  0.4461380000000 1.0
C      1  0.5220490000000  0.4168370000000  0.5344850000000 1.0
C      1  0.5543240000000  0.5464710000000  0.5957090000000 1.0
C      1  0.5159570000000  0.4766070000000  0.3831580000000 1.0
C      1  0.4167770000000  0.5033120000000  0.5272370000000 1.0
C      1  0.5313570000000  0.4284050000000  0.5617350000000 1.0
C      1  0.5311300000000  0.5221080000000  0.4800130000000 1.0
C      1  0.4330810000000  0.4119370000000  0.4520010000000 1.0
C      1  0.6034170000000  0.4829430000000  0.5169240000000 1.0
C      1  0.5327830000000  0.4547010000000  0.3933010000000 1.0
C      1  0.4130880000000  0.4280160000000  0.4607020000000 1.0
C      1  0.4359650000000  0.4376010000000  0.5376870000000 1.0
C      1  0.5719500000000  0.4483860000000  0.5335140000000 1.0
C      1  0.5817970000000  0.4729490000000  0.4551510000000 1.0
C      1  0.3992490000000  0.5000900000000  0.4671540000000 1.0
C      1  0.4717720000000  0.5591690000000  0.5981300000000 1.0
C      1  0.5303910000000  0.4371900000000  0.4465040000000 1.0
C      1  0.5963740000000  0.5546650000000  0.5425980000000 1.0
C      1  0.5552760000000  0.5416810000000  0.3964140000000 1.0
C      1  0.4730080000000  0.4918740000000  0.3994130000000 1.0
C      1  0.5267080000000  0.5011320000000  0.3926430000000 1.0
C      1  0.4473640000000  0.4774540000000  0.4691050000000 1.0
C      1  0.4642450000000  0.6393330000000  0.4709830000000 1.0
C      1  0.5074720000000  0.6149470000000  0.5552470000000 1.0
END
