TITL C-612607-4507-319 6594.67907491827 125000 -1131.04117325242 0 0 185 (C1) n - 1
REM
REM in /home/nfs/bkarasulu/CARBON/AIRSS/Generating-Clusters/TERSOFF/Only-C1/FIRE-HFTN
REM
REM
REM
REM
REM
REM ./C.cell (11c1c37f851c82e70ff6c80c92926a4b)
REM AIRSS Version 0.9.1 bugfix July 2018 build 013d7b7c2542+ Fri, 06 Jul 2018 19:26:36 +0100
REM compiler GCC version 9.2.1 20190827 (Red Hat 9.2.1-1)
REM options -cpp -mtune=generic -march=x86-64 -g -O0 -fpre-include=/usr/include/finclude/math-vector-fortran.h
REM seed -622484339 -1511905469 -117562792 1114654670 308243265 1303735402 40953121 -430633927 -850096985 1274844523 -203985220 1783180994 844677115 -182094532 1312329597 -1765935078 -679668266 -1249662402 -220426838 -1476271512 1565746080 209712134 764988791 1483089152 1136230258 930564421 -773525294 1088376580 1592035962 -160336393 -1594122199 -418960520 -1537557241
REM
CELL 1.54180   50.00000   50.00000   50.00000   90.00000   90.00000   90.00000
LATT -1
SFAC C  
C      1  0.5043680000000  0.5707770000000  0.4177820000000 1.0
C      1  0.5317410000000  0.4697660000000  0.6093610000000 1.0
C      1  0.5781730000000  0.4978830000000  0.5550270000000 1.0
C      1  0.4509560000000  0.4867140000000  0.5953260000000 1.0
C      1  0.4489630000000  0.4345020000000  0.5629470000000 1.0
C      1  0.5659440000000  0.5723020000000  0.4338490000000 1.0
C      1  0.4735930000000  0.4713720000000  0.3888220000000 1.0
C      1  0.4306730000000  0.4756820000000  0.5780870000000 1.0
C      1  0.5076330000000  0.5699500000000  0.5175680000000 1.0
C      1  0.4153260000000  0.5665310000000  0.5791410000000 1.0
C      1  0.4974320000000  0.5981940000000  0.5270880000000 1.0
C      1  0.5286360000000  0.6048130000000  0.5877270000000 1.0
C      1  0.4412660000000  0.5381930000000  0.4062790000000 1.0
C      1  0.3933830000000  0.4828220000000  0.5139470000000 1.0
C      1  0.4654590000000  0.3795010000000  0.4674130000000 1.0
C      1  0.5277260000000  0.4159320000000  0.5368890000000 1.0
C      1  0.4848010000000  0.5527160000000  0.5272000000000 1.0
C      1  0.3934210000000  0.4989180000000  0.4369370000000 1.0
C      1  0.5620930000000  0.5787580000000  0.5603970000000 1.0
C      1  0.4424040000000  0.4836920000000  0.4531930000000 1.0
C      1  0.5448140000000  0.5291190000000  0.5359320000000 1.0
C      1  0.5414020000000  0.4862480000000  0.5132810000000 1.0
C      1  0.4489440000000  0.6133220000000  0.5228860000000 1.0
C      1  0.7136880000000  0.4343330000000  0.5016860000000 1.0
C      1  0.5748350000000  0.4619290000000  0.4231610000000 1.0
C      1  0.5075360000000  0.5412010000000  0.3798510000000 1.0
C      1  0.5206470000000  0.5522730000000  0.4306460000000 1.0
C      1  0.4084030000000  0.5188670000000  0.4930680000000 1.0
C      1  0.4879020000000  0.4588880000000  0.5427160000000 1.0
C      1  0.4486860000000  0.5679750000000  0.4961700000000 1.0
C      1  0.5502990000000  0.4270650000000  0.4444370000000 1.0
C      1  0.5114200000000  0.5641660000000  0.6067110000000 1.0
C      1  0.5592910000000  0.5244940000000  0.4339970000000 1.0
C      1  0.5377670000000  0.4317200000000  0.3955770000000 1.0
C      1  0.4831680000000  0.5284370000000  0.4856100000000 1.0
C      1  0.5175280000000  0.6180140000000  0.5284520000000 1.0
C      1  0.5386050000000  0.4695410000000  0.5783470000000 1.0
C      1  0.5226580000000  0.4732790000000  0.4976200000000 1.0
C      1  0.5067290000000  0.4533110000000  0.6123790000000 1.0
C      1  0.4736230000000  0.3774450000000  0.6094800000000 1.0
C      1  0.5551780000000  0.5967820000000  0.4426480000000 1.0
C      1  0.4027860000000  0.5002620000000  0.5391440000000 1.0
C      1  0.4100790000000  0.4579600000000  0.4080360000000 1.0
C      1  0.4013590000000  0.5758230000000  0.5201640000000 1.0
C      1  0.4038880000000  0.6228620000000  0.5033930000000 1.0
C      1  0.4864280000000  0.4304330000000  0.4745440000000 1.0
C      1  0.4613810000000  0.5738540000000  0.4316970000000 1.0
C      1  0.4615850000000  0.4858530000000  0.4326180000000 1.0
C      1  0.4385680000000  0.5776050000000  0.5651510000000 1.0
C      1  0.5969790000000  0.4198940000000  0.5767970000000 1.0
C      1  0.5671600000000  0.5351900000000  0.5933620000000 1.0
C      1  0.4448140000000  0.5124630000000  0.3956740000000 1.0
C      1  0.4619570000000  0.5948890000000  0.5658290000000 1.0
C      1  0.5515460000000  0.5079990000000  0.3808230000000 1.0
C      1  0.4861860000000  0.3935930000000  0.5933410000000 1.0
C      1  0.4659720000000  0.4311750000000  0.4547730000000 1.0
C      1  0.3958080000000  0.5294560000000  0.5462470000000 1.0
C      1  0.4832990000000  0.4644490000000  0.6249110000000 1.0
C      1  0.4567170000000  0.4886060000000  0.4042790000000 1.0
C      1  0.4628800000000  0.4847460000000  0.6216820000000 1.0
C      1  0.5548190000000  0.4747360000000  0.4407400000000 1.0
C      1  0.4582330000000  0.5282490000000  0.4739370000000 1.0
C      1  0.5742070000000  0.5735950000000  0.5043650000000 1.0
C      1  0.5380800000000  0.4543210000000  0.3755870000000 1.0
C      1  0.5561920000000  0.5322380000000  0.4874790000000 1.0
C      1  0.5123130000000  0.5053160000000  0.4347870000000 1.0
C      1  0.5539540000000  0.5570100000000  0.5795570000000 1.0
C      1  0.5521510000000  0.4199690000000  0.5493660000000 1.0
C      1  0.4242050000000  0.5421170000000  0.4300510000000 1.0
C      1  0.5401860000000  0.4975950000000  0.6173460000000 1.0
C      1  0.4990400000000  0.3797730000000  0.5010190000000 1.0
C      1  0.4461840000000  0.5537720000000  0.4724470000000 1.0
C      1  0.4217140000000  0.6433730000000  0.4993900000000 1.0
C      1  0.5615470000000  0.5072760000000  0.5990040000000 1.0
C      1  0.4985040000000  0.4090300000000  0.4249420000000 1.0
C      1  0.5749970000000  0.4199550000000  0.5627880000000 1.0
C      1  0.4442020000000  0.4475730000000  0.5166180000000 1.0
C      1  0.4394670000000  0.4761650000000  0.5101020000000 1.0
C      1  0.5000680000000  0.4753510000000  0.3994510000000 1.0
C      1  0.4704460000000  0.6034180000000  0.5387810000000 1.0
C      1  0.5840850000000  0.5310230000000  0.4189650000000 1.0
C      1  0.5772610000000  0.5711180000000  0.5346220000000 1.0
C      1  0.5106220000000  0.5347380000000  0.5702430000000 1.0
C      1  0.4981670000000  0.4120990000000  0.5759690000000 1.0
C      1  0.5073550000000  0.5325720000000  0.4452790000000 1.0
C      1  0.3992250000000  0.5317870000000  0.4708290000000 1.0
C      1  0.5720420000000  0.5234280000000  0.5436140000000 1.0
C      1  0.5057210000000  0.4024980000000  0.5494540000000 1.0
C      1  0.6922760000000  0.4435890000000  0.5133260000000 1.0
C      1  0.5754560000000  0.5229980000000  0.3915910000000 1.0
C      1  0.4446310000000  0.5043550000000  0.4719640000000 1.0
C      1  0.5515590000000  0.5604550000000  0.4919380000000 1.0
C      1  0.5468240000000  0.6031650000000  0.5652410000000 1.0
C      1  0.4954250000000  0.4306380000000  0.3773530000000 1.0
C      1  0.5022450000000  0.4391820000000  0.5861960000000 1.0
C      1  0.5473620000000  0.5506880000000  0.4334450000000 1.0
C      1  0.4392960000000  0.4360380000000  0.4642010000000 1.0
C      1  0.5277790000000  0.4536400000000  0.4785660000000 1.0
C      1  0.5054610000000  0.5915810000000  0.5990850000000 1.0
C      1  0.5168430000000  0.5671320000000  0.4865080000000 1.0
C      1  0.4957190000000  0.4896260000000  0.5786560000000 1.0
C      1  0.4902270000000  0.5585060000000  0.3954530000000 1.0
C      1  0.4146250000000  0.6002950000000  0.5168760000000 1.0
C      1  0.5894970000000  0.5453450000000  0.5406550000000 1.0
C      1  0.5110750000000  0.5115660000000  0.5866850000000 1.0
C      1  0.4267490000000  0.4615190000000  0.4638770000000 1.0
C      1  0.5108160000000  0.5012390000000  0.4042180000000 1.0
C      1  0.5222450000000  0.4208090000000  0.5100130000000 1.0
C      1  0.4910570000000  0.4839420000000  0.4436360000000 1.0
C      1  0.4292990000000  0.4989030000000  0.4949050000000 1.0
C      1  0.5187130000000  0.5165880000000  0.6140760000000 1.0
C      1  0.5315410000000  0.6030770000000  0.4545600000000 1.0
C      1  0.4694640000000  0.4986660000000  0.5777980000000 1.0
C      1  0.5137160000000  0.4474850000000  0.3610690000000 1.0
C      1  0.4715440000000  0.4209750000000  0.4286260000000 1.0
C      1  0.4279300000000  0.4895390000000  0.5522410000000 1.0
C      1  0.6036260000000  0.5632350000000  0.4603230000000 1.0
C      1  0.5310590000000  0.5209170000000  0.4823080000000 1.0
C      1  0.5079630000000  0.4633090000000  0.5670460000000 1.0
C      1  0.5821560000000  0.4347390000000  0.4976580000000 1.0
C      1  0.4007060000000  0.5437370000000  0.5719190000000 1.0
C      1  0.5813960000000  0.4615070000000  0.5003440000000 1.0
C      1  0.5424150000000  0.4530890000000  0.4553120000000 1.0
C      1  0.5965200000000  0.5729260000000  0.4852480000000 1.0
C      1  0.4419820000000  0.5583460000000  0.5440220000000 1.0
C      1  0.4662510000000  0.5215630000000  0.5623140000000 1.0
C      1  0.4834720000000  0.4850630000000  0.5266680000000 1.0
C      1  0.3979320000000  0.4720250000000  0.4811900000000 1.0
C      1  0.4626400000000  0.5581340000000  0.4054880000000 1.0
C      1  0.4317650000000  0.4156560000000  0.4826310000000 1.0
C      1  0.5084030000000  0.5875670000000  0.4629580000000 1.0
C      1  0.4554590000000  0.4302970000000  0.4062200000000 1.0
C      1  0.4662320000000  0.5097050000000  0.6355170000000 1.0
C      1  0.4804490000000  0.5329670000000  0.6359110000000 1.0
C      1  0.4937050000000  0.3827900000000  0.4721370000000 1.0
C      1  0.5079310000000  0.5370910000000  0.4747040000000 1.0
C      1  0.4858930000000  0.4815220000000  0.4725730000000 1.0
C      1  0.5552470000000  0.4779500000000  0.3802160000000 1.0
C      1  0.5117020000000  0.4183770000000  0.4000280000000 1.0
C      1  0.5240170000000  0.5179460000000  0.3854900000000 1.0
C      1  0.5050130000000  0.5405630000000  0.6235700000000 1.0
C      1  0.3931970000000  0.5507480000000  0.5265750000000 1.0
C      1  0.5117710000000  0.4316860000000  0.4866560000000 1.0
C      1  0.4282660000000  0.4381260000000  0.4076060000000 1.0
C      1  0.4582200000000  0.5610820000000  0.5215350000000 1.0
C      1  0.4883800000000  0.5825160000000  0.4400290000000 1.0
C      1  0.4074340000000  0.4159750000000  0.5246100000000 1.0
C      1  0.5919430000000  0.5574030000000  0.4342630000000 1.0
C      1  0.4628660000000  0.4429220000000  0.5395610000000 1.0
C      1  0.5398610000000  0.6194660000000  0.5433400000000 1.0
C      1  0.5111160000000  0.3956010000000  0.4498520000000 1.0
C      1  0.5017950000000  0.5072100000000  0.5343140000000 1.0
C      1  0.4420870000000  0.3899970000000  0.4762550000000 1.0
C      1  0.5758060000000  0.5121900000000  0.4927140000000 1.0
C      1  0.4466140000000  0.6382640000000  0.5097780000000 1.0
C      1  0.4956470000000  0.3847110000000  0.5281260000000 1.0
C      1  0.4907420000000  0.5315250000000  0.5477110000000 1.0
C      1  0.3996530000000  0.4816760000000  0.4154040000000 1.0
C      1  0.5735740000000  0.4335700000000  0.4288250000000 1.0
C      1  0.4425660000000  0.5327260000000  0.5545430000000 1.0
C      1  0.5315500000000  0.5545470000000  0.5313010000000 1.0
C      1  0.4799200000000  0.5970000000000  0.5876700000000 1.0
C      1  0.5776260000000  0.4707850000000  0.3967940000000 1.0
C      1  0.4273390000000  0.4257310000000  0.5086820000000 1.0
C      1  0.5253520000000  0.5549860000000  0.5825920000000 1.0
C      1  0.4395780000000  0.5618300000000  0.4464790000000 1.0
C      1  0.6021680000000  0.4847700000000  0.5497470000000 1.0
C      1  0.4518990000000  0.4890090000000  0.5332020000000 1.0
C      1  0.5558480000000  0.3947450000000  0.4771460000000 1.0
C      1  0.3833300000000  0.4848410000000  0.4603310000000 1.0
C      1  0.4287820000000  0.4471950000000  0.5782120000000 1.0
C      1  0.5733100000000  0.4100710000000  0.4913080000000 1.0
C      1  0.4037820000000  0.5257060000000  0.4429160000000 1.0
C      1  0.4946750000000  0.4794710000000  0.4987310000000 1.0
C      1  0.5297890000000  0.5060900000000  0.5298270000000 1.0
C      1  0.6258610000000  0.4743600000000  0.5441030000000 1.0
C      1  0.5609420000000  0.4890080000000  0.5757570000000 1.0
C      1  0.6484280000000  0.4635190000000  0.5354260000000 1.0
C      1  0.5684740000000  0.4864740000000  0.5032550000000 1.0
C      1  0.4094920000000  0.4336280000000  0.5918040000000 1.0
C      1  0.6704490000000  0.4532470000000  0.5248530000000 1.0
C      1  0.4706270000000  0.4428710000000  0.3852920000000 1.0
C      1  0.5437690000000  0.5007400000000  0.4385920000000 1.0
C      1  0.5393640000000  0.4030260000000  0.4553430000000 1.0
C      1  0.5013060000000  0.4617660000000  0.4255610000000 1.0
END
