TITL C-612603-7354-65 41.0419528969332 125000 -279.286089050559 0 0 48 (C1) n - 1
REM
REM in /home/nfs/bkarasulu/CARBON/AIRSS/Generating-Clusters/TERSOFF/Only-C1/FIRE-HFTN
REM
REM
REM
REM
REM
REM ./C.cell (11c1c37f851c82e70ff6c80c92926a4b)
REM AIRSS Version 0.9.1 bugfix July 2018 build 013d7b7c2542+ Fri, 06 Jul 2018 19:26:36 +0100
REM compiler GCC version 9.2.1 20190827 (Red Hat 9.2.1-1)
REM options -cpp -mtune=generic -march=x86-64 -g -O0 -fpre-include=/usr/include/finclude/math-vector-fortran.h
REM seed 539979137 -1308237657 1822769600 -1632451589 -877616108 1789772327 -1525103322 141771452 1468005990 467374967 680621158 1913852518 -986520319 81002116 -1459999238 -1379326297 -2082797916 1813282397 1907909485 -1541366845 -1112503963 1232963851 1748039914 1713050989 1640722859 1240191314 2129757163 -1215804634 -793853338 672802449 -395154748 897715418 918261229
REM
CELL 1.54180   50.00000   50.00000   50.00000   90.00000   90.00000   90.00000
LATT -1
SFAC C  
C      1  0.4213520000000  0.5671380000000  0.4379890000000 1.0
C      1  0.4853430000000  0.4340100000000  0.4905820000000 1.0
C      1  0.4854370000000  0.4303480000000  0.5865350000000 1.0
C      1  0.4516540000000  0.5043720000000  0.4964730000000 1.0
C      1  0.4918480000000  0.4587040000000  0.4777270000000 1.0
C      1  0.5079840000000  0.4158940000000  0.4938090000000 1.0
C      1  0.5995790000000  0.5068860000000  0.4779820000000 1.0
C      1  0.5569150000000  0.5507680000000  0.4656650000000 1.0
C      1  0.5135870000000  0.5912390000000  0.4944220000000 1.0
C      1  0.5376970000000  0.4462590000000  0.5182910000000 1.0
C      1  0.4791540000000  0.4937780000000  0.4139540000000 1.0
C      1  0.4966390000000  0.5149820000000  0.4198110000000 1.0
C      1  0.4413480000000  0.5589490000000  0.4525590000000 1.0
C      1  0.5554490000000  0.5271230000000  0.4812200000000 1.0
C      1  0.5370550000000  0.5682010000000  0.4595560000000 1.0
C      1  0.4552130000000  0.5013950000000  0.6144870000000 1.0
C      1  0.5397210000000  0.4616960000000  0.4924930000000 1.0
C      1  0.5725150000000  0.5041010000000  0.4808860000000 1.0
C      1  0.4732920000000  0.4371960000000  0.5167970000000 1.0
C      1  0.5124160000000  0.5111450000000  0.4718730000000 1.0
C      1  0.4726510000000  0.4729580000000  0.4294680000000 1.0
C      1  0.5184950000000  0.5814650000000  0.5190180000000 1.0
C      1  0.5037250000000  0.5097690000000  0.5291980000000 1.0
C      1  0.5282740000000  0.4673070000000  0.5368980000000 1.0
C      1  0.4718400000000  0.5391740000000  0.5507990000000 1.0
C      1  0.4876970000000  0.5633510000000  0.4650250000000 1.0
C      1  0.4632140000000  0.4976220000000  0.5899750000000 1.0
C      1  0.5215720000000  0.5560890000000  0.5270990000000 1.0
C      1  0.5075020000000  0.5141030000000  0.4456860000000 1.0
C      1  0.4630970000000  0.5496270000000  0.4675800000000 1.0
C      1  0.4923590000000  0.4455490000000  0.5620050000000 1.0
C      1  0.4722170000000  0.4928160000000  0.5639850000000 1.0
C      1  0.4590150000000  0.5269440000000  0.4840130000000 1.0
C      1  0.5188940000000  0.5302700000000  0.5167370000000 1.0
C      1  0.5188530000000  0.4595790000000  0.5623160000000 1.0
C      1  0.5121090000000  0.5765840000000  0.4702370000000 1.0
C      1  0.5197650000000  0.4233130000000  0.5196510000000 1.0
C      1  0.5290480000000  0.5230330000000  0.4911020000000 1.0
C      1  0.5121440000000  0.4740440000000  0.4917190000000 1.0
C      1  0.4790930000000  0.4637020000000  0.4535450000000 1.0
C      1  0.5609760000000  0.4781840000000  0.4838590000000 1.0
C      1  0.4504200000000  0.4815890000000  0.5106240000000 1.0
C      1  0.5110470000000  0.4841830000000  0.5199800000000 1.0
C      1  0.4946130000000  0.4282590000000  0.5361020000000 1.0
C      1  0.4606330000000  0.4608920000000  0.5268070000000 1.0
C      1  0.4711490000000  0.4665150000000  0.5533320000000 1.0
C      1  0.4829110000000  0.5141850000000  0.5481470000000 1.0
C      1  0.5024880000000  0.5347090000000  0.4019820000000 1.0
END
