TITL C-612603-7354-192 0.121461806833758 125000 -973.380531545337 0 0 159 (C1) n - 1
REM
REM in /home/nfs/bkarasulu/CARBON/AIRSS/Generating-Clusters/TERSOFF/Only-C1/FIRE-HFTN
REM
REM
REM
REM
REM
REM ./C.cell (11c1c37f851c82e70ff6c80c92926a4b)
REM AIRSS Version 0.9.1 bugfix July 2018 build 013d7b7c2542+ Fri, 06 Jul 2018 19:26:36 +0100
REM compiler GCC version 9.2.1 20190827 (Red Hat 9.2.1-1)
REM options -cpp -mtune=generic -march=x86-64 -g -O0 -fpre-include=/usr/include/finclude/math-vector-fortran.h
REM seed -328972353 143787468 -335601546 116123371 -1657983216 1409237344 2015938056 1528260105 1946167225 139576634 853350708 1298749976 -11267337 -991265998 1430254224 693647007 -1410492901 -1238114837 1512709082 -1575613272 -1262175652 -1180124788 -1721265189 146715194 1485834928 2064997810 1363224544 -1502073532 1883916959 -161525711 -662406237 -602348113 -2135315114
REM
CELL 1.54180   50.00000   50.00000   50.00000   90.00000   90.00000   90.00000
LATT -1
SFAC C  
C      1  0.4691890000000  0.5719620000000  0.5428320000000 1.0
C      1  0.4818220000000  0.5782140000000  0.4297040000000 1.0
C      1  0.5040820000000  0.5894910000000  0.4448900000000 1.0
C      1  0.5215390000000  0.5697080000000  0.5412540000000 1.0
C      1  0.4164720000000  0.5785240000000  0.5671180000000 1.0
C      1  0.6074890000000  0.5028900000000  0.4843170000000 1.0
C      1  0.3924540000000  0.5514400000000  0.5061680000000 1.0
C      1  0.4139100000000  0.5100250000000  0.4927110000000 1.0
C      1  0.5150290000000  0.4173620000000  0.5061650000000 1.0
C      1  0.4938890000000  0.4630130000000  0.5312900000000 1.0
C      1  0.5547100000000  0.3948660000000  0.4868100000000 1.0
C      1  0.5402090000000  0.5292760000000  0.6040700000000 1.0
C      1  0.5148720000000  0.4903700000000  0.6170960000000 1.0
C      1  0.4926090000000  0.4908980000000  0.5371640000000 1.0
C      1  0.4910490000000  0.3965010000000  0.4611770000000 1.0
C      1  0.4458860000000  0.5110740000000  0.4505830000000 1.0
C      1  0.5163860000000  0.4482620000000  0.5416180000000 1.0
C      1  0.4996930000000  0.4468830000000  0.3918760000000 1.0
C      1  0.5233630000000  0.4365040000000  0.3810780000000 1.0
C      1  0.5770140000000  0.5386170000000  0.5644630000000 1.0
C      1  0.4790060000000  0.4512430000000  0.5080000000000 1.0
C      1  0.4164450000000  0.5945620000000  0.5459100000000 1.0
C      1  0.5117950000000  0.5381570000000  0.3956040000000 1.0
C      1  0.4212280000000  0.4689240000000  0.4582770000000 1.0
C      1  0.6055280000000  0.5410710000000  0.5225700000000 1.0
C      1  0.5843830000000  0.5531200000000  0.5381120000000 1.0
C      1  0.4777180000000  0.5298080000000  0.5659520000000 1.0
C      1  0.4002800000000  0.4865330000000  0.4990900000000 1.0
C      1  0.5866590000000  0.4605590000000  0.4062640000000 1.0
C      1  0.5942520000000  0.4623170000000  0.5791310000000 1.0
C      1  0.5407210000000  0.4364730000000  0.4482200000000 1.0
C      1  0.4568270000000  0.5209420000000  0.4747640000000 1.0
C      1  0.5520930000000  0.5379230000000  0.4497310000000 1.0
C      1  0.4182660000000  0.5200680000000  0.4472800000000 1.0
C      1  0.5909200000000  0.5136710000000  0.5682430000000 1.0
C      1  0.5642180000000  0.5679770000000  0.5210010000000 1.0
C      1  0.4946710000000  0.5105730000000  0.6127050000000 1.0
C      1  0.5708490000000  0.5296550000000  0.4687220000000 1.0
C      1  0.5009500000000  0.3765440000000  0.5455820000000 1.0
C      1  0.5929370000000  0.4221960000000  0.4645590000000 1.0
C      1  0.5338210000000  0.4217870000000  0.5925410000000 1.0
C      1  0.4946380000000  0.4326700000000  0.4923150000000 1.0
C      1  0.5541030000000  0.4794170000000  0.5088880000000 1.0
C      1  0.5616820000000  0.4212740000000  0.5838300000000 1.0
C      1  0.4118410000000  0.4419430000000  0.4228920000000 1.0
C      1  0.3925120000000  0.5329700000000  0.5270660000000 1.0
C      1  0.4229350000000  0.6013830000000  0.5194820000000 1.0
C      1  0.5492260000000  0.5839550000000  0.4686690000000 1.0
C      1  0.5422650000000  0.4161630000000  0.4318960000000 1.0
C      1  0.4787500000000  0.5580810000000  0.5639760000000 1.0
C      1  0.4864700000000  0.4279560000000  0.5884610000000 1.0
C      1  0.5975590000000  0.4880000000000  0.5719570000000 1.0
C      1  0.4191540000000  0.4692910000000  0.4285070000000 1.0
C      1  0.4865170000000  0.5306040000000  0.4749140000000 1.0
C      1  0.5326800000000  0.4457210000000  0.6098790000000 1.0
C      1  0.4980690000000  0.6002930000000  0.4704660000000 1.0
C      1  0.4384690000000  0.5454870000000  0.4143930000000 1.0
C      1  0.5095340000000  0.4129620000000  0.5804170000000 1.0
C      1  0.5594680000000  0.4570870000000  0.6120370000000 1.0
C      1  0.5599040000000  0.5725550000000  0.5945540000000 1.0
C      1  0.4666100000000  0.4943250000000  0.4384640000000 1.0
C      1  0.4161350000000  0.4569450000000  0.5330220000000 1.0
C      1  0.4351020000000  0.5820320000000  0.4462150000000 1.0
C      1  0.4993520000000  0.5798110000000  0.4896440000000 1.0
C      1  0.6082540000000  0.4567810000000  0.5089770000000 1.0
C      1  0.5324690000000  0.5827840000000  0.4435690000000 1.0
C      1  0.5065870000000  0.3804310000000  0.4791450000000 1.0
C      1  0.5418140000000  0.5022870000000  0.6152870000000 1.0
C      1  0.5417310000000  0.4536740000000  0.4684300000000 1.0
C      1  0.4074340000000  0.5104600000000  0.5698740000000 1.0
C      1  0.5164130000000  0.4209410000000  0.5340490000000 1.0
C      1  0.4894620000000  0.4963910000000  0.3819460000000 1.0
C      1  0.5098430000000  0.4018310000000  0.5541100000000 1.0
C      1  0.5466660000000  0.5745180000000  0.3532730000000 1.0
C      1  0.4561930000000  0.5210030000000  0.5837780000000 1.0
C      1  0.5003900000000  0.5612110000000  0.6080390000000 1.0
C      1  0.5167640000000  0.5942690000000  0.5490980000000 1.0
C      1  0.5474140000000  0.5014540000000  0.5271080000000 1.0
C      1  0.4891200000000  0.4698290000000  0.3796440000000 1.0
C      1  0.4977270000000  0.5101320000000  0.4936050000000 1.0
C      1  0.5726200000000  0.4498440000000  0.3863380000000 1.0
C      1  0.4883260000000  0.4248920000000  0.4650480000000 1.0
C      1  0.5035480000000  0.5231900000000  0.4482390000000 1.0
C      1  0.4119180000000  0.5660740000000  0.4531770000000 1.0
C      1  0.4293020000000  0.4541470000000  0.5582450000000 1.0
C      1  0.3935050000000  0.4963970000000  0.5889970000000 1.0
C      1  0.4557640000000  0.5651640000000  0.4958070000000 1.0
C      1  0.4219000000000  0.5555110000000  0.5792970000000 1.0
C      1  0.4912270000000  0.6266010000000  0.4755760000000 1.0
C      1  0.3990960000000  0.5080720000000  0.5421410000000 1.0
C      1  0.5606730000000  0.5305610000000  0.4942390000000 1.0
C      1  0.5272690000000  0.3963400000000  0.4914960000000 1.0
C      1  0.4854890000000  0.4548810000000  0.5975380000000 1.0
C      1  0.4832250000000  0.4443060000000  0.4442880000000 1.0
C      1  0.5408500000000  0.4898380000000  0.5526100000000 1.0
C      1  0.5756870000000  0.4889660000000  0.4442970000000 1.0
C      1  0.4147720000000  0.6250970000000  0.5086530000000 1.0
C      1  0.4371010000000  0.5172550000000  0.4031650000000 1.0
C      1  0.5511730000000  0.5567060000000  0.3735330000000 1.0
C      1  0.4948310000000  0.3616000000000  0.5240640000000 1.0
C      1  0.4150180000000  0.5445090000000  0.4326020000000 1.0
C      1  0.5727920000000  0.5390010000000  0.3725450000000 1.0
C      1  0.5399310000000  0.5719650000000  0.4185270000000 1.0
C      1  0.5099710000000  0.4631130000000  0.6108970000000 1.0
C      1  0.5615940000000  0.4574210000000  0.5265420000000 1.0
C      1  0.5382380000000  0.4748130000000  0.4861820000000 1.0
C      1  0.3995170000000  0.5528740000000  0.4775380000000 1.0
C      1  0.5453200000000  0.5274890000000  0.5174120000000 1.0
C      1  0.5112100000000  0.5355340000000  0.6096540000000 1.0
C      1  0.4101760000000  0.4164370000000  0.4680560000000 1.0
C      1  0.4957860000000  0.3613730000000  0.4970450000000 1.0
C      1  0.4866390000000  0.5714720000000  0.5874790000000 1.0
C      1  0.5877690000000  0.5071260000000  0.4635290000000 1.0
C      1  0.4380940000000  0.5831670000000  0.5044160000000 1.0
C      1  0.4287340000000  0.5281770000000  0.5786730000000 1.0
C      1  0.4269370000000  0.4916010000000  0.4103200000000 1.0
C      1  0.4683470000000  0.4679120000000  0.4506390000000 1.0
C      1  0.3991350000000  0.4700720000000  0.4762810000000 1.0
C      1  0.4545970000000  0.5070960000000  0.5207640000000 1.0
C      1  0.5923990000000  0.5218760000000  0.3737450000000 1.0
C      1  0.4479540000000  0.4944080000000  0.5453550000000 1.0
C      1  0.4487080000000  0.4735050000000  0.5657940000000 1.0
C      1  0.5158910000000  0.4912740000000  0.4842330000000 1.0
C      1  0.4039680000000  0.5244920000000  0.4713250000000 1.0
C      1  0.4154850000000  0.4235300000000  0.4936780000000 1.0
C      1  0.4906810000000  0.4398980000000  0.4175470000000 1.0
C      1  0.4822270000000  0.5052930000000  0.5159880000000 1.0
C      1  0.4519500000000  0.4548330000000  0.4975120000000 1.0
C      1  0.4282570000000  0.4432010000000  0.5100670000000 1.0
C      1  0.5622990000000  0.4838960000000  0.6197410000000 1.0
C      1  0.5967680000000  0.4445610000000  0.4504480000000 1.0
C      1  0.4971910000000  0.5089660000000  0.5589740000000 1.0
C      1  0.5779080000000  0.4043550000000  0.4775910000000 1.0
C      1  0.5319550000000  0.5190390000000  0.4435350000000 1.0
C      1  0.4952430000000  0.5159370000000  0.4010870000000 1.0
C      1  0.4878310000000  0.5101930000000  0.4280120000000 1.0
C      1  0.4715690000000  0.6735540000000  0.4886320000000 1.0
C      1  0.6148840000000  0.4771240000000  0.4928540000000 1.0
C      1  0.5585550000000  0.5457240000000  0.5870700000000 1.0
C      1  0.4474360000000  0.4638210000000  0.4699310000000 1.0
C      1  0.4012750000000  0.4818190000000  0.5272260000000 1.0
C      1  0.5883170000000  0.4656880000000  0.4338280000000 1.0
C      1  0.4821770000000  0.5578210000000  0.4880580000000 1.0
C      1  0.5412760000000  0.4608570000000  0.5475260000000 1.0
C      1  0.4661360000000  0.4746630000000  0.5894790000000 1.0
C      1  0.5609780000000  0.5806590000000  0.4940040000000 1.0
C      1  0.4544060000000  0.5692440000000  0.4268750000000 1.0
C      1  0.5231630000000  0.5045070000000  0.5681920000000 1.0
C      1  0.5338350000000  0.5558800000000  0.3960700000000 1.0
C      1  0.4693020000000  0.5016950000000  0.6006590000000 1.0
C      1  0.5396060000000  0.5533370000000  0.5282870000000 1.0
C      1  0.5873130000000  0.4473930000000  0.5229780000000 1.0
C      1  0.4817510000000  0.6505130000000  0.4819230000000 1.0
C      1  0.6126270000000  0.5242480000000  0.5027190000000 1.0
C      1  0.4089380000000  0.4222110000000  0.4416070000000 1.0
C      1  0.4409370000000  0.5148650000000  0.4980930000000 1.0
C      1  0.5768150000000  0.4447010000000  0.5922120000000 1.0
C      1  0.5478290000000  0.4952690000000  0.4370910000000 1.0
C      1  0.5495930000000  0.4396550000000  0.3776860000000 1.0
END
