TITL C-612600-6631-1448 5887.31442593406 125000 -971.101381150444 0 0 159 (C1) n - 1
REM
REM in /home/nfs/bkarasulu/CARBON/AIRSS/Generating-Clusters/TERSOFF/Only-C1/FIRE-HFTN
REM
REM
REM
REM
REM
REM ./C.cell (11c1c37f851c82e70ff6c80c92926a4b)
REM AIRSS Version 0.9.1 bugfix July 2018 build 013d7b7c2542+ Fri, 06 Jul 2018 19:26:36 +0100
REM compiler GCC version 9.2.1 20190827 (Red Hat 9.2.1-1)
REM options -cpp -mtune=generic -march=x86-64 -g -O0 -fpre-include=/usr/include/finclude/math-vector-fortran.h
REM seed 1784189889 257320755 1135911335 -1836064606 1091305417 -970263648 -1325588584 1568906918 -278328074 -229832130 -375594064 -237772666 1791814596 -257380879 1939620462 -1352250890 1942767651 825484865 -1087848540 723140399 1437869648 -1894798269 -325603028 1755160466 1302253142 -245504685 -162753408 1552455876 305187521 -1503240338 -1184840301 -711430284 1405374237
REM
CELL 1.54180   50.00000   50.00000   50.00000   90.00000   90.00000   90.00000
LATT -1
SFAC C  
C      1  0.4136730000000  0.5722480000000  0.4803640000000 1.0
C      1  0.5294300000000  0.5370000000000  0.4956460000000 1.0
C      1  0.4199700000000  0.4537960000000  0.4492680000000 1.0
C      1  0.5023700000000  0.4745320000000  0.6126490000000 1.0
C      1  0.4613050000000  0.4463820000000  0.5235390000000 1.0
C      1  0.5931670000000  0.4704730000000  0.5570960000000 1.0
C      1  0.4705790000000  0.4856870000000  0.4630760000000 1.0
C      1  0.4608970000000  0.4563960000000  0.3810520000000 1.0
C      1  0.5698560000000  0.4540200000000  0.5020880000000 1.0
C      1  0.5668440000000  0.4260910000000  0.5529400000000 1.0
C      1  0.5503660000000  0.4476360000000  0.5629580000000 1.0
C      1  0.4657290000000  0.4310750000000  0.4427390000000 1.0
C      1  0.5643650000000  0.4729310000000  0.5567050000000 1.0
C      1  0.5453610000000  0.4049880000000  0.4647030000000 1.0
C      1  0.4537220000000  0.4716430000000  0.5329830000000 1.0
C      1  0.6207030000000  0.5336560000000  0.6283990000000 1.0
C      1  0.4846660000000  0.4201290000000  0.4231260000000 1.0
C      1  0.4650720000000  0.5882260000000  0.4713920000000 1.0
C      1  0.5039620000000  0.5245810000000  0.4340890000000 1.0
C      1  0.5262980000000  0.4912110000000  0.5007780000000 1.0
C      1  0.5965060000000  0.5349650000000  0.4693870000000 1.0
C      1  0.5469140000000  0.6060020000000  0.4387500000000 1.0
C      1  0.4918750000000  0.3977540000000  0.5269600000000 1.0
C      1  0.4979580000000  0.5251820000000  0.4597170000000 1.0
C      1  0.4814900000000  0.5879660000000  0.4461960000000 1.0
C      1  0.3891740000000  0.5365440000000  0.5118890000000 1.0
C      1  0.4634690000000  0.5834060000000  0.5324620000000 1.0
C      1  0.5449630000000  0.4552260000000  0.4184560000000 1.0
C      1  0.4410050000000  0.5266490000000  0.4684370000000 1.0
C      1  0.5425590000000  0.4485120000000  0.5055930000000 1.0
C      1  0.5051140000000  0.5986550000000  0.4949830000000 1.0
C      1  0.5538870000000  0.4828750000000  0.4146260000000 1.0
C      1  0.4239560000000  0.4338880000000  0.4725990000000 1.0
C      1  0.5381260000000  0.6011390000000  0.5488520000000 1.0
C      1  0.5169920000000  0.4075840000000  0.4589450000000 1.0
C      1  0.4851970000000  0.5798060000000  0.4904070000000 1.0
C      1  0.5011850000000  0.5450200000000  0.3895980000000 1.0
C      1  0.5794460000000  0.5681980000000  0.5000680000000 1.0
C      1  0.6122650000000  0.4793660000000  0.5154480000000 1.0
C      1  0.5613430000000  0.4128020000000  0.4423450000000 1.0
C      1  0.6042450000000  0.4839240000000  0.4879700000000 1.0
C      1  0.5662200000000  0.4906090000000  0.4409500000000 1.0
C      1  0.5870450000000  0.5521300000000  0.5245890000000 1.0
C      1  0.5831660000000  0.4663520000000  0.4807360000000 1.0
C      1  0.5532470000000  0.4066700000000  0.4934460000000 1.0
C      1  0.4386630000000  0.5884930000000  0.4857660000000 1.0
C      1  0.4600740000000  0.4925620000000  0.5948600000000 1.0
C      1  0.4842950000000  0.5520150000000  0.4957960000000 1.0
C      1  0.4887570000000  0.4626870000000  0.3869530000000 1.0
C      1  0.5040770000000  0.5368410000000  0.4836350000000 1.0
C      1  0.4481580000000  0.4252110000000  0.5376580000000 1.0
C      1  0.4027950000000  0.5611980000000  0.5060720000000 1.0
C      1  0.5330660000000  0.4220230000000  0.5085020000000 1.0
C      1  0.4611680000000  0.3910460000000  0.4806120000000 1.0
C      1  0.6154610000000  0.5606500000000  0.6732070000000 1.0
C      1  0.5485920000000  0.5336090000000  0.4414160000000 1.0
C      1  0.6106560000000  0.5045790000000  0.5323320000000 1.0
C      1  0.5070000000000  0.4934000000000  0.3893330000000 1.0
C      1  0.5792820000000  0.4102490000000  0.5080260000000 1.0
C      1  0.5101830000000  0.4976050000000  0.5488990000000 1.0
C      1  0.4564840000000  0.4670320000000  0.5803420000000 1.0
C      1  0.4002240000000  0.5038790000000  0.4548650000000 1.0
C      1  0.4854770000000  0.5969740000000  0.5435640000000 1.0
C      1  0.5709190000000  0.5567410000000  0.5745940000000 1.0
C      1  0.5249860000000  0.4450180000000  0.5772140000000 1.0
C      1  0.5905540000000  0.5237630000000  0.5236350000000 1.0
C      1  0.5219330000000  0.4610880000000  0.6003830000000 1.0
C      1  0.5062390000000  0.4201230000000  0.5163840000000 1.0
C      1  0.5623050000000  0.5902890000000  0.5386190000000 1.0
C      1  0.6061470000000  0.5100630000000  0.4755800000000 1.0
C      1  0.5467750000000  0.5129740000000  0.4914870000000 1.0
C      1  0.4160910000000  0.4774840000000  0.4918290000000 1.0
C      1  0.5667580000000  0.5098980000000  0.5162800000000 1.0
C      1  0.6084510000000  0.4949200000000  0.5597930000000 1.0
C      1  0.5020930000000  0.4281490000000  0.4725660000000 1.0
C      1  0.4285000000000  0.4584180000000  0.4217440000000 1.0
C      1  0.5553000000000  0.4921330000000  0.5373750000000 1.0
C      1  0.4392130000000  0.4714910000000  0.5576240000000 1.0
C      1  0.5269970000000  0.6133170000000  0.4916490000000 1.0
C      1  0.5374310000000  0.4638360000000  0.4630480000000 1.0
C      1  0.5677680000000  0.5927180000000  0.5100750000000 1.0
C      1  0.5659990000000  0.4689760000000  0.4592190000000 1.0
C      1  0.4579110000000  0.4194440000000  0.5632150000000 1.0
C      1  0.5533700000000  0.6114570000000  0.4954200000000 1.0
C      1  0.5573440000000  0.5125240000000  0.4575150000000 1.0
C      1  0.5003590000000  0.4313470000000  0.5713580000000 1.0
C      1  0.6024290000000  0.4548990000000  0.5328440000000 1.0
C      1  0.3879180000000  0.4386360000000  0.5387930000000 1.0
C      1  0.4105730000000  0.5003230000000  0.4046580000000 1.0
C      1  0.4907420000000  0.5180940000000  0.3876030000000 1.0
C      1  0.5245030000000  0.4597260000000  0.4389940000000 1.0
C      1  0.3623470000000  0.5337540000000  0.5073850000000 1.0
C      1  0.4717090000000  0.4416340000000  0.5776230000000 1.0
C      1  0.3811090000000  0.4160060000000  0.5526210000000 1.0
C      1  0.4935440000000  0.5196760000000  0.6225030000000 1.0
C      1  0.4466660000000  0.5380280000000  0.3941330000000 1.0
C      1  0.5282150000000  0.4663260000000  0.4890400000000 1.0
C      1  0.4235670000000  0.5023780000000  0.5050250000000 1.0
C      1  0.4643760000000  0.5162360000000  0.3980400000000 1.0
C      1  0.4277210000000  0.5280240000000  0.5635170000000 1.0
C      1  0.4534010000000  0.5443700000000  0.4496590000000 1.0
C      1  0.5350370000000  0.5807210000000  0.4435110000000 1.0
C      1  0.4984630000000  0.4648750000000  0.4305060000000 1.0
C      1  0.5765760000000  0.5664840000000  0.5484920000000 1.0
C      1  0.4122400000000  0.5285460000000  0.4602530000000 1.0
C      1  0.4586980000000  0.5540710000000  0.5350700000000 1.0
C      1  0.5578770000000  0.6283910000000  0.4311410000000 1.0
C      1  0.3925770000000  0.4626140000000  0.5525340000000 1.0
C      1  0.4131730000000  0.4487200000000  0.4964160000000 1.0
C      1  0.4937850000000  0.4449090000000  0.4097000000000 1.0
C      1  0.3908840000000  0.4378000000000  0.5104820000000 1.0
C      1  0.4408830000000  0.4468320000000  0.3979450000000 1.0
C      1  0.4180740000000  0.5716320000000  0.5286120000000 1.0
C      1  0.5590840000000  0.4308950000000  0.4220660000000 1.0
C      1  0.4101520000000  0.5090610000000  0.5506440000000 1.0
C      1  0.4833550000000  0.4954050000000  0.6121310000000 1.0
C      1  0.4767550000000  0.4830570000000  0.4363050000000 1.0
C      1  0.4751020000000  0.5250620000000  0.5663810000000 1.0
C      1  0.4737270000000  0.3868400000000  0.5068190000000 1.0
C      1  0.5328190000000  0.5002880000000  0.4046810000000 1.0
C      1  0.4880350000000  0.4422580000000  0.5153000000000 1.0
C      1  0.5872350000000  0.4274850000000  0.5314620000000 1.0
C      1  0.6209590000000  0.5199720000000  0.6057080000000 1.0
C      1  0.4760970000000  0.3836430000000  0.4564380000000 1.0
C      1  0.4893360000000  0.4022760000000  0.5548700000000 1.0
C      1  0.4687350000000  0.4945570000000  0.5287380000000 1.0
C      1  0.4331560000000  0.5604920000000  0.4358370000000 1.0
C      1  0.4047360000000  0.5148220000000  0.5228860000000 1.0
C      1  0.6183480000000  0.5473300000000  0.6509840000000 1.0
C      1  0.4313610000000  0.4867370000000  0.4161730000000 1.0
C      1  0.5246290000000  0.5511740000000  0.5704090000000 1.0
C      1  0.4447990000000  0.5209370000000  0.4959870000000 1.0
C      1  0.4584170000000  0.4959310000000  0.4172840000000 1.0
C      1  0.5304090000000  0.5504470000000  0.5198460000000 1.0
C      1  0.4506950000000  0.5172900000000  0.5795810000000 1.0
C      1  0.4964570000000  0.3976230000000  0.4399700000000 1.0
C      1  0.5206880000000  0.5517640000000  0.5443250000000 1.0
C      1  0.4103190000000  0.4788670000000  0.4630480000000 1.0
C      1  0.4383840000000  0.4091610000000  0.4769260000000 1.0
C      1  0.4320150000000  0.5519910000000  0.5467940000000 1.0
C      1  0.4772100000000  0.4373230000000  0.4668050000000 1.0
C      1  0.5165420000000  0.5334170000000  0.6249180000000 1.0
C      1  0.5465980000000  0.5503730000000  0.5878800000000 1.0
C      1  0.4630120000000  0.5396320000000  0.5103600000000 1.0
C      1  0.5039000000000  0.5658180000000  0.4070510000000 1.0
C      1  0.5111510000000  0.6030470000000  0.5493510000000 1.0
C      1  0.4340860000000  0.5574740000000  0.4079990000000 1.0
C      1  0.4852510000000  0.5083380000000  0.5465540000000 1.0
C      1  0.6174350000000  0.5069680000000  0.5829010000000 1.0
C      1  0.4107820000000  0.5576850000000  0.4554570000000 1.0
C      1  0.4126590000000  0.4813800000000  0.5572220000000 1.0
C      1  0.5539860000000  0.5595730000000  0.4529050000000 1.0
C      1  0.5066780000000  0.5783200000000  0.4331290000000 1.0
C      1  0.4394550000000  0.5905320000000  0.5164200000000 1.0
C      1  0.5294420000000  0.5235750000000  0.4224480000000 1.0
C      1  0.5393460000000  0.5426800000000  0.6139110000000 1.0
C      1  0.3705520000000  0.4265760000000  0.4957270000000 1.0
C      1  0.5773490000000  0.5572020000000  0.4731810000000 1.0
C      1  0.5281330000000  0.4908680000000  0.5296470000000 1.0
END
