TITL C-612602-9376-1385 6260.64915330153 125000 -484.009803263087 0 0 81 (C1) n - 1
REM
REM in /home/nfs/bkarasulu/CARBON/AIRSS/Generating-Clusters/TERSOFF/Only-C1/FIRE-HFTN
REM
REM
REM
REM
REM
REM ./C.cell (11c1c37f851c82e70ff6c80c92926a4b)
REM AIRSS Version 0.9.1 bugfix July 2018 build 013d7b7c2542+ Fri, 06 Jul 2018 19:26:36 +0100
REM compiler GCC version 9.2.1 20190827 (Red Hat 9.2.1-1)
REM options -cpp -mtune=generic -march=x86-64 -g -O0 -fpre-include=/usr/include/finclude/math-vector-fortran.h
REM seed -1997668327 -649073814 -748234091 -1220796386 -608424995 -1546461014 936450817 1184848545 1186057233 -1639747901 -1149008924 507810741 992523877 -812777980 -684720910 -1221133172 -1810619415 98043446 846542780 1211502279 -2043371597 -529362629 -2129580135 -383006699 330287498 -738782637 -635643212 1694252012 147798166 -1216897623 -18873200 -1055639774 1237581599
REM
CELL 1.54180   50.00000   50.00000   50.00000   90.00000   90.00000   90.00000
LATT -1
SFAC C  
C      1  0.5081800000000  0.4985670000000  0.5947240000000 1.0
C      1  0.4976420000000  0.4210740000000  0.4698460000000 1.0
C      1  0.5094300000000  0.5890970000000  0.4662370000000 1.0
C      1  0.5078270000000  0.5420970000000  0.4854570000000 1.0
C      1  0.4277850000000  0.4850050000000  0.5573810000000 1.0
C      1  0.5037000000000  0.5503970000000  0.5320560000000 1.0
C      1  0.4244540000000  0.5323040000000  0.5208800000000 1.0
C      1  0.4897210000000  0.5253840000000  0.5250150000000 1.0
C      1  0.5424150000000  0.5301320000000  0.5211600000000 1.0
C      1  0.5842470000000  0.5577270000000  0.5396970000000 1.0
C      1  0.4513710000000  0.4953110000000  0.5685590000000 1.0
C      1  0.4855060000000  0.5368710000000  0.5710100000000 1.0
C      1  0.4433750000000  0.5553800000000  0.4584500000000 1.0
C      1  0.5575680000000  0.4960040000000  0.5577390000000 1.0
C      1  0.5634300000000  0.4380380000000  0.5276290000000 1.0
C      1  0.4535490000000  0.5689520000000  0.5058320000000 1.0
C      1  0.4900440000000  0.4741670000000  0.5192730000000 1.0
C      1  0.5834280000000  0.5162910000000  0.4707890000000 1.0
C      1  0.5487570000000  0.4113510000000  0.4600230000000 1.0
C      1  0.4994250000000  0.4999380000000  0.5258950000000 1.0
C      1  0.5295560000000  0.4953170000000  0.4917330000000 1.0
C      1  0.4175830000000  0.4826630000000  0.5102140000000 1.0
C      1  0.5762120000000  0.4624790000000  0.5218320000000 1.0
C      1  0.5225560000000  0.5171140000000  0.4742300000000 1.0
C      1  0.4481210000000  0.5335680000000  0.4395470000000 1.0
C      1  0.5243570000000  0.4089660000000  0.4745470000000 1.0
C      1  0.4162690000000  0.5183520000000  0.4729650000000 1.0
C      1  0.4853000000000  0.5602600000000  0.5513840000000 1.0
C      1  0.4307790000000  0.4657310000000  0.4918820000000 1.0
C      1  0.4814850000000  0.5306600000000  0.4988410000000 1.0
C      1  0.4824480000000  0.4326590000000  0.4471520000000 1.0
C      1  0.4949520000000  0.5633080000000  0.4665650000000 1.0
C      1  0.5823740000000  0.4687340000000  0.4933170000000 1.0
C      1  0.4648200000000  0.5672510000000  0.4762950000000 1.0
C      1  0.5235090000000  0.6109890000000  0.4671450000000 1.0
C      1  0.5206130000000  0.4706850000000  0.4810560000000 1.0
C      1  0.4982200000000  0.4761510000000  0.5809040000000 1.0
C      1  0.4759710000000  0.5279740000000  0.4366370000000 1.0
C      1  0.4599810000000  0.5626500000000  0.5353320000000 1.0
C      1  0.5661180000000  0.5411830000000  0.5308210000000 1.0
C      1  0.4898400000000  0.4285900000000  0.5236700000000 1.0
C      1  0.4114720000000  0.4750110000000  0.5368260000000 1.0
C      1  0.5224670000000  0.5112840000000  0.4451390000000 1.0
C      1  0.4160490000000  0.5100210000000  0.5024190000000 1.0
C      1  0.5891470000000  0.4977300000000  0.4915770000000 1.0
C      1  0.5291140000000  0.5003460000000  0.5217830000000 1.0
C      1  0.4435020000000  0.5377800000000  0.5429840000000 1.0
C      1  0.5583950000000  0.4650720000000  0.4518310000000 1.0
C      1  0.5796060000000  0.4876900000000  0.5390020000000 1.0
C      1  0.4700000000000  0.4769010000000  0.5790420000000 1.0
C      1  0.4974080000000  0.4615010000000  0.4941660000000 1.0
C      1  0.4727800000000  0.4568370000000  0.4324750000000 1.0
C      1  0.4265070000000  0.5555400000000  0.5025540000000 1.0
C      1  0.4306650000000  0.5087380000000  0.4458960000000 1.0
C      1  0.4905930000000  0.4335740000000  0.4947970000000 1.0
C      1  0.5422130000000  0.5190760000000  0.5711900000000 1.0
C      1  0.5716360000000  0.5337240000000  0.4535860000000 1.0
C      1  0.4622830000000  0.5132970000000  0.4913190000000 1.0
C      1  0.5305890000000  0.4674240000000  0.4543650000000 1.0
C      1  0.5351990000000  0.4814630000000  0.5457880000000 1.0
C      1  0.4431070000000  0.4747480000000  0.4434790000000 1.0
C      1  0.5127980000000  0.5230960000000  0.5796990000000 1.0
C      1  0.4971230000000  0.5481090000000  0.4393700000000 1.0
C      1  0.4585770000000  0.5227920000000  0.5639850000000 1.0
C      1  0.5752210000000  0.4524640000000  0.4707830000000 1.0
C      1  0.4798450000000  0.5031860000000  0.4505680000000 1.0
C      1  0.5313220000000  0.4055880000000  0.5024750000000 1.0
C      1  0.5931760000000  0.5051040000000  0.5196790000000 1.0
C      1  0.5717950000000  0.4243610000000  0.4672530000000 1.0
C      1  0.4944770000000  0.4729810000000  0.4226730000000 1.0
C      1  0.4481270000000  0.4720660000000  0.4710140000000 1.0
C      1  0.5233910000000  0.5500710000000  0.5112020000000 1.0
C      1  0.4678090000000  0.4928960000000  0.4741370000000 1.0
C      1  0.4956450000000  0.4525240000000  0.5390570000000 1.0
C      1  0.5172850000000  0.4844970000000  0.4357120000000 1.0
C      1  0.5243160000000  0.5378980000000  0.4336840000000 1.0
C      1  0.4211540000000  0.5479710000000  0.4753440000000 1.0
C      1  0.5129650000000  0.4656840000000  0.5581500000000 1.0
C      1  0.5472150000000  0.4178640000000  0.5205120000000 1.0
C      1  0.3903390000000  0.4585750000000  0.5422510000000 1.0
C      1  0.5517710000000  0.5451430000000  0.4385110000000 1.0
END
