TITL C-612602-9376-503 56.2375499760305 125000 -971.175778644698 0 0 159 (C1) n - 1
REM
REM in /home/nfs/bkarasulu/CARBON/AIRSS/Generating-Clusters/TERSOFF/Only-C1/FIRE-HFTN
REM
REM
REM
REM
REM
REM ./C.cell (11c1c37f851c82e70ff6c80c92926a4b)
REM AIRSS Version 0.9.1 bugfix July 2018 build 013d7b7c2542+ Fri, 06 Jul 2018 19:26:36 +0100
REM compiler GCC version 9.2.1 20190827 (Red Hat 9.2.1-1)
REM options -cpp -mtune=generic -march=x86-64 -g -O0 -fpre-include=/usr/include/finclude/math-vector-fortran.h
REM seed -967922347 578989525 803666679 484886097 -1039840420 587182211 -630242052 -76402365 2087910575 834687734 -1593972145 -2087488082 -2146409762 -553293103 -133431691 644450594 -1382286036 1821376003 -1838908604 1203765136 -830512356 977234866 -1898905175 1066770422 -393946281 -2081830978 -854872327 -216061221 175656449 -188435232 1442630362 -1736683902 -364879815
REM
CELL 1.54180   50.00000   50.00000   50.00000   90.00000   90.00000   90.00000
LATT -1
SFAC C  
C      1  0.4977290000000  0.6263370000000  0.5036630000000 1.0
C      1  0.5539300000000  0.4478700000000  0.4413710000000 1.0
C      1  0.5502990000000  0.5968840000000  0.5284290000000 1.0
C      1  0.4559230000000  0.5314470000000  0.6066980000000 1.0
C      1  0.4323830000000  0.4956520000000  0.3878520000000 1.0
C      1  0.5508230000000  0.4697090000000  0.4852940000000 1.0
C      1  0.4564280000000  0.4166230000000  0.4193170000000 1.0
C      1  0.5764430000000  0.5241080000000  0.5233260000000 1.0
C      1  0.4578000000000  0.5933460000000  0.5077440000000 1.0
C      1  0.6000820000000  0.5173040000000  0.5084810000000 1.0
C      1  0.5515490000000  0.4993740000000  0.4856860000000 1.0
C      1  0.4833960000000  0.5401730000000  0.6002440000000 1.0
C      1  0.4798330000000  0.4397990000000  0.4823240000000 1.0
C      1  0.5474530000000  0.4473140000000  0.6048320000000 1.0
C      1  0.5568300000000  0.7300540000000  0.4700550000000 1.0
C      1  0.4175680000000  0.4472780000000  0.5712640000000 1.0
C      1  0.4257650000000  0.5140780000000  0.5703480000000 1.0
C      1  0.5683540000000  0.5452110000000  0.4472130000000 1.0
C      1  0.4195340000000  0.4545370000000  0.5269490000000 1.0
C      1  0.4495820000000  0.5169950000000  0.5088630000000 1.0
C      1  0.5211820000000  0.4228170000000  0.5385320000000 1.0
C      1  0.4876560000000  0.5645840000000  0.5844230000000 1.0
C      1  0.4930810000000  0.5705780000000  0.4875890000000 1.0
C      1  0.5342550000000  0.5565890000000  0.4779950000000 1.0
C      1  0.6002550000000  0.5050890000000  0.4625800000000 1.0
C      1  0.4696720000000  0.4111600000000  0.4442020000000 1.0
C      1  0.5554070000000  0.5160050000000  0.5069820000000 1.0
C      1  0.4805140000000  0.4771890000000  0.3780810000000 1.0
C      1  0.4683700000000  0.4843200000000  0.5739280000000 1.0
C      1  0.5554510000000  0.4192920000000  0.6044910000000 1.0
C      1  0.5029630000000  0.5896900000000  0.5328490000000 1.0
C      1  0.5414120000000  0.5366550000000  0.5539030000000 1.0
C      1  0.5034230000000  0.5190690000000  0.5985460000000 1.0
C      1  0.5333230000000  0.4013950000000  0.5530410000000 1.0
C      1  0.5387700000000  0.4062390000000  0.4311020000000 1.0
C      1  0.5999370000000  0.5272980000000  0.4809990000000 1.0
C      1  0.5850900000000  0.4859020000000  0.4481410000000 1.0
C      1  0.5127480000000  0.5515840000000  0.4953370000000 1.0
C      1  0.5848890000000  0.4436070000000  0.5770890000000 1.0
C      1  0.5674730000000  0.5241520000000  0.5501920000000 1.0
C      1  0.5219200000000  0.5713200000000  0.4197930000000 1.0
C      1  0.5768330000000  0.5759550000000  0.4897820000000 1.0
C      1  0.5574840000000  0.4440750000000  0.5026820000000 1.0
C      1  0.6164990000000  0.4544450000000  0.5421940000000 1.0
C      1  0.5490140000000  0.7062600000000  0.4772960000000 1.0
C      1  0.5216750000000  0.3835160000000  0.5974450000000 1.0
C      1  0.5445430000000  0.5372290000000  0.4613310000000 1.0
C      1  0.5748790000000  0.5000480000000  0.5630920000000 1.0
C      1  0.4747260000000  0.5460650000000  0.4559320000000 1.0
C      1  0.4555280000000  0.4876630000000  0.3762950000000 1.0
C      1  0.4744510000000  0.5637970000000  0.5583760000000 1.0
C      1  0.3701090000000  0.4647050000000  0.3972400000000 1.0
C      1  0.4990600000000  0.4538860000000  0.4454810000000 1.0
C      1  0.5739120000000  0.4167630000000  0.5811050000000 1.0
C      1  0.4130900000000  0.4689060000000  0.5521990000000 1.0
C      1  0.4839360000000  0.6053730000000  0.5170110000000 1.0
C      1  0.5135930000000  0.5402740000000  0.5472800000000 1.0
C      1  0.4663130000000  0.4679340000000  0.5204990000000 1.0
C      1  0.4857160000000  0.4646690000000  0.5641830000000 1.0
C      1  0.5397000000000  0.4438790000000  0.5303630000000 1.0
C      1  0.5478100000000  0.4216690000000  0.4539520000000 1.0
C      1  0.5371070000000  0.5110220000000  0.4640560000000 1.0
C      1  0.5253220000000  0.6321500000000  0.4993900000000 1.0
C      1  0.4486030000000  0.4166620000000  0.5096960000000 1.0
C      1  0.4603080000000  0.4759420000000  0.4305470000000 1.0
C      1  0.3990400000000  0.5573650000000  0.5173140000000 1.0
C      1  0.5321660000000  0.5906970000000  0.6006900000000 1.0
C      1  0.5563640000000  0.4785100000000  0.5610770000000 1.0
C      1  0.3974720000000  0.4660200000000  0.4020740000000 1.0
C      1  0.5323070000000  0.4717020000000  0.5432860000000 1.0
C      1  0.5184360000000  0.3849570000000  0.5706180000000 1.0
C      1  0.3828950000000  0.4851560000000  0.5121700000000 1.0
C      1  0.3971480000000  0.5303130000000  0.5090530000000 1.0
C      1  0.5022460000000  0.5069230000000  0.5173270000000 1.0
C      1  0.5435640000000  0.4194460000000  0.4819890000000 1.0
C      1  0.5724590000000  0.5785160000000  0.5195660000000 1.0
C      1  0.5078310000000  0.4740720000000  0.4640730000000 1.0
C      1  0.5003770000000  0.5255370000000  0.4957610000000 1.0
C      1  0.4724380000000  0.5092360000000  0.5591820000000 1.0
C      1  0.5876530000000  0.4421180000000  0.5055540000000 1.0
C      1  0.5331550000000  0.6578710000000  0.4919660000000 1.0
C      1  0.4921160000000  0.5699120000000  0.4579170000000 1.0
C      1  0.4286080000000  0.4439470000000  0.4667320000000 1.0
C      1  0.4510940000000  0.5574850000000  0.4709060000000 1.0
C      1  0.4282980000000  0.4243910000000  0.5590630000000 1.0
C      1  0.6056090000000  0.4606790000000  0.5673250000000 1.0
C      1  0.5359220000000  0.5829580000000  0.4650690000000 1.0
C      1  0.5606320000000  0.4597400000000  0.5825170000000 1.0
C      1  0.4674210000000  0.4622550000000  0.4929140000000 1.0
C      1  0.4853850000000  0.4630780000000  0.4230530000000 1.0
C      1  0.4092720000000  0.5821670000000  0.5135790000000 1.0
C      1  0.5140230000000  0.4969730000000  0.5862590000000 1.0
C      1  0.4463460000000  0.5072140000000  0.4825030000000 1.0
C      1  0.4556740000000  0.4825070000000  0.4769450000000 1.0
C      1  0.4663650000000  0.5039960000000  0.4243750000000 1.0
C      1  0.4873740000000  0.4305270000000  0.4565460000000 1.0
C      1  0.4500940000000  0.4657560000000  0.6161640000000 1.0
C      1  0.4052620000000  0.5066300000000  0.4298280000000 1.0
C      1  0.4039590000000  0.4547760000000  0.4759300000000 1.0
C      1  0.4394100000000  0.4195690000000  0.4813710000000 1.0
C      1  0.5225700000000  0.4025210000000  0.4909070000000 1.0
C      1  0.4000440000000  0.5168130000000  0.4544960000000 1.0
C      1  0.4514760000000  0.4005270000000  0.4635300000000 1.0
C      1  0.4550070000000  0.5441190000000  0.5171430000000 1.0
C      1  0.5171940000000  0.5840370000000  0.5795690000000 1.0
C      1  0.4374920000000  0.5100720000000  0.5976150000000 1.0
C      1  0.4971820000000  0.3965510000000  0.4989120000000 1.0
C      1  0.4921960000000  0.4269050000000  0.5341340000000 1.0
C      1  0.4319020000000  0.4279320000000  0.5302760000000 1.0
C      1  0.5997240000000  0.4192450000000  0.4959280000000 1.0
C      1  0.5275160000000  0.5949730000000  0.5468860000000 1.0
C      1  0.5155640000000  0.5221600000000  0.4072050000000 1.0
C      1  0.5164620000000  0.4826000000000  0.5163690000000 1.0
C      1  0.5616550000000  0.5100160000000  0.4105260000000 1.0
C      1  0.4983790000000  0.4686270000000  0.3985090000000 1.0
C      1  0.4514610000000  0.4847770000000  0.5968180000000 1.0
C      1  0.4964550000000  0.5169540000000  0.5435050000000 1.0
C      1  0.4109120000000  0.4912200000000  0.4062140000000 1.0
C      1  0.4878740000000  0.5178690000000  0.4137620000000 1.0
C      1  0.4535970000000  0.5496580000000  0.5454370000000 1.0
C      1  0.3969760000000  0.5250960000000  0.4802530000000 1.0
C      1  0.4312250000000  0.5788330000000  0.4709490000000 1.0
C      1  0.6079660000000  0.4897130000000  0.5111080000000 1.0
C      1  0.3952720000000  0.5068370000000  0.5265310000000 1.0
C      1  0.5410660000000  0.6820670000000  0.4846520000000 1.0
C      1  0.6045130000000  0.4622270000000  0.5176430000000 1.0
C      1  0.4137220000000  0.4427730000000  0.4031900000000 1.0
C      1  0.6003680000000  0.4892460000000  0.5710400000000 1.0
C      1  0.5354750000000  0.4222130000000  0.4085500000000 1.0
C      1  0.4974750000000  0.5636480000000  0.5415740000000 1.0
C      1  0.5811780000000  0.4929330000000  0.4209550000000 1.0
C      1  0.4360850000000  0.4364820000000  0.4188140000000 1.0
C      1  0.4655880000000  0.5647910000000  0.4984410000000 1.0
C      1  0.3443770000000  0.4638970000000  0.3931980000000 1.0
C      1  0.5324340000000  0.4589930000000  0.6241680000000 1.0
C      1  0.5661620000000  0.4663710000000  0.4585670000000 1.0
C      1  0.5116040000000  0.4754660000000  0.5663210000000 1.0
C      1  0.4090020000000  0.4979110000000  0.5518600000000 1.0
C      1  0.5414500000000  0.4503220000000  0.4142090000000 1.0
C      1  0.5450270000000  0.6116560000000  0.5027580000000 1.0
C      1  0.4795540000000  0.4517110000000  0.5401750000000 1.0
C      1  0.4402010000000  0.4554630000000  0.4408540000000 1.0
C      1  0.5388270000000  0.3980860000000  0.6124090000000 1.0
C      1  0.3871710000000  0.4680730000000  0.4919130000000 1.0
C      1  0.5150300000000  0.5810410000000  0.4453260000000 1.0
C      1  0.4487230000000  0.5254010000000  0.5577520000000 1.0
C      1  0.5201250000000  0.4686010000000  0.4898620000000 1.0
C      1  0.5559460000000  0.5960520000000  0.4802210000000 1.0
C      1  0.5103140000000  0.5020170000000  0.4581640000000 1.0
C      1  0.4903990000000  0.5214820000000  0.4675260000000 1.0
C      1  0.5321380000000  0.5462260000000  0.4120590000000 1.0
C      1  0.4299200000000  0.5931050000000  0.4971780000000 1.0
C      1  0.5863120000000  0.5521800000000  0.4711580000000 1.0
C      1  0.5351330000000  0.5000010000000  0.4037960000000 1.0
C      1  0.5269650000000  0.4725240000000  0.4022620000000 1.0
C      1  0.4540080000000  0.4932200000000  0.5247270000000 1.0
C      1  0.5603560000000  0.5382030000000  0.4194980000000 1.0
C      1  0.4776790000000  0.4098260000000  0.5154660000000 1.0
C      1  0.5614530000000  0.4032190000000  0.5592610000000 1.0
END
