TITL C-612603-7354-587 1024.60718867168 125000 -859.37826955012 0 0 141 (C1) n - 1
REM
REM in /home/nfs/bkarasulu/CARBON/AIRSS/Generating-Clusters/TERSOFF/Only-C1/FIRE-HFTN
REM
REM
REM
REM
REM
REM ./C.cell (11c1c37f851c82e70ff6c80c92926a4b)
REM AIRSS Version 0.9.1 bugfix July 2018 build 013d7b7c2542+ Fri, 06 Jul 2018 19:26:36 +0100
REM compiler GCC version 9.2.1 20190827 (Red Hat 9.2.1-1)
REM options -cpp -mtune=generic -march=x86-64 -g -O0 -fpre-include=/usr/include/finclude/math-vector-fortran.h
REM seed 1617612629 -1686656980 -1732123256 -1180772724 -843726976 331280161 69950066 -840519162 -396730612 -1351051401 1895714788 -1874149644 1018270582 -986072936 298415465 1317476519 149447689 880288052 508119752 -1108321125 428419769 -766053832 272479755 -1165082700 -520767518 -639871993 -1123148549 -1159040053 -992442106 1790339152 -624634209 -1808475670 1742675429
REM
CELL 1.54180   50.00000   50.00000   50.00000   90.00000   90.00000   90.00000
LATT -1
SFAC C  
C      1  0.5469840000000  0.5379200000000  0.5781100000000 1.0
C      1  0.4517460000000  0.5679290000000  0.4499080000000 1.0
C      1  0.4782640000000  0.4023050000000  0.5250880000000 1.0
C      1  0.5409760000000  0.4303960000000  0.6132300000000 1.0
C      1  0.4568710000000  0.4879040000000  0.5237230000000 1.0
C      1  0.4152020000000  0.5410260000000  0.5402590000000 1.0
C      1  0.5367750000000  0.5106300000000  0.5790650000000 1.0
C      1  0.6058500000000  0.4737550000000  0.4427210000000 1.0
C      1  0.5782030000000  0.5656890000000  0.4778870000000 1.0
C      1  0.5394510000000  0.5472480000000  0.5115930000000 1.0
C      1  0.4359510000000  0.5872690000000  0.4361890000000 1.0
C      1  0.4010600000000  0.5523900000000  0.4490080000000 1.0
C      1  0.4477830000000  0.6012390000000  0.6047090000000 1.0
C      1  0.4686110000000  0.5237420000000  0.4510110000000 1.0
C      1  0.5106100000000  0.4829780000000  0.6088870000000 1.0
C      1  0.5332410000000  0.4439890000000  0.5905390000000 1.0
C      1  0.5437190000000  0.6042840000000  0.5543950000000 1.0
C      1  0.4458840000000  0.4734120000000  0.4159890000000 1.0
C      1  0.5805550000000  0.5182280000000  0.5361160000000 1.0
C      1  0.4535390000000  0.6015660000000  0.4189030000000 1.0
C      1  0.5754510000000  0.5344740000000  0.5796420000000 1.0
C      1  0.5266410000000  0.5512990000000  0.5631880000000 1.0
C      1  0.5438120000000  0.5194070000000  0.5058160000000 1.0
C      1  0.5114880000000  0.5214430000000  0.4693460000000 1.0
C      1  0.4941020000000  0.4868250000000  0.4374980000000 1.0
C      1  0.4330870000000  0.4472180000000  0.5324120000000 1.0
C      1  0.5208500000000  0.4748430000000  0.4867240000000 1.0
C      1  0.4714900000000  0.5393960000000  0.5712800000000 1.0
C      1  0.6010890000000  0.5147030000000  0.4931640000000 1.0
C      1  0.4867940000000  0.4490870000000  0.5281020000000 1.0
C      1  0.4489070000000  0.5386070000000  0.4104610000000 1.0
C      1  0.4633850000000  0.5100640000000  0.5673220000000 1.0
C      1  0.5120150000000  0.4197690000000  0.4378420000000 1.0
C      1  0.4150500000000  0.5496490000000  0.5120690000000 1.0
C      1  0.4707470000000  0.4178740000000  0.4599330000000 1.0
C      1  0.4182160000000  0.4400420000000  0.5084360000000 1.0
C      1  0.4470970000000  0.5554510000000  0.5761750000000 1.0
C      1  0.4054210000000  0.5285530000000  0.4647050000000 1.0
C      1  0.5803440000000  0.5803080000000  0.5246980000000 1.0
C      1  0.5563560000000  0.5164610000000  0.3865760000000 1.0
C      1  0.5719870000000  0.4605670000000  0.5586400000000 1.0
C      1  0.5096180000000  0.4599280000000  0.5921730000000 1.0
C      1  0.5103460000000  0.5753810000000  0.4599060000000 1.0
C      1  0.4103210000000  0.5237560000000  0.5847260000000 1.0
C      1  0.5172350000000  0.4018770000000  0.5549500000000 1.0
C      1  0.4949490000000  0.4236670000000  0.5139220000000 1.0
C      1  0.4596450000000  0.4596640000000  0.5289600000000 1.0
C      1  0.4918440000000  0.4889710000000  0.4098480000000 1.0
C      1  0.4093290000000  0.5763550000000  0.4384120000000 1.0
C      1  0.5104430000000  0.5078390000000  0.3983970000000 1.0
C      1  0.5137520000000  0.5492710000000  0.4690240000000 1.0
C      1  0.5289300000000  0.4639560000000  0.5132980000000 1.0
C      1  0.5834870000000  0.4845610000000  0.5706840000000 1.0
C      1  0.5006510000000  0.5121010000000  0.5167950000000 1.0
C      1  0.4551440000000  0.5433260000000  0.4375920000000 1.0
C      1  0.4710690000000  0.4890220000000  0.5861300000000 1.0
C      1  0.4108970000000  0.4566550000000  0.4861870000000 1.0
C      1  0.5084150000000  0.4950160000000  0.5393830000000 1.0
C      1  0.6428310000000  0.4659910000000  0.4061910000000 1.0
C      1  0.4590550000000  0.4466820000000  0.4175660000000 1.0
C      1  0.5937640000000  0.4879040000000  0.4874390000000 1.0
C      1  0.5520030000000  0.4498740000000  0.5187970000000 1.0
C      1  0.5181900000000  0.5256010000000  0.6222240000000 1.0
C      1  0.5487580000000  0.4939040000000  0.4283720000000 1.0
C      1  0.4925250000000  0.4610440000000  0.4498050000000 1.0
C      1  0.5078680000000  0.4674740000000  0.5321180000000 1.0
C      1  0.5011960000000  0.5569300000000  0.3956120000000 1.0
C      1  0.4099790000000  0.4723690000000  0.5741950000000 1.0
C      1  0.5295240000000  0.5042700000000  0.6055180000000 1.0
C      1  0.4695930000000  0.4420380000000  0.4436090000000 1.0
C      1  0.4837090000000  0.4969740000000  0.6112800000000 1.0
C      1  0.5336410000000  0.5568660000000  0.5360910000000 1.0
C      1  0.4479760000000  0.5794060000000  0.5904790000000 1.0
C      1  0.6245550000000  0.4695930000000  0.4244290000000 1.0
C      1  0.4544960000000  0.5029250000000  0.4989000000000 1.0
C      1  0.5006110000000  0.4152750000000  0.4111310000000 1.0
C      1  0.4979140000000  0.5560940000000  0.5694350000000 1.0
C      1  0.5028540000000  0.5798550000000  0.4124170000000 1.0
C      1  0.4990490000000  0.5956960000000  0.4740860000000 1.0
C      1  0.4216910000000  0.5444260000000  0.5681430000000 1.0
C      1  0.4181800000000  0.5116280000000  0.5364080000000 1.0
C      1  0.4844660000000  0.5842330000000  0.5338040000000 1.0
C      1  0.4117030000000  0.4835430000000  0.4953740000000 1.0
C      1  0.4450190000000  0.5026610000000  0.5451440000000 1.0
C      1  0.5515920000000  0.4334420000000  0.4748070000000 1.0
C      1  0.5392640000000  0.4594990000000  0.4638550000000 1.0
C      1  0.4726490000000  0.4111040000000  0.5721390000000 1.0
C      1  0.4907800000000  0.5215510000000  0.6245910000000 1.0
C      1  0.5471870000000  0.4216350000000  0.5210430000000 1.0
C      1  0.4798240000000  0.5972110000000  0.4126230000000 1.0
C      1  0.4257160000000  0.4794830000000  0.4385590000000 1.0
C      1  0.5539060000000  0.5087760000000  0.5306580000000 1.0
C      1  0.5928830000000  0.4707650000000  0.5101950000000 1.0
C      1  0.5654400000000  0.5961870000000  0.5405880000000 1.0
C      1  0.4586450000000  0.4230940000000  0.4851590000000 1.0
C      1  0.5220960000000  0.5798660000000  0.4342800000000 1.0
C      1  0.5403680000000  0.4180000000000  0.5490210000000 1.0
C      1  0.4342760000000  0.4957440000000  0.4812230000000 1.0
C      1  0.5854870000000  0.4804080000000  0.4608820000000 1.0
C      1  0.4884300000000  0.5631870000000  0.5175720000000 1.0
C      1  0.4003630000000  0.5299900000000  0.4948620000000 1.0
C      1  0.4988120000000  0.4094500000000  0.4627760000000 1.0
C      1  0.4153820000000  0.4569380000000  0.4568570000000 1.0
C      1  0.5387910000000  0.4157840000000  0.4939230000000 1.0
C      1  0.4413210000000  0.5518600000000  0.5013830000000 1.0
C      1  0.4848870000000  0.5358140000000  0.5131180000000 1.0
C      1  0.5498810000000  0.4405980000000  0.5670730000000 1.0
C      1  0.5739320000000  0.5679980000000  0.4496000000000 1.0
C      1  0.4929850000000  0.5302620000000  0.3912150000000 1.0
C      1  0.5201200000000  0.5060320000000  0.4930480000000 1.0
C      1  0.5124910000000  0.3964450000000  0.3942180000000 1.0
C      1  0.4884670000000  0.3993590000000  0.5519000000000 1.0
C      1  0.5504690000000  0.5774400000000  0.4359860000000 1.0
C      1  0.5923200000000  0.5325710000000  0.5135110000000 1.0
C      1  0.4817970000000  0.4610880000000  0.5823640000000 1.0
C      1  0.5335480000000  0.5021730000000  0.5515150000000 1.0
C      1  0.4687140000000  0.4363890000000  0.5802750000000 1.0
C      1  0.4922330000000  0.5098780000000  0.4528800000000 1.0
C      1  0.4678320000000  0.4508530000000  0.4889640000000 1.0
C      1  0.5949570000000  0.5590650000000  0.4332180000000 1.0
C      1  0.6138410000000  0.5480530000000  0.4190280000000 1.0
C      1  0.4566540000000  0.4031260000000  0.5061880000000 1.0
C      1  0.5866440000000  0.5130160000000  0.5636680000000 1.0
C      1  0.4028470000000  0.5049230000000  0.5116680000000 1.0
C      1  0.4645860000000  0.5214430000000  0.3945320000000 1.0
C      1  0.4955550000000  0.5843110000000  0.5598230000000 1.0
C      1  0.4913590000000  0.4644610000000  0.4796650000000 1.0
C      1  0.5186350000000  0.4472200000000  0.4443370000000 1.0
C      1  0.5755620000000  0.4600750000000  0.5296330000000 1.0
C      1  0.5583580000000  0.4790780000000  0.4509850000000 1.0
C      1  0.5237170000000  0.3788080000000  0.3786610000000 1.0
C      1  0.4188720000000  0.4544030000000  0.5561340000000 1.0
C      1  0.4601640000000  0.5306340000000  0.5012610000000 1.0
C      1  0.4770420000000  0.4301040000000  0.4017680000000 1.0
C      1  0.4635950000000  0.4929950000000  0.4022910000000 1.0
C      1  0.5103570000000  0.4139620000000  0.4901370000000 1.0
C      1  0.5183390000000  0.6012750000000  0.5633420000000 1.0
C      1  0.5383680000000  0.5060430000000  0.4045450000000 1.0
C      1  0.5854260000000  0.5599600000000  0.5053520000000 1.0
C      1  0.4226110000000  0.5047440000000  0.4557120000000 1.0
C      1  0.4068000000000  0.4968800000000  0.5850750000000 1.0
END
