TITL C-612602-9376-1241 0.558223889975322 125000 -370.320422483545 0 0 61 (C1) n - 1
REM
REM in /home/nfs/bkarasulu/CARBON/AIRSS/Generating-Clusters/TERSOFF/Only-C1/FIRE-HFTN
REM
REM
REM
REM
REM
REM ./C.cell (11c1c37f851c82e70ff6c80c92926a4b)
REM AIRSS Version 0.9.1 bugfix July 2018 build 013d7b7c2542+ Fri, 06 Jul 2018 19:26:36 +0100
REM compiler GCC version 9.2.1 20190827 (Red Hat 9.2.1-1)
REM options -cpp -mtune=generic -march=x86-64 -g -O0 -fpre-include=/usr/include/finclude/math-vector-fortran.h
REM seed -1679916049 17952410 -837121475 -331929852 2056371549 1627633018 1887651636 1382262920 -335548124 -19227039 -1003576755 2999838 303221465 1581413234 -948720402 1012016951 -827534056 239377438 726440211 681691018 -1791053187 1920310414 2090758003 1531278129 -1047586959 1848236836 -2023823782 687211732 1024960279 -318925367 1075970497 726851563 -614683384
REM
CELL 1.54180   50.00000   50.00000   50.00000   90.00000   90.00000   90.00000
LATT -1
SFAC C  
C      1  0.4455950000000  0.4613490000000  0.5405520000000 1.0
C      1  0.4816240000000  0.5289940000000  0.6017100000000 1.0
C      1  0.5881830000000  0.5425620000000  0.5237830000000 1.0
C      1  0.4823540000000  0.5946690000000  0.3919430000000 1.0
C      1  0.5689690000000  0.5257450000000  0.4846210000000 1.0
C      1  0.4326650000000  0.5069510000000  0.4338000000000 1.0
C      1  0.5242810000000  0.5722760000000  0.5613960000000 1.0
C      1  0.4492630000000  0.5684250000000  0.5561010000000 1.0
C      1  0.5131870000000  0.5689520000000  0.5117330000000 1.0
C      1  0.5425440000000  0.4664550000000  0.4489400000000 1.0
C      1  0.5537480000000  0.4202360000000  0.4622890000000 1.0
C      1  0.4678000000000  0.5522210000000  0.4586700000000 1.0
C      1  0.4323710000000  0.5174500000000  0.4600700000000 1.0
C      1  0.5831400000000  0.3629120000000  0.5009670000000 1.0
C      1  0.4858950000000  0.4964970000000  0.4650290000000 1.0
C      1  0.5100130000000  0.5642130000000  0.5824930000000 1.0
C      1  0.5990640000000  0.5565080000000  0.5023720000000 1.0
C      1  0.5629760000000  0.3998680000000  0.4766840000000 1.0
C      1  0.5687350000000  0.5231790000000  0.5142040000000 1.0
C      1  0.4731130000000  0.5442690000000  0.5216000000000 1.0
C      1  0.4267610000000  0.4747350000000  0.5244910000000 1.0
C      1  0.5100600000000  0.4379190000000  0.4709290000000 1.0
C      1  0.4921170000000  0.4360360000000  0.4904740000000 1.0
C      1  0.4501550000000  0.4697630000000  0.5668850000000 1.0
C      1  0.4938300000000  0.4827660000000  0.4406570000000 1.0
C      1  0.4849340000000  0.5544470000000  0.5905170000000 1.0
C      1  0.5009760000000  0.5044230000000  0.5396640000000 1.0
C      1  0.4310560000000  0.5652150000000  0.5102330000000 1.0
C      1  0.4739210000000  0.4808260000000  0.4211300000000 1.0
C      1  0.5639140000000  0.4823420000000  0.4603130000000 1.0
C      1  0.5631120000000  0.3821500000000  0.4984090000000 1.0
C      1  0.5353610000000  0.4410590000000  0.4589370000000 1.0
C      1  0.4222470000000  0.4894330000000  0.5025520000000 1.0
C      1  0.4895560000000  0.5436830000000  0.4755320000000 1.0
C      1  0.5203530000000  0.3934990000000  0.5285100000000 1.0
C      1  0.4776020000000  0.5814100000000  0.4138800000000 1.0
C      1  0.5283760000000  0.5115150000000  0.4570970000000 1.0
C      1  0.5223470000000  0.4860600000000  0.4413860000000 1.0
C      1  0.5878830000000  0.5470200000000  0.4787890000000 1.0
C      1  0.4727630000000  0.5678020000000  0.4360870000000 1.0
C      1  0.5252960000000  0.5748650000000  0.5348340000000 1.0
C      1  0.6018550000000  0.3449330000000  0.5033600000000 1.0
C      1  0.4409140000000  0.5442530000000  0.4652570000000 1.0
C      1  0.5426890000000  0.3841760000000  0.5175120000000 1.0
C      1  0.4988540000000  0.4091900000000  0.5291360000000 1.0
C      1  0.4641770000000  0.4896060000000  0.4805500000000 1.0
C      1  0.4624330000000  0.4420490000000  0.5290100000000 1.0
C      1  0.5271720000000  0.5003050000000  0.5376260000000 1.0
C      1  0.4802840000000  0.5203130000000  0.5342640000000 1.0
C      1  0.4916190000000  0.5539480000000  0.5019010000000 1.0
C      1  0.5030220000000  0.5197560000000  0.4686750000000 1.0
C      1  0.4504810000000  0.5596650000000  0.5295900000000 1.0
C      1  0.5511690000000  0.5076070000000  0.5288720000000 1.0
C      1  0.4271800000000  0.5595790000000  0.4843660000000 1.0
C      1  0.5553310000000  0.5091080000000  0.4671830000000 1.0
C      1  0.4599870000000  0.4840680000000  0.5870240000000 1.0
C      1  0.4622500000000  0.5668480000000  0.5793650000000 1.0
C      1  0.4836960000000  0.4290450000000  0.5163400000000 1.0
C      1  0.4375430000000  0.4986580000000  0.4810920000000 1.0
C      1  0.4717960000000  0.5043360000000  0.5995750000000 1.0
C      1  0.4494040000000  0.4918630000000  0.4190370000000 1.0
END
