TITL C-612605-9286-1338 3.99222099520199e-06 125000 -782.69970273008 0 0 126 (C1) n - 1
REM
REM in /home/nfs/bkarasulu/CARBON/AIRSS/Generating-Clusters/TERSOFF/Only-C1/FIRE-HFTN
REM
REM
REM
REM
REM
REM ./C.cell (11c1c37f851c82e70ff6c80c92926a4b)
REM AIRSS Version 0.9.1 bugfix July 2018 build 013d7b7c2542+ Fri, 06 Jul 2018 19:26:36 +0100
REM compiler GCC version 9.2.1 20190827 (Red Hat 9.2.1-1)
REM options -cpp -mtune=generic -march=x86-64 -g -O0 -fpre-include=/usr/include/finclude/math-vector-fortran.h
REM seed -926304246 1584938596 -127704026 -797362024 -316107661 1816611498 -1313222136 605986504 -784659091 1780561698 -1169581550 970490599 189405004 -493633615 -1209546044 467162275 -2101132382 -1513534786 -356218853 -1043343813 1534133572 631564839 1159549260 1932953724 700493617 1354805183 -86839870 606462784 -1181113265 1169377422 503573365 710314084 -1238835497
REM
CELL 1.54180   50.00000   50.00000   50.00000   90.00000   90.00000   90.00000
LATT -1
SFAC C  
C      1  0.4345780000000  0.5385520000000  0.5562000000000 1.0
C      1  0.4931730000000  0.4675780000000  0.5366510000000 1.0
C      1  0.4543950000000  0.4311560000000  0.5796260000000 1.0
C      1  0.5292420000000  0.4145110000000  0.4698180000000 1.0
C      1  0.4454640000000  0.4882720000000  0.4009500000000 1.0
C      1  0.4816520000000  0.5567170000000  0.5836560000000 1.0
C      1  0.5543230000000  0.4657310000000  0.5143890000000 1.0
C      1  0.5377750000000  0.5050400000000  0.4517340000000 1.0
C      1  0.4243090000000  0.4413280000000  0.4760770000000 1.0
C      1  0.5316830000000  0.5035670000000  0.5922680000000 1.0
C      1  0.4857270000000  0.4045180000000  0.4897120000000 1.0
C      1  0.6244020000000  0.4835010000000  0.4759070000000 1.0
C      1  0.5769500000000  0.5366140000000  0.4937150000000 1.0
C      1  0.4630890000000  0.4214040000000  0.4423550000000 1.0
C      1  0.4210370000000  0.4818740000000  0.5368830000000 1.0
C      1  0.4843430000000  0.5152580000000  0.3940460000000 1.0
C      1  0.5680150000000  0.5647730000000  0.4552180000000 1.0
C      1  0.4477940000000  0.4542310000000  0.4859350000000 1.0
C      1  0.4240200000000  0.5744890000000  0.4585430000000 1.0
C      1  0.4691570000000  0.4934770000000  0.3828640000000 1.0
C      1  0.4337900000000  0.5132740000000  0.4116750000000 1.0
C      1  0.4531630000000  0.4070290000000  0.5311440000000 1.0
C      1  0.5422560000000  0.4829120000000  0.4685870000000 1.0
C      1  0.4717200000000  0.4100110000000  0.4654470000000 1.0
C      1  0.4524600000000  0.4642910000000  0.4184190000000 1.0
C      1  0.5220520000000  0.5281200000000  0.5142860000000 1.0
C      1  0.5501100000000  0.5130830000000  0.5725700000000 1.0
C      1  0.6101940000000  0.5311410000000  0.5618910000000 1.0
C      1  0.4967370000000  0.5739850000000  0.4047870000000 1.0
C      1  0.5178140000000  0.5520570000000  0.5280560000000 1.0
C      1  0.4836660000000  0.4954250000000  0.6024940000000 1.0
C      1  0.3855200000000  0.4734070000000  0.4989920000000 1.0
C      1  0.4357880000000  0.5046230000000  0.4688480000000 1.0
C      1  0.4574530000000  0.5374320000000  0.5395250000000 1.0
C      1  0.5263240000000  0.3869930000000  0.5098650000000 1.0
C      1  0.4369510000000  0.5187610000000  0.6021490000000 1.0
C      1  0.6285890000000  0.5505730000000  0.4938730000000 1.0
C      1  0.5141370000000  0.4590860000000  0.5952820000000 1.0
C      1  0.4874900000000  0.4670600000000  0.6004310000000 1.0
C      1  0.5105190000000  0.5975830000000  0.5734780000000 1.0
C      1  0.5315430000000  0.4497470000000  0.5086490000000 1.0
C      1  0.4607510000000  0.5572380000000  0.5196460000000 1.0
C      1  0.5411780000000  0.5560930000000  0.4146310000000 1.0
C      1  0.5517480000000  0.5055260000000  0.4270420000000 1.0
C      1  0.4959560000000  0.5798910000000  0.4526140000000 1.0
C      1  0.4746690000000  0.4894930000000  0.5433490000000 1.0
C      1  0.4313830000000  0.5191170000000  0.4925690000000 1.0
C      1  0.5496750000000  0.4321570000000  0.4260690000000 1.0
C      1  0.5502750000000  0.5294020000000  0.4121810000000 1.0
C      1  0.4257500000000  0.5747060000000  0.4866680000000 1.0
C      1  0.5058170000000  0.4649250000000  0.5114120000000 1.0
C      1  0.3821400000000  0.4453380000000  0.4974830000000 1.0
C      1  0.5111510000000  0.5250830000000  0.4886460000000 1.0
C      1  0.4109930000000  0.4943610000000  0.4593730000000 1.0
C      1  0.5138980000000  0.3966780000000  0.4860650000000 1.0
C      1  0.4405610000000  0.5388880000000  0.4246640000000 1.0
C      1  0.4617000000000  0.4941640000000  0.4624600000000 1.0
C      1  0.4809990000000  0.4705190000000  0.4250500000000 1.0
C      1  0.5042700000000  0.5121820000000  0.5907800000000 1.0
C      1  0.4781060000000  0.4108930000000  0.5178060000000 1.0
C      1  0.4268780000000  0.5313550000000  0.5808070000000 1.0
C      1  0.4789020000000  0.4960790000000  0.4390520000000 1.0
C      1  0.5365320000000  0.4771070000000  0.6021310000000 1.0
C      1  0.4441330000000  0.4404110000000  0.4316320000000 1.0
C      1  0.5560380000000  0.4727100000000  0.5421480000000 1.0
C      1  0.5620220000000  0.5585050000000  0.4828920000000 1.0
C      1  0.5579880000000  0.4565920000000  0.4184970000000 1.0
C      1  0.4243890000000  0.5581490000000  0.4371840000000 1.0
C      1  0.4056420000000  0.5594440000000  0.4997480000000 1.0
C      1  0.4957740000000  0.5327400000000  0.5701010000000 1.0
C      1  0.4501940000000  0.5738680000000  0.5011730000000 1.0
C      1  0.4308920000000  0.3961550000000  0.5183350000000 1.0
C      1  0.6294780000000  0.4872930000000  0.5017670000000 1.0
C      1  0.4666370000000  0.4489140000000  0.5954060000000 1.0
C      1  0.5396330000000  0.4142080000000  0.4435840000000 1.0
C      1  0.5091960000000  0.6130160000000  0.5494050000000 1.0
C      1  0.4821780000000  0.5999890000000  0.4651640000000 1.0
C      1  0.5181410000000  0.5482890000000  0.5560380000000 1.0
C      1  0.4999260000000  0.4176970000000  0.5361960000000 1.0
C      1  0.4212500000000  0.4414240000000  0.4479180000000 1.0
C      1  0.6293390000000  0.4976820000000  0.5262900000000 1.0
C      1  0.5502690000000  0.4549040000000  0.5637940000000 1.0
C      1  0.5882770000000  0.5423400000000  0.5722210000000 1.0
C      1  0.5230290000000  0.5757170000000  0.5128100000000 1.0
C      1  0.4471120000000  0.4818170000000  0.5425600000000 1.0
C      1  0.5403640000000  0.5588630000000  0.5711650000000 1.0
C      1  0.5009890000000  0.6390570000000  0.5496480000000 1.0
C      1  0.4963020000000  0.4695180000000  0.4846510000000 1.0
C      1  0.3896720000000  0.4866640000000  0.4742480000000 1.0
C      1  0.5218880000000  0.5673730000000  0.3975110000000 1.0
C      1  0.5951070000000  0.4842770000000  0.4322760000000 1.0
C      1  0.4879530000000  0.5831330000000  0.5831740000000 1.0
C      1  0.5306800000000  0.4397180000000  0.4816710000000 1.0
C      1  0.4590130000000  0.5061310000000  0.6103330000000 1.0
C      1  0.5190440000000  0.5225100000000  0.4630780000000 1.0
C      1  0.6045660000000  0.5405790000000  0.4957300000000 1.0
C      1  0.5213720000000  0.3990510000000  0.5338380000000 1.0
C      1  0.4689610000000  0.4720610000000  0.4792500000000 1.0
C      1  0.4971990000000  0.4623250000000  0.4029930000000 1.0
C      1  0.5456060000000  0.5151090000000  0.5229460000000 1.0
C      1  0.5352340000000  0.5715640000000  0.4871120000000 1.0
C      1  0.6235400000000  0.5138320000000  0.5466600000000 1.0
C      1  0.5168190000000  0.6000730000000  0.5253730000000 1.0
C      1  0.5511980000000  0.5007110000000  0.5468520000000 1.0
C      1  0.4100280000000  0.4046720000000  0.5040740000000 1.0
C      1  0.4830540000000  0.5193570000000  0.4224870000000 1.0
C      1  0.3985450000000  0.4823410000000  0.5224050000000 1.0
C      1  0.5647930000000  0.5121510000000  0.5017530000000 1.0
C      1  0.5596590000000  0.4639340000000  0.5901100000000 1.0
C      1  0.5356600000000  0.5852880000000  0.5795700000000 1.0
C      1  0.5596940000000  0.4851260000000  0.4922550000000 1.0
C      1  0.5442520000000  0.5688060000000  0.4398530000000 1.0
C      1  0.5686520000000  0.4825920000000  0.4226680000000 1.0
C      1  0.5208290000000  0.4637050000000  0.4685720000000 1.0
C      1  0.4689550000000  0.5431050000000  0.4288200000000 1.0
C      1  0.5606220000000  0.5396260000000  0.5748670000000 1.0
C      1  0.4868130000000  0.4710160000000  0.3789530000000 1.0
C      1  0.4779720000000  0.5187150000000  0.5488260000000 1.0
C      1  0.4843540000000  0.5671330000000  0.4294900000000 1.0
C      1  0.5020610000000  0.4429350000000  0.5502170000000 1.0
C      1  0.5220440000000  0.4470220000000  0.5698190000000 1.0
C      1  0.4502790000000  0.4166650000000  0.5575820000000 1.0
C      1  0.4113130000000  0.5333290000000  0.5037290000000 1.0
C      1  0.6133210000000  0.4838080000000  0.4517050000000 1.0
C      1  0.4040750000000  0.4288030000000  0.4915680000000 1.0
C      1  0.5232410000000  0.5750740000000  0.4598130000000 1.0
END
