TITL C-612607-4507-716 -0.00160259052602263 125000 -561.048686180531 0 0 91 (C1) n - 1
REM
REM in /home/nfs/bkarasulu/CARBON/AIRSS/Generating-Clusters/TERSOFF/Only-C1/FIRE-HFTN
REM
REM
REM
REM
REM
REM ./C.cell (11c1c37f851c82e70ff6c80c92926a4b)
REM AIRSS Version 0.9.1 bugfix July 2018 build 013d7b7c2542+ Fri, 06 Jul 2018 19:26:36 +0100
REM compiler GCC version 9.2.1 20190827 (Red Hat 9.2.1-1)
REM options -cpp -mtune=generic -march=x86-64 -g -O0 -fpre-include=/usr/include/finclude/math-vector-fortran.h
REM seed 1007245611 -957599589 912143283 -2015012426 138354222 445253857 -920660020 2015912708 458969495 -661079661 239330148 1941787184 -1421688671 -814733632 1873860541 -1232672119 -482554943 1694296215 1954866729 -1727276230 283295865 -222312623 166052977 50940882 1462506596 549285509 1925155910 1724125249 1469007251 127185372 782075269 384270738 -1689319274
REM
CELL 1.54180   50.00000   50.00000   50.00000   90.00000   90.00000   90.00000
LATT -1
SFAC C  
C      1  0.5370010000000  0.5451400000000  0.4481140000000 1.0
C      1  0.5257180000000  0.6074270000000  0.5449720000000 1.0
C      1  0.4444640000000  0.5387900000000  0.5474520000000 1.0
C      1  0.4687270000000  0.5548620000000  0.4640890000000 1.0
C      1  0.4645880000000  0.5028230000000  0.4135150000000 1.0
C      1  0.4662330000000  0.4567470000000  0.4659140000000 1.0
C      1  0.5060560000000  0.4674830000000  0.5367290000000 1.0
C      1  0.5283720000000  0.5180390000000  0.4524430000000 1.0
C      1  0.4185050000000  0.4567880000000  0.4615940000000 1.0
C      1  0.4623350000000  0.4059660000000  0.4608070000000 1.0
C      1  0.5171400000000  0.5054670000000  0.5650270000000 1.0
C      1  0.4746790000000  0.4842400000000  0.5042910000000 1.0
C      1  0.5678170000000  0.4931620000000  0.4766560000000 1.0
C      1  0.4657000000000  0.5572900000000  0.5512100000000 1.0
C      1  0.5121130000000  0.4938330000000  0.5395850000000 1.0
C      1  0.5597380000000  0.4766550000000  0.5227020000000 1.0
C      1  0.5155210000000  0.5105760000000  0.5181870000000 1.0
C      1  0.4548030000000  0.5143400000000  0.5381530000000 1.0
C      1  0.4755510000000  0.5293020000000  0.4524050000000 1.0
C      1  0.4386680000000  0.4398080000000  0.5151190000000 1.0
C      1  0.4177440000000  0.5439390000000  0.5525380000000 1.0
C      1  0.5774190000000  0.5395250000000  0.5366960000000 1.0
C      1  0.5470470000000  0.5062540000000  0.5632490000000 1.0
C      1  0.4305070000000  0.4386160000000  0.4845190000000 1.0
C      1  0.4323910000000  0.4643150000000  0.5312990000000 1.0
C      1  0.5933730000000  0.4840010000000  0.4708000000000 1.0
C      1  0.4972480000000  0.4844410000000  0.4454380000000 1.0
C      1  0.4881730000000  0.5156360000000  0.4023100000000 1.0
C      1  0.5410130000000  0.4276660000000  0.5012200000000 1.0
C      1  0.5582170000000  0.3869190000000  0.4723630000000 1.0
C      1  0.5588860000000  0.4980750000000  0.5032710000000 1.0
C      1  0.5360270000000  0.6312130000000  0.5476330000000 1.0
C      1  0.4477080000000  0.5570060000000  0.4836530000000 1.0
C      1  0.5560940000000  0.4801920000000  0.5518130000000 1.0
C      1  0.4707290000000  0.5109600000000  0.5147580000000 1.0
C      1  0.5134930000000  0.5826660000000  0.5425670000000 1.0
C      1  0.4564510000000  0.4776110000000  0.4841850000000 1.0
C      1  0.5057950000000  0.5528060000000  0.5045690000000 1.0
C      1  0.4487240000000  0.4708580000000  0.5557450000000 1.0
C      1  0.5480020000000  0.5549310000000  0.4737900000000 1.0
C      1  0.4903200000000  0.4628520000000  0.5143020000000 1.0
C      1  0.5846410000000  0.5864680000000  0.5274960000000 1.0
C      1  0.6008820000000  0.5238630000000  0.5371790000000 1.0
C      1  0.5539510000000  0.4505040000000  0.5121430000000 1.0
C      1  0.5452630000000  0.3697740000000  0.4566380000000 1.0
C      1  0.4262160000000  0.5389360000000  0.4818230000000 1.0
C      1  0.4953440000000  0.5906160000000  0.4360990000000 1.0
C      1  0.4766470000000  0.4660530000000  0.4417130000000 1.0
C      1  0.4645050000000  0.4267650000000  0.5244340000000 1.0
C      1  0.5127400000000  0.4235080000000  0.5018960000000 1.0
C      1  0.4628200000000  0.4969710000000  0.5592060000000 1.0
C      1  0.5393870000000  0.5186330000000  0.5058590000000 1.0
C      1  0.5215210000000  0.3632090000000  0.4465210000000 1.0
C      1  0.4198090000000  0.4841370000000  0.5153190000000 1.0
C      1  0.5142920000000  0.5621610000000  0.5627710000000 1.0
C      1  0.4554400000000  0.4308230000000  0.4705160000000 1.0
C      1  0.4784670000000  0.5787820000000  0.4531030000000 1.0
C      1  0.5155800000000  0.5802230000000  0.4217550000000 1.0
C      1  0.6175420000000  0.4750910000000  0.4668570000000 1.0
C      1  0.3922280000000  0.5482270000000  0.5556300000000 1.0
C      1  0.4879230000000  0.4349020000000  0.5087980000000 1.0
C      1  0.4715390000000  0.4273060000000  0.5533670000000 1.0
C      1  0.4296660000000  0.4768420000000  0.4398340000000 1.0
C      1  0.4893050000000  0.5465550000000  0.5659910000000 1.0
C      1  0.4560220000000  0.4752870000000  0.4233770000000 1.0
C      1  0.4309100000000  0.4909110000000  0.4902420000000 1.0
C      1  0.6223060000000  0.5090440000000  0.5364550000000 1.0
C      1  0.5171800000000  0.4484200000000  0.5549790000000 1.0
C      1  0.4299880000000  0.5060900000000  0.4465360000000 1.0
C      1  0.5085530000000  0.5337100000000  0.4072240000000 1.0
C      1  0.4908380000000  0.5168490000000  0.5713960000000 1.0
C      1  0.4932210000000  0.5272320000000  0.5109990000000 1.0
C      1  0.4699180000000  0.5736190000000  0.5276410000000 1.0
C      1  0.5431210000000  0.4567870000000  0.5637500000000 1.0
C      1  0.5777090000000  0.5616910000000  0.5172800000000 1.0
C      1  0.4750560000000  0.3849520000000  0.4508040000000 1.0
C      1  0.5572340000000  0.5327920000000  0.5569800000000 1.0
C      1  0.5564330000000  0.4080640000000  0.4884000000000 1.0
C      1  0.5317630000000  0.5449570000000  0.4951620000000 1.0
C      1  0.4995720000000  0.4267470000000  0.5601990000000 1.0
C      1  0.4238400000000  0.5123110000000  0.4733930000000 1.0
C      1  0.4515450000000  0.5732520000000  0.5063310000000 1.0
C      1  0.5403930000000  0.5528150000000  0.5679430000000 1.0
C      1  0.5004330000000  0.5119110000000  0.4523990000000 1.0
C      1  0.5239830000000  0.5533200000000  0.4230350000000 1.0
C      1  0.4975340000000  0.5747970000000  0.5205150000000 1.0
C      1  0.5723150000000  0.5609630000000  0.4884980000000 1.0
C      1  0.4570200000000  0.4467910000000  0.5683740000000 1.0
C      1  0.4956630000000  0.3692530000000  0.4449250000000 1.0
C      1  0.5487430000000  0.4991650000000  0.4568850000000 1.0
C      1  0.4539070000000  0.5187020000000  0.4356520000000 1.0
END
