TITL C-612605-9286-856 43.7217600135681 125000 -800.446294673553 0 0 130 (C1) n - 1
REM
REM in /home/nfs/bkarasulu/CARBON/AIRSS/Generating-Clusters/TERSOFF/Only-C1/FIRE-HFTN
REM
REM
REM
REM
REM
REM ./C.cell (11c1c37f851c82e70ff6c80c92926a4b)
REM AIRSS Version 0.9.1 bugfix July 2018 build 013d7b7c2542+ Fri, 06 Jul 2018 19:26:36 +0100
REM compiler GCC version 9.2.1 20190827 (Red Hat 9.2.1-1)
REM options -cpp -mtune=generic -march=x86-64 -g -O0 -fpre-include=/usr/include/finclude/math-vector-fortran.h
REM seed -80803562 -1983191818 -259799034 -1035826917 315379411 -2037291078 2131823539 722336488 1718666508 647174016 1282221888 505861126 1987915293 -90403467 2089873699 560101378 -171012784 2036513384 -1729693255 -1059224214 661683452 -1412800847 1105762021 -1430181402 1831679519 520767652 314417013 -1419308782 -1911488188 -1246927406 -948682273 227187682 -1832386760
REM
CELL 1.54180   50.00000   50.00000   50.00000   90.00000   90.00000   90.00000
LATT -1
SFAC C  
C      1  0.4308750000000  0.5650640000000  0.5454330000000 1.0
C      1  0.5272190000000  0.5905790000000  0.5493320000000 1.0
C      1  0.5386310000000  0.6177780000000  0.5141210000000 1.0
C      1  0.4635020000000  0.4811450000000  0.5671050000000 1.0
C      1  0.5145280000000  0.5426970000000  0.4339280000000 1.0
C      1  0.5331960000000  0.4402120000000  0.4211680000000 1.0
C      1  0.5214850000000  0.5751770000000  0.5243300000000 1.0
C      1  0.5791290000000  0.4887970000000  0.5011580000000 1.0
C      1  0.4995370000000  0.4306720000000  0.4881210000000 1.0
C      1  0.6116480000000  0.5390050000000  0.5440660000000 1.0
C      1  0.5757510000000  0.5414030000000  0.4346610000000 1.0
C      1  0.4228810000000  0.4429610000000  0.5165190000000 1.0
C      1  0.5368000000000  0.5512650000000  0.6046470000000 1.0
C      1  0.5328340000000  0.6248640000000  0.4415770000000 1.0
C      1  0.4933500000000  0.5986700000000  0.4478960000000 1.0
C      1  0.4191270000000  0.4964780000000  0.4775720000000 1.0
C      1  0.4149190000000  0.4845840000000  0.5709010000000 1.0
C      1  0.5204830000000  0.6039810000000  0.4545980000000 1.0
C      1  0.5456740000000  0.4812410000000  0.5345260000000 1.0
C      1  0.4566700000000  0.5488320000000  0.4095100000000 1.0
C      1  0.4379820000000  0.4487710000000  0.4249740000000 1.0
C      1  0.4809070000000  0.4773330000000  0.5430130000000 1.0
C      1  0.5430610000000  0.4039520000000  0.5166930000000 1.0
C      1  0.5164530000000  0.4300130000000  0.4421300000000 1.0
C      1  0.4499490000000  0.5768820000000  0.4533390000000 1.0
C      1  0.4763700000000  0.4707220000000  0.4905490000000 1.0
C      1  0.4361980000000  0.5413660000000  0.5593130000000 1.0
C      1  0.5421750000000  0.4062780000000  0.4870940000000 1.0
C      1  0.4227490000000  0.4663540000000  0.4413670000000 1.0
C      1  0.5291760000000  0.4807140000000  0.5955840000000 1.0
C      1  0.5967450000000  0.4450390000000  0.5019450000000 1.0
C      1  0.4657810000000  0.4439830000000  0.4293210000000 1.0
C      1  0.5989870000000  0.5159210000000  0.5349960000000 1.0
C      1  0.4702470000000  0.5865840000000  0.4363300000000 1.0
C      1  0.4086800000000  0.4220060000000  0.5581760000000 1.0
C      1  0.4460530000000  0.5722150000000  0.4997410000000 1.0
C      1  0.5256520000000  0.4660350000000  0.5423040000000 1.0
C      1  0.4859380000000  0.4970190000000  0.4815380000000 1.0
C      1  0.4993210000000  0.5573330000000  0.5268000000000 1.0
C      1  0.3781660000000  0.5137360000000  0.4603700000000 1.0
C      1  0.4979070000000  0.5090490000000  0.5437550000000 1.0
C      1  0.5533400000000  0.4657950000000  0.5939240000000 1.0
C      1  0.4717060000000  0.5319750000000  0.5958370000000 1.0
C      1  0.4884290000000  0.4416500000000  0.4461470000000 1.0
C      1  0.4897380000000  0.4299050000000  0.5372780000000 1.0
C      1  0.4338020000000  0.4903760000000  0.4533420000000 1.0
C      1  0.5559980000000  0.5228670000000  0.4730780000000 1.0
C      1  0.4594570000000  0.5639900000000  0.4765500000000 1.0
C      1  0.5702900000000  0.5171560000000  0.4486070000000 1.0
C      1  0.4762190000000  0.5213270000000  0.4991730000000 1.0
C      1  0.5149670000000  0.5172730000000  0.4209470000000 1.0
C      1  0.4719470000000  0.5727160000000  0.4112700000000 1.0
C      1  0.4776340000000  0.4048140000000  0.5372640000000 1.0
C      1  0.5684100000000  0.4534100000000  0.5728060000000 1.0
C      1  0.5842250000000  0.4296380000000  0.5201190000000 1.0
C      1  0.5360120000000  0.5896400000000  0.4742000000000 1.0
C      1  0.5980950000000  0.4924190000000  0.5511090000000 1.0
C      1  0.5314900000000  0.4745620000000  0.4911850000000 1.0
C      1  0.4726680000000  0.5057150000000  0.6071960000000 1.0
C      1  0.4499250000000  0.5263770000000  0.4226920000000 1.0
C      1  0.4219850000000  0.5798330000000  0.4480790000000 1.0
C      1  0.5608060000000  0.4475280000000  0.4271420000000 1.0
C      1  0.5889190000000  0.4694270000000  0.5616410000000 1.0
C      1  0.5862860000000  0.5150500000000  0.5094580000000 1.0
C      1  0.5230400000000  0.3878830000000  0.5295930000000 1.0
C      1  0.4815200000000  0.5449670000000  0.4777470000000 1.0
C      1  0.5544610000000  0.4305730000000  0.5605200000000 1.0
C      1  0.5640240000000  0.4765470000000  0.4195740000000 1.0
C      1  0.5064470000000  0.4442560000000  0.5771420000000 1.0
C      1  0.5888480000000  0.4689570000000  0.4590500000000 1.0
C      1  0.4986300000000  0.4980700000000  0.4327490000000 1.0
C      1  0.4918670000000  0.4037450000000  0.4840880000000 1.0
C      1  0.5300200000000  0.5928790000000  0.5017220000000 1.0
C      1  0.5772940000000  0.4904320000000  0.4415920000000 1.0
C      1  0.4825980000000  0.4486830000000  0.4739580000000 1.0
C      1  0.4763120000000  0.5717810000000  0.5349330000000 1.0
C      1  0.5090660000000  0.5177120000000  0.5687890000000 1.0
C      1  0.4944790000000  0.5285450000000  0.5232670000000 1.0
C      1  0.4885150000000  0.3813050000000  0.4985610000000 1.0
C      1  0.4996830000000  0.4544470000000  0.5490640000000 1.0
C      1  0.3932040000000  0.4419230000000  0.4725740000000 1.0
C      1  0.3858720000000  0.5388610000000  0.4545020000000 1.0
C      1  0.5161710000000  0.4968340000000  0.4823550000000 1.0
C      1  0.5697090000000  0.5665610000000  0.4433540000000 1.0
C      1  0.4495430000000  0.4061070000000  0.5377270000000 1.0
C      1  0.5261440000000  0.4589850000000  0.4002130000000 1.0
C      1  0.4532710000000  0.5067500000000  0.4426520000000 1.0
C      1  0.3918630000000  0.4905990000000  0.4683630000000 1.0
C      1  0.4947550000000  0.3847060000000  0.5259270000000 1.0
C      1  0.4496870000000  0.5744960000000  0.5270490000000 1.0
C      1  0.4273410000000  0.4236680000000  0.5373800000000 1.0
C      1  0.4299040000000  0.4941440000000  0.5033120000000 1.0
C      1  0.5179110000000  0.5640020000000  0.4158470000000 1.0
C      1  0.5140170000000  0.5608310000000  0.5905870000000 1.0
C      1  0.5458080000000  0.5262230000000  0.5994950000000 1.0
C      1  0.5725840000000  0.5346540000000  0.4939240000000 1.0
C      1  0.5806450000000  0.4438120000000  0.4471220000000 1.0
C      1  0.5220020000000  0.4478020000000  0.4940520000000 1.0
C      1  0.4476720000000  0.5419880000000  0.5851420000000 1.0
C      1  0.5302160000000  0.5070270000000  0.5855380000000 1.0
C      1  0.5289690000000  0.4260250000000  0.5741760000000 1.0
C      1  0.4979300000000  0.5736690000000  0.4003430000000 1.0
C      1  0.4456470000000  0.5147650000000  0.5155430000000 1.0
C      1  0.5084730000000  0.5410120000000  0.4627130000000 1.0
C      1  0.5607880000000  0.4203360000000  0.5334180000000 1.0
C      1  0.4255810000000  0.4359930000000  0.4041050000000 1.0
C      1  0.5930530000000  0.4689210000000  0.4870130000000 1.0
C      1  0.4046450000000  0.4360420000000  0.4961190000000 1.0
C      1  0.4960230000000  0.5397540000000  0.5831670000000 1.0
C      1  0.3910710000000  0.4195550000000  0.5772310000000 1.0
C      1  0.4655590000000  0.4695240000000  0.5170080000000 1.0
C      1  0.4387050000000  0.4936190000000  0.5609150000000 1.0
C      1  0.4780900000000  0.4819060000000  0.5924390000000 1.0
C      1  0.5319440000000  0.5083510000000  0.4006590000000 1.0
C      1  0.4125850000000  0.6042530000000  0.4398050000000 1.0
C      1  0.5608700000000  0.5761010000000  0.4687200000000 1.0
C      1  0.5176620000000  0.5830810000000  0.5742650000000 1.0
C      1  0.4400230000000  0.5173690000000  0.5441870000000 1.0
C      1  0.4365910000000  0.4679390000000  0.5148890000000 1.0
C      1  0.5317030000000  0.4138130000000  0.4623790000000 1.0
C      1  0.3965000000000  0.4641140000000  0.4554690000000 1.0
C      1  0.5735460000000  0.5627080000000  0.4909690000000 1.0
C      1  0.5276430000000  0.5219180000000  0.4750120000000 1.0
C      1  0.5429770000000  0.4827710000000  0.4008860000000 1.0
C      1  0.5530030000000  0.4817540000000  0.5079600000000 1.0
C      1  0.6221670000000  0.5614320000000  0.5521620000000 1.0
C      1  0.5378610000000  0.6159500000000  0.5415300000000 1.0
C      1  0.5036080000000  0.4672220000000  0.5942890000000 1.0
C      1  0.4036390000000  0.5586240000000  0.4514170000000 1.0
C      1  0.4789390000000  0.5005740000000  0.4522050000000 1.0
END
