TITL C-612600-6631-69 5.84336685259734e-05 125000 -1156.77754511678 0 0 188 (C1) n - 1
REM
REM in /home/nfs/bkarasulu/CARBON/AIRSS/Generating-Clusters/TERSOFF/Only-C1/FIRE-HFTN
REM
REM
REM
REM
REM
REM ./C.cell (11c1c37f851c82e70ff6c80c92926a4b)
REM AIRSS Version 0.9.1 bugfix July 2018 build 013d7b7c2542+ Fri, 06 Jul 2018 19:26:36 +0100
REM compiler GCC version 9.2.1 20190827 (Red Hat 9.2.1-1)
REM options -cpp -mtune=generic -march=x86-64 -g -O0 -fpre-include=/usr/include/finclude/math-vector-fortran.h
REM seed 1530848610 -1890776655 -410986630 1462684568 2098445600 4172053 -726955842 -349617774 875238144 -1081663413 689394116 -638209582 -212777766 -378230172 1340737795 1338031371 -156173948 -789813675 1014004428 819355289 -1392887895 1429533753 1261082650 2096565017 1114531557 471094457 2128111735 -1062463545 319556432 -1345593657 424687932 -1143953037 772357993
REM
CELL 1.54180   50.00000   50.00000   50.00000   90.00000   90.00000   90.00000
LATT -1
SFAC C  
C      1  0.4663270000000  0.4628940000000  0.4477230000000 1.0
C      1  0.5260090000000  0.5155450000000  0.5044350000000 1.0
C      1  0.4440960000000  0.5319960000000  0.6034970000000 1.0
C      1  0.5683310000000  0.4237860000000  0.4431960000000 1.0
C      1  0.3776510000000  0.4513520000000  0.4594750000000 1.0
C      1  0.4916800000000  0.5423810000000  0.6017720000000 1.0
C      1  0.5756300000000  0.5141810000000  0.4163850000000 1.0
C      1  0.4545310000000  0.5689790000000  0.5732220000000 1.0
C      1  0.4999880000000  0.4305200000000  0.4772480000000 1.0
C      1  0.4276170000000  0.4373200000000  0.4655560000000 1.0
C      1  0.4301160000000  0.5347070000000  0.4255600000000 1.0
C      1  0.4977070000000  0.5845510000000  0.5381050000000 1.0
C      1  0.5290980000000  0.4975020000000  0.4821250000000 1.0
C      1  0.5573110000000  0.4583160000000  0.4133080000000 1.0
C      1  0.4042380000000  0.5603000000000  0.5444850000000 1.0
C      1  0.5399810000000  0.4379950000000  0.5382320000000 1.0
C      1  0.5485720000000  0.5971530000000  0.4484150000000 1.0
C      1  0.4232960000000  0.4153160000000  0.4054980000000 1.0
C      1  0.5490140000000  0.5349910000000  0.5146440000000 1.0
C      1  0.4211580000000  0.4618550000000  0.5130020000000 1.0
C      1  0.6210190000000  0.5124310000000  0.4650170000000 1.0
C      1  0.4953800000000  0.5587880000000  0.3962470000000 1.0
C      1  0.5259330000000  0.6033180000000  0.4961540000000 1.0
C      1  0.4222890000000  0.4836450000000  0.4521020000000 1.0
C      1  0.4493140000000  0.5212450000000  0.5497460000000 1.0
C      1  0.5529710000000  0.5999920000000  0.4202750000000 1.0
C      1  0.4743130000000  0.4655330000000  0.5205090000000 1.0
C      1  0.5683790000000  0.5866020000000  0.5227680000000 1.0
C      1  0.5945380000000  0.4861540000000  0.5429050000000 1.0
C      1  0.5283790000000  0.5730600000000  0.6070300000000 1.0
C      1  0.4359540000000  0.5065180000000  0.6074470000000 1.0
C      1  0.5310130000000  0.3897160000000  0.5037860000000 1.0
C      1  0.4822830000000  0.3950860000000  0.5014460000000 1.0
C      1  0.4265030000000  0.4975360000000  0.4763430000000 1.0
C      1  0.4687420000000  0.4732260000000  0.6215980000000 1.0
C      1  0.4925020000000  0.4857150000000  0.3648670000000 1.0
C      1  0.4600990000000  0.5064710000000  0.3970920000000 1.0
C      1  0.4044670000000  0.5797500000000  0.4751810000000 1.0
C      1  0.6338860000000  0.5069120000000  0.5152810000000 1.0
C      1  0.5089250000000  0.6547520000000  0.5159670000000 1.0
C      1  0.4791630000000  0.5065180000000  0.3757060000000 1.0
C      1  0.5322540000000  0.4991540000000  0.4388350000000 1.0
C      1  0.4986640000000  0.5281740000000  0.5025650000000 1.0
C      1  0.4173220000000  0.4675320000000  0.5626000000000 1.0
C      1  0.5659500000000  0.6304290000000  0.5022400000000 1.0
C      1  0.5573230000000  0.5801270000000  0.4018390000000 1.0
C      1  0.4734140000000  0.5778490000000  0.4361820000000 1.0
C      1  0.4642200000000  0.5502710000000  0.5934040000000 1.0
C      1  0.4719210000000  0.5095720000000  0.5625750000000 1.0
C      1  0.4520170000000  0.4780270000000  0.4029920000000 1.0
C      1  0.4368850000000  0.4629440000000  0.5834470000000 1.0
C      1  0.4751060000000  0.5709080000000  0.4877570000000 1.0
C      1  0.4631080000000  0.4847720000000  0.5047120000000 1.0
C      1  0.5994750000000  0.4224160000000  0.4757230000000 1.0
C      1  0.5386560000000  0.5487560000000  0.5405470000000 1.0
C      1  0.6277940000000  0.5208000000000  0.5397910000000 1.0
C      1  0.3797080000000  0.5145380000000  0.5227610000000 1.0
C      1  0.6060800000000  0.4379490000000  0.5324200000000 1.0
C      1  0.5198440000000  0.5528510000000  0.4087070000000 1.0
C      1  0.5245910000000  0.4275560000000  0.6032990000000 1.0
C      1  0.5210030000000  0.4534850000000  0.6150710000000 1.0
C      1  0.5601830000000  0.4596990000000  0.5045580000000 1.0
C      1  0.4861470000000  0.5060660000000  0.4442950000000 1.0
C      1  0.3930290000000  0.5333070000000  0.5427250000000 1.0
C      1  0.5187440000000  0.3931160000000  0.5337390000000 1.0
C      1  0.5130430000000  0.5575490000000  0.4610170000000 1.0
C      1  0.5071100000000  0.4923780000000  0.5929790000000 1.0
C      1  0.3748890000000  0.4797050000000  0.4545820000000 1.0
C      1  0.6348210000000  0.5193110000000  0.4893010000000 1.0
C      1  0.5889840000000  0.4403540000000  0.4559840000000 1.0
C      1  0.4649510000000  0.5181670000000  0.4569070000000 1.0
C      1  0.5149610000000  0.4451840000000  0.5260690000000 1.0
C      1  0.5849610000000  0.4227990000000  0.5205280000000 1.0
C      1  0.4948360000000  0.5509550000000  0.4833630000000 1.0
C      1  0.3970840000000  0.4870470000000  0.5585740000000 1.0
C      1  0.4242480000000  0.5704280000000  0.4571540000000 1.0
C      1  0.5550970000000  0.4006770000000  0.4875270000000 1.0
C      1  0.5051360000000  0.6057570000000  0.5183470000000 1.0
C      1  0.5780850000000  0.4980260000000  0.5233900000000 1.0
C      1  0.5551290000000  0.4823870000000  0.5196190000000 1.0
C      1  0.4838940000000  0.4418940000000  0.3899650000000 1.0
C      1  0.5539620000000  0.6050430000000  0.5063660000000 1.0
C      1  0.5498120000000  0.4384830000000  0.5647110000000 1.0
C      1  0.4543120000000  0.4226680000000  0.5581460000000 1.0
C      1  0.5181350000000  0.5518690000000  0.5921240000000 1.0
C      1  0.6001150000000  0.4900560000000  0.4686030000000 1.0
C      1  0.3707870000000  0.5144830000000  0.4957050000000 1.0
C      1  0.3969130000000  0.4529110000000  0.5016440000000 1.0
C      1  0.4087550000000  0.5884650000000  0.5017410000000 1.0
C      1  0.4789900000000  0.3891850000000  0.4406660000000 1.0
C      1  0.4754600000000  0.4045710000000  0.5545090000000 1.0
C      1  0.3758240000000  0.4644530000000  0.5171160000000 1.0
C      1  0.4310630000000  0.4244850000000  0.5425700000000 1.0
C      1  0.4349180000000  0.5991470000000  0.5038440000000 1.0
C      1  0.4842110000000  0.4495110000000  0.6180000000000 1.0
C      1  0.5094800000000  0.4910010000000  0.5419300000000 1.0
C      1  0.6061250000000  0.5261750000000  0.5591540000000 1.0
C      1  0.3996010000000  0.4415820000000  0.4755270000000 1.0
C      1  0.3803110000000  0.4869970000000  0.5342200000000 1.0
C      1  0.5834580000000  0.4085650000000  0.4954770000000 1.0
C      1  0.5227870000000  0.6026940000000  0.4643310000000 1.0
C      1  0.5800320000000  0.5568190000000  0.4436950000000 1.0
C      1  0.4814780000000  0.4977320000000  0.6311880000000 1.0
C      1  0.5683060000000  0.4578520000000  0.5738250000000 1.0
C      1  0.5303020000000  0.4540200000000  0.4228250000000 1.0
C      1  0.5156700000000  0.5440100000000  0.4351130000000 1.0
C      1  0.5118200000000  0.4475910000000  0.4965140000000 1.0
C      1  0.4891550000000  0.4776150000000  0.4419410000000 1.0
C      1  0.4389110000000  0.5246380000000  0.4728780000000 1.0
C      1  0.3659650000000  0.4988250000000  0.4739670000000 1.0
C      1  0.4949820000000  0.5150470000000  0.5474360000000 1.0
C      1  0.5215920000000  0.3996470000000  0.5638750000000 1.0
C      1  0.4720180000000  0.5575940000000  0.4129960000000 1.0
C      1  0.4814820000000  0.4624000000000  0.5667720000000 1.0
C      1  0.5600400000000  0.5276950000000  0.3956520000000 1.0
C      1  0.5177500000000  0.4159700000000  0.4541510000000 1.0
C      1  0.5542340000000  0.4905650000000  0.6036630000000 1.0
C      1  0.4500830000000  0.5286340000000  0.5009360000000 1.0
C      1  0.5002650000000  0.4233850000000  0.4038760000000 1.0
C      1  0.4255580000000  0.5424330000000  0.4527100000000 1.0
C      1  0.4473850000000  0.5843230000000  0.4472300000000 1.0
C      1  0.5568390000000  0.6556480000000  0.5034220000000 1.0
C      1  0.4958100000000  0.4633970000000  0.5406000000000 1.0
C      1  0.6169420000000  0.5267230000000  0.4413510000000 1.0
C      1  0.5577130000000  0.5156020000000  0.3710320000000 1.0
C      1  0.5107840000000  0.5175920000000  0.4372460000000 1.0
C      1  0.4505080000000  0.4186940000000  0.4661800000000 1.0
C      1  0.4937680000000  0.6319930000000  0.5224410000000 1.0
C      1  0.5751800000000  0.4800510000000  0.4237900000000 1.0
C      1  0.4935450000000  0.4593640000000  0.3701460000000 1.0
C      1  0.5911160000000  0.5332320000000  0.4321750000000 1.0
C      1  0.5009440000000  0.5850910000000  0.4521980000000 1.0
C      1  0.5410380000000  0.5579790000000  0.4715110000000 1.0
C      1  0.4689610000000  0.6352400000000  0.5335540000000 1.0
C      1  0.4252820000000  0.5671170000000  0.5647320000000 1.0
C      1  0.4172030000000  0.4032060000000  0.5328730000000 1.0
C      1  0.5168840000000  0.4288310000000  0.4260260000000 1.0
C      1  0.4470460000000  0.4246680000000  0.4162560000000 1.0
C      1  0.4710630000000  0.5775450000000  0.5503990000000 1.0
C      1  0.4734840000000  0.4174840000000  0.4844360000000 1.0
C      1  0.5178200000000  0.4724570000000  0.4852740000000 1.0
C      1  0.5926810000000  0.5006680000000  0.5678140000000 1.0
C      1  0.5309190000000  0.4946840000000  0.5257960000000 1.0
C      1  0.4541930000000  0.5331020000000  0.4100610000000 1.0
C      1  0.4589250000000  0.4467670000000  0.5729820000000 1.0
C      1  0.6155670000000  0.4724630000000  0.4877080000000 1.0
C      1  0.4941540000000  0.4038660000000  0.5765350000000 1.0
C      1  0.5033790000000  0.3885290000000  0.4565580000000 1.0
C      1  0.5679180000000  0.4315720000000  0.4158490000000 1.0
C      1  0.5173180000000  0.4746450000000  0.4349740000000 1.0
C      1  0.4953580000000  0.4203360000000  0.6008930000000 1.0
C      1  0.5933040000000  0.5514590000000  0.5549980000000 1.0
C      1  0.5381020000000  0.4181960000000  0.5800170000000 1.0
C      1  0.5358210000000  0.5436210000000  0.5698310000000 1.0
C      1  0.4907450000000  0.5222030000000  0.6229790000000 1.0
C      1  0.5901770000000  0.4696170000000  0.4475780000000 1.0
C      1  0.5738730000000  0.4845370000000  0.5840570000000 1.0
C      1  0.3975780000000  0.4880300000000  0.4395190000000 1.0
C      1  0.5281000000000  0.4793820000000  0.6065950000000 1.0
C      1  0.4735980000000  0.5107870000000  0.5009350000000 1.0
C      1  0.4355010000000  0.4817130000000  0.4988260000000 1.0
C      1  0.4438490000000  0.4789990000000  0.6064960000000 1.0
C      1  0.4467860000000  0.5392550000000  0.5270180000000 1.0
C      1  0.5830380000000  0.5716270000000  0.5399990000000 1.0
C      1  0.5467750000000  0.5535940000000  0.3997070000000 1.0
C      1  0.5487690000000  0.5022600000000  0.4626320000000 1.0
C      1  0.5056710000000  0.3833050000000  0.4861290000000 1.0
C      1  0.4968400000000  0.5373430000000  0.5307390000000 1.0
C      1  0.4383060000000  0.4605730000000  0.4513470000000 1.0
C      1  0.4563930000000  0.5813690000000  0.5053250000000 1.0
C      1  0.3947400000000  0.5803330000000  0.5255470000000 1.0
C      1  0.4589130000000  0.4485340000000  0.4030950000000 1.0
C      1  0.5478760000000  0.4123280000000  0.4609820000000 1.0
C      1  0.5125170000000  0.5604810000000  0.5354280000000 1.0
C      1  0.5609810000000  0.5722230000000  0.4576180000000 1.0
C      1  0.3706260000000  0.5924640000000  0.5310060000000 1.0
C      1  0.3990310000000  0.5150700000000  0.5649960000000 1.0
C      1  0.5744930000000  0.5074660000000  0.4762630000000 1.0
C      1  0.6126260000000  0.4657790000000  0.5341810000000 1.0
C      1  0.4882940000000  0.3962900000000  0.5296210000000 1.0
C      1  0.6269220000000  0.4785660000000  0.5128580000000 1.0
C      1  0.5605960000000  0.4368140000000  0.5199600000000 1.0
C      1  0.4581060000000  0.4093170000000  0.4391630000000 1.0
C      1  0.4825980000000  0.4881940000000  0.5792870000000 1.0
C      1  0.5324900000000  0.6653050000000  0.5091610000000 1.0
C      1  0.4555640000000  0.5662330000000  0.5287770000000 1.0
C      1  0.5734870000000  0.5198050000000  0.5043650000000 1.0
C      1  0.4234510000000  0.4517200000000  0.5390840000000 1.0
END
