TITL C-612601-4209-394 -3.46489592031897e-05 125000 -40.7440480570395 0 0 8 (C2v) n - 1
REM
REM in /home/nfs/bkarasulu/CARBON/AIRSS/Generating-Clusters/TERSOFF/Only-C1/FIRE-HFTN
REM
REM
REM
REM
REM
REM ./C.cell (11c1c37f851c82e70ff6c80c92926a4b)
REM AIRSS Version 0.9.1 bugfix July 2018 build 013d7b7c2542+ Fri, 06 Jul 2018 19:26:36 +0100
REM compiler GCC version 9.2.1 20190827 (Red Hat 9.2.1-1)
REM options -cpp -mtune=generic -march=x86-64 -g -O0 -fpre-include=/usr/include/finclude/math-vector-fortran.h
REM seed 1797137065 -1598880575 -2120737395 1213515016 -1111517440 -242826183 1253160348 -1845411998 391767254 1393039796 -1992692826 690641105 483195301 -1616926119 1733290985 1556309144 -1473301233 -1338743010 -1121921321 -29031443 -1178163084 1544394030 660799758 -1284299600 -305310611 -2035532542 1092158804 1431416041 -114416960 1197834562 625034411 -115186573 -2043033835
REM
CELL 1.54180   50.00000   50.00000   50.00000   90.00000   90.00000   90.00000
LATT -1
SFAC C  
C      1  0.5031620000000  0.5225870000000  0.5084870000000 1.0
C      1  0.4578450000000  0.5074060000000  0.5128850000000 1.0
C      1  0.5047180000000  0.4327780000000  0.4714360000000 1.0
C      1  0.4907890000000  0.4784760000000  0.4933620000000 1.0
C      1  0.5402150000000  0.5593280000000  0.5148300000000 1.0
C      1  0.4836410000000  0.5028740000000  0.5050000000000 1.0
C      1  0.5218310000000  0.5411130000000  0.5116890000000 1.0
C      1  0.4977990000000  0.4554380000000  0.4823110000000 1.0
END
