TITL C-612603-7354-296 -130908.172949948 125000 -1098.7677512352 0 0 181 (C1) n - 1
REM
REM in /home/nfs/bkarasulu/CARBON/AIRSS/Generating-Clusters/TERSOFF/Only-C1/FIRE-HFTN
REM
REM
REM
REM
REM
REM ./C.cell (11c1c37f851c82e70ff6c80c92926a4b)
REM AIRSS Version 0.9.1 bugfix July 2018 build 013d7b7c2542+ Fri, 06 Jul 2018 19:26:36 +0100
REM compiler GCC version 9.2.1 20190827 (Red Hat 9.2.1-1)
REM options -cpp -mtune=generic -march=x86-64 -g -O0 -fpre-include=/usr/include/finclude/math-vector-fortran.h
REM seed 443382302 -303214364 859656938 1419132429 -557164026 8661006 1298225832 -1494492631 -867369582 -348995245 42689642 306835476 -815620964 305552522 -1138195961 -1345596068 736845219 -1405604488 -840186419 432900215 1784481100 -69014270 2030391263 -684546038 -448972348 2080206025 884755791 -1231238249 240286911 2115718437 -1017874843 1077918323 1051205440
REM
CELL 1.54180   50.00000   50.00000   50.00000   90.00000   90.00000   90.00000
LATT -1
SFAC C  
C      1  0.5963340000000  0.4572040000000  0.5335650000000 1.0
C      1  0.4974650000000  0.6104670000000  0.4489610000000 1.0
C      1  0.5539590000000  0.5569900000000  0.4864840000000 1.0
C      1  0.5212780000000  0.4738020000000  0.5491740000000 1.0
C      1  0.4330180000000  0.4993240000000  0.3550730000000 1.0
C      1  0.4756340000000  0.5956110000000  0.4371700000000 1.0
C      1  0.5121170000000  0.5015750000000  0.4839530000000 1.0
C      1  0.6079920000000  0.5634870000000  0.5799600000000 1.0
C      1  0.5037760000000  0.4880610000000  0.5658480000000 1.0
C      1  0.4453780000000  0.6109580000000  0.4827700000000 1.0
C      1  0.5882400000000  0.3883260000000  0.5487690000000 1.0
C      1  0.4500640000000  0.5719210000000  0.4066150000000 1.0
C      1  0.4934420000000  0.4550050000000  0.4265320000000 1.0
C      1  0.4334830000000  0.5797760000000  0.5572370000000 1.0
C      1  0.4815800000000  0.4974910000000  0.5505650000000 1.0
C      1  0.4308660000000  0.4530510000000  0.3425970000000 1.0
C      1  0.4717570000000  0.4743360000000  0.5338580000000 1.0
C      1  0.4115630000000  0.5412870000000  0.4334680000000 1.0
C      1  0.5707230000000  0.4307610000000  0.5007100000000 1.0
C      1  0.5560280000000  0.5622980000000  0.6431580000000 1.0
C      1  0.4431980000000  0.5612810000000  0.4838980000000 1.0
C      1  0.5615650000000  0.4489580000000  0.5718020000000 1.0
C      1  0.5348490000000  0.3705020000000  0.4730460000000 1.0
C      1  0.3944440000000  0.5632060000000  0.4964830000000 1.0
C      1  0.4385120000000  0.4420700000000  0.4009910000000 1.0
C      1  0.6442670000000  0.6032950000000  0.5822230000000 1.0
C      1  0.5142320000000  0.4464860000000  0.5473460000000 1.0
C      1  0.5267700000000  0.4212820000000  0.5538150000000 1.0
C      1  0.4589230000000  0.4046930000000  0.5398590000000 1.0
C      1  0.4788550000000  0.5763680000000  0.5607820000000 1.0
C      1  0.4652390000000  0.3935860000000  0.4917460000000 1.0
C      1  0.4282740000000  0.4242000000000  0.5078890000000 1.0
C      1  0.4397710000000  0.5383500000000  0.4398750000000 1.0
C      1  0.5770070000000  0.4672710000000  0.5536490000000 1.0
C      1  0.6123420000000  0.4771220000000  0.5186570000000 1.0
C      1  0.5041530000000  0.4813990000000  0.5933800000000 1.0
C      1  0.5272600000000  0.6029630000000  0.4502200000000 1.0
C      1  0.4921310000000  0.4362070000000  0.4047560000000 1.0
C      1  0.5833350000000  0.4496630000000  0.4302040000000 1.0
C      1  0.4804190000000  0.5481420000000  0.5690430000000 1.0
C      1  0.4740600000000  0.4501920000000  0.4462340000000 1.0
C      1  0.5774460000000  0.4129000000000  0.5441980000000 1.0
C      1  0.5663340000000  0.4735940000000  0.4224170000000 1.0
C      1  0.5796070000000  0.4851130000000  0.6441610000000 1.0
C      1  0.4335340000000  0.5606300000000  0.5359960000000 1.0
C      1  0.4598870000000  0.5283750000000  0.6110450000000 1.0
C      1  0.4303230000000  0.4723570000000  0.3619930000000 1.0
C      1  0.4040260000000  0.5675590000000  0.4440930000000 1.0
C      1  0.5371820000000  0.4176210000000  0.4613620000000 1.0
C      1  0.5628040000000  0.5932260000000  0.5269080000000 1.0
C      1  0.3773160000000  0.4815650000000  0.5503900000000 1.0
C      1  0.4818560000000  0.5265180000000  0.5490710000000 1.0
C      1  0.3847930000000  0.4622670000000  0.5323280000000 1.0
C      1  0.4931930000000  0.4344360000000  0.5985230000000 1.0
C      1  0.4380980000000  0.5867410000000  0.4710590000000 1.0
C      1  0.5674780000000  0.4245400000000  0.4258050000000 1.0
C      1  0.6028390000000  0.5226100000000  0.6150990000000 1.0
C      1  0.4016660000000  0.5881210000000  0.5105840000000 1.0
C      1  0.4945370000000  0.4473840000000  0.5265760000000 1.0
C      1  0.4704460000000  0.4319780000000  0.5803960000000 1.0
C      1  0.5937350000000  0.5386340000000  0.5404720000000 1.0
C      1  0.3977640000000  0.4888650000000  0.4308240000000 1.0
C      1  0.5090240000000  0.3990590000000  0.5518090000000 1.0
C      1  0.5423390000000  0.4306410000000  0.4108040000000 1.0
C      1  0.5359780000000  0.5912710000000  0.5164550000000 1.0
C      1  0.4864890000000  0.4906870000000  0.4799560000000 1.0
C      1  0.5710200000000  0.5402480000000  0.4305390000000 1.0
C      1  0.4548230000000  0.4551810000000  0.4855870000000 1.0
C      1  0.5715760000000  0.4753840000000  0.4672700000000 1.0
C      1  0.5061340000000  0.3945350000000  0.4244360000000 1.0
C      1  0.5771300000000  0.5667910000000  0.4407250000000 1.0
C      1  0.5196250000000  0.4620660000000  0.4353920000000 1.0
C      1  0.5426560000000  0.4532750000000  0.5933230000000 1.0
C      1  0.5946430000000  0.5658380000000  0.4641930000000 1.0
C      1  0.5636800000000  0.4153030000000  0.4532300000000 1.0
C      1  0.4790590000000  0.4631540000000  0.4726360000000 1.0
C      1  0.4263310000000  0.5874640000000  0.4448760000000 1.0
C      1  0.6259070000000  0.5848020000000  0.5820670000000 1.0
C      1  0.4653760000000  0.4337750000000  0.3948530000000 1.0
C      1  0.5234920000000  0.5431470000000  0.5260380000000 1.0
C      1  0.5880310000000  0.4526260000000  0.4598960000000 1.0
C      1  0.4391920000000  0.4505720000000  0.5074790000000 1.0
C      1  0.6215990000000  0.5217660000000  0.4857570000000 1.0
C      1  0.4996700000000  0.4804680000000  0.3443660000000 1.0
C      1  0.5437850000000  0.5810700000000  0.4390250000000 1.0
C      1  0.5305850000000  0.5132720000000  0.3713120000000 1.0
C      1  0.4086880000000  0.4800180000000  0.4057890000000 1.0
C      1  0.4967130000000  0.6194210000000  0.5001830000000 1.0
C      1  0.4319900000000  0.5134860000000  0.4790560000000 1.0
C      1  0.4600370000000  0.5516070000000  0.4255060000000 1.0
C      1  0.5108990000000  0.4333930000000  0.5041940000000 1.0
C      1  0.4441810000000  0.4724250000000  0.5254640000000 1.0
C      1  0.4210580000000  0.6056040000000  0.5197730000000 1.0
C      1  0.5004680000000  0.5648450000000  0.4896820000000 1.0
C      1  0.5613630000000  0.5300500000000  0.4784830000000 1.0
C      1  0.4480750000000  0.6130340000000  0.5110860000000 1.0
C      1  0.5460840000000  0.4701190000000  0.4790520000000 1.0
C      1  0.4420490000000  0.5373050000000  0.4684290000000 1.0
C      1  0.5384700000000  0.5392210000000  0.5492270000000 1.0
C      1  0.4834760000000  0.5850010000000  0.5332740000000 1.0
C      1  0.4470080000000  0.4039800000000  0.5122660000000 1.0
C      1  0.5813770000000  0.5932590000000  0.5053740000000 1.0
C      1  0.5374660000000  0.4855400000000  0.5283350000000 1.0
C      1  0.4696630000000  0.3992220000000  0.4626170000000 1.0
C      1  0.4032660000000  0.4212440000000  0.5197410000000 1.0
C      1  0.5037740000000  0.4484810000000  0.4802420000000 1.0
C      1  0.4512250000000  0.5593400000000  0.5115030000000 1.0
C      1  0.5477250000000  0.5410650000000  0.4136050000000 1.0
C      1  0.3889290000000  0.5658470000000  0.4685930000000 1.0
C      1  0.5159650000000  0.5427990000000  0.4502910000000 1.0
C      1  0.4693170000000  0.5041890000000  0.6208330000000 1.0
C      1  0.6134100000000  0.5047100000000  0.5088150000000 1.0
C      1  0.4855940000000  0.3931040000000  0.5366760000000 1.0
C      1  0.5912340000000  0.5612200000000  0.5571690000000 1.0
C      1  0.5646890000000  0.4688720000000  0.6580560000000 1.0
C      1  0.5102720000000  0.4040950000000  0.4976520000000 1.0
C      1  0.4811330000000  0.5416100000000  0.5964100000000 1.0
C      1  0.5419860000000  0.5282750000000  0.3899410000000 1.0
C      1  0.4002220000000  0.4394410000000  0.5413550000000 1.0
C      1  0.5407260000000  0.4607370000000  0.4158770000000 1.0
C      1  0.5296690000000  0.5637470000000  0.5039840000000 1.0
C      1  0.4022310000000  0.5380020000000  0.5101430000000 1.0
C      1  0.5873000000000  0.4311930000000  0.5239530000000 1.0
C      1  0.5139730000000  0.4551550000000  0.5980910000000 1.0
C      1  0.4621140000000  0.4244410000000  0.4511820000000 1.0
C      1  0.4472260000000  0.5951820000000  0.4249370000000 1.0
C      1  0.4886670000000  0.3869410000000  0.4442990000000 1.0
C      1  0.4885830000000  0.3909280000000  0.6654010000000 1.0
C      1  0.5269720000000  0.3964290000000  0.4765020000000 1.0
C      1  0.4763780000000  0.6096550000000  0.5191640000000 1.0
C      1  0.5552180000000  0.4235880000000  0.5586520000000 1.0
C      1  0.4960350000000  0.5584700000000  0.4623660000000 1.0
C      1  0.5322660000000  0.4867880000000  0.4992700000000 1.0
C      1  0.4173330000000  0.5139210000000  0.5030360000000 1.0
C      1  0.4231220000000  0.4353600000000  0.5596520000000 1.0
C      1  0.5694450000000  0.4932300000000  0.4444900000000 1.0
C      1  0.5156760000000  0.4969630000000  0.3566670000000 1.0
C      1  0.3471200000000  0.4583080000000  0.5026850000000 1.0
C      1  0.5272800000000  0.4512790000000  0.4626090000000 1.0
C      1  0.3954280000000  0.4676050000000  0.4513920000000 1.0
C      1  0.6072090000000  0.5437020000000  0.5996710000000 1.0
C      1  0.3977660000000  0.5358890000000  0.5594070000000 1.0
C      1  0.3743540000000  0.4634500000000  0.5046710000000 1.0
C      1  0.5301650000000  0.5568400000000  0.4300180000000 1.0
C      1  0.4230960000000  0.4325780000000  0.4230880000000 1.0
C      1  0.4951170000000  0.5378650000000  0.5268450000000 1.0
C      1  0.3964670000000  0.5172330000000  0.4331900000000 1.0
C      1  0.4551940000000  0.5882300000000  0.5707770000000 1.0
C      1  0.4323500000000  0.5245090000000  0.3483990000000 1.0
C      1  0.5414010000000  0.5380380000000  0.5756440000000 1.0
C      1  0.4812770000000  0.5611620000000  0.5139610000000 1.0
C      1  0.5697000000000  0.5178590000000  0.5024080000000 1.0
C      1  0.5056660000000  0.5280830000000  0.6058040000000 1.0
C      1  0.4944340000000  0.4159280000000  0.6196280000000 1.0
C      1  0.5774550000000  0.5742520000000  0.4853790000000 1.0
C      1  0.5687200000000  0.5205610000000  0.4513610000000 1.0
C      1  0.3872710000000  0.4687870000000  0.4792120000000 1.0
C      1  0.5149070000000  0.4174370000000  0.4089050000000 1.0
C      1  0.5373670000000  0.6148960000000  0.4748360000000 1.0
C      1  0.5315700000000  0.5380490000000  0.6018640000000 1.0
C      1  0.4923590000000  0.4022210000000  0.6422020000000 1.0
C      1  0.5198680000000  0.5184030000000  0.4628160000000 1.0
C      1  0.4105350000000  0.5439400000000  0.5368150000000 1.0
C      1  0.5623470000000  0.4886890000000  0.5419280000000 1.0
C      1  0.5931770000000  0.5027480000000  0.6297470000000 1.0
C      1  0.4264020000000  0.4653610000000  0.3891380000000 1.0
C      1  0.4895490000000  0.6253820000000  0.4727880000000 1.0
C      1  0.6138310000000  0.5445540000000  0.4715740000000 1.0
C      1  0.5804120000000  0.4284660000000  0.4736100000000 1.0
C      1  0.4359700000000  0.4910840000000  0.4642860000000 1.0
C      1  0.4892070000000  0.3894290000000  0.5078890000000 1.0
C      1  0.4269830000000  0.4949680000000  0.5223400000000 1.0
C      1  0.4066670000000  0.4427890000000  0.4420680000000 1.0
C      1  0.5426330000000  0.4356490000000  0.5071060000000 1.0
C      1  0.5458120000000  0.5494210000000  0.6229260000000 1.0
C      1  0.4968900000000  0.5006380000000  0.6123560000000 1.0
C      1  0.5729210000000  0.5817220000000  0.5504100000000 1.0
C      1  0.5915170000000  0.5200790000000  0.5197710000000 1.0
C      1  0.4503570000000  0.4235090000000  0.5610060000000 1.0
C      1  0.5248230000000  0.6125040000000  0.5008960000000 1.0
C      1  0.4783750000000  0.5669590000000  0.4425490000000 1.0
END
