TITL C-612600-6631-397 0.533121028060282 125000 -718.223178362596 0 0 117 (C1) n - 1
REM
REM in /home/nfs/bkarasulu/CARBON/AIRSS/Generating-Clusters/TERSOFF/Only-C1/FIRE-HFTN
REM
REM
REM
REM
REM
REM ./C.cell (11c1c37f851c82e70ff6c80c92926a4b)
REM AIRSS Version 0.9.1 bugfix July 2018 build 013d7b7c2542+ Fri, 06 Jul 2018 19:26:36 +0100
REM compiler GCC version 9.2.1 20190827 (Red Hat 9.2.1-1)
REM options -cpp -mtune=generic -march=x86-64 -g -O0 -fpre-include=/usr/include/finclude/math-vector-fortran.h
REM seed 1853311319 -1004046770 -1000128994 -44219541 -359581702 507898852 -473262462 852529637 -1922285539 73957743 289415888 1617370412 -1290614976 1507856009 -1475987645 -1941737235 1979226985 -2038701952 1630504291 506834803 1595577255 862505336 1619901107 -1085397905 -2133121962 1724144996 -178391880 1643277310 -1199096222 -290266098 499638296 1427213125 -589972628
REM
CELL 1.54180   50.00000   50.00000   50.00000   90.00000   90.00000   90.00000
LATT -1
SFAC C  
C      1  0.4651250000000  0.5574760000000  0.5690130000000 1.0
C      1  0.4273740000000  0.5033280000000  0.4220070000000 1.0
C      1  0.4273830000000  0.5507350000000  0.4311890000000 1.0
C      1  0.5202700000000  0.4072140000000  0.5409140000000 1.0
C      1  0.5247450000000  0.4841360000000  0.4591030000000 1.0
C      1  0.5525380000000  0.4827840000000  0.4534220000000 1.0
C      1  0.5290620000000  0.4361390000000  0.4810360000000 1.0
C      1  0.5240200000000  0.4903270000000  0.5939760000000 1.0
C      1  0.4508460000000  0.4875110000000  0.4606970000000 1.0
C      1  0.5382140000000  0.5339110000000  0.6007490000000 1.0
C      1  0.5205950000000  0.5849140000000  0.5307590000000 1.0
C      1  0.4955940000000  0.4752070000000  0.3917790000000 1.0
C      1  0.4354870000000  0.4571360000000  0.4089070000000 1.0
C      1  0.4698580000000  0.4806750000000  0.5736790000000 1.0
C      1  0.4405410000000  0.5671160000000  0.4498020000000 1.0
C      1  0.4990620000000  0.3960110000000  0.4933900000000 1.0
C      1  0.6065310000000  0.5400390000000  0.4935600000000 1.0
C      1  0.4907750000000  0.5082020000000  0.4913830000000 1.0
C      1  0.4879860000000  0.5507380000000  0.4139290000000 1.0
C      1  0.4648580000000  0.4207120000000  0.5486050000000 1.0
C      1  0.5034340000000  0.4141820000000  0.4430020000000 1.0
C      1  0.4706770000000  0.5990860000000  0.4629940000000 1.0
C      1  0.5803920000000  0.5698100000000  0.5235680000000 1.0
C      1  0.4986800000000  0.6025540000000  0.5320160000000 1.0
C      1  0.4730720000000  0.3972530000000  0.5346360000000 1.0
C      1  0.5581470000000  0.4056970000000  0.5120470000000 1.0
C      1  0.5445100000000  0.5101270000000  0.5856820000000 1.0
C      1  0.4254070000000  0.4942240000000  0.4490960000000 1.0
C      1  0.4690670000000  0.5296220000000  0.4228670000000 1.0
C      1  0.5604190000000  0.5624740000000  0.5413780000000 1.0
C      1  0.5634610000000  0.4562880000000  0.4538460000000 1.0
C      1  0.5195230000000  0.4376420000000  0.4360020000000 1.0
C      1  0.4765160000000  0.5065190000000  0.5845280000000 1.0
C      1  0.4781060000000  0.5250770000000  0.4499610000000 1.0
C      1  0.4590650000000  0.5872610000000  0.4393760000000 1.0
C      1  0.5687260000000  0.4596510000000  0.5301200000000 1.0
C      1  0.5347910000000  0.4436290000000  0.5686450000000 1.0
C      1  0.4866320000000  0.6101640000000  0.5075180000000 1.0
C      1  0.4871940000000  0.4642720000000  0.5582700000000 1.0
C      1  0.5298880000000  0.5538910000000  0.4441090000000 1.0
C      1  0.4422020000000  0.4769920000000  0.5671120000000 1.0
C      1  0.5064620000000  0.4844540000000  0.4152100000000 1.0
C      1  0.4765150000000  0.5772240000000  0.4179770000000 1.0
C      1  0.4812590000000  0.4598580000000  0.5111470000000 1.0
C      1  0.4279300000000  0.5489200000000  0.5439570000000 1.0
C      1  0.5872240000000  0.4510960000000  0.4685410000000 1.0
C      1  0.5634210000000  0.4956140000000  0.4961080000000 1.0
C      1  0.4100730000000  0.4528820000000  0.5027990000000 1.0
C      1  0.4352010000000  0.4970560000000  0.5483010000000 1.0
C      1  0.5156660000000  0.5400040000000  0.4209820000000 1.0
C      1  0.4633870000000  0.5964460000000  0.4941430000000 1.0
C      1  0.5230900000000  0.4845280000000  0.5199070000000 1.0
C      1  0.5062290000000  0.6135430000000  0.4856860000000 1.0
C      1  0.4474770000000  0.4483070000000  0.4314810000000 1.0
C      1  0.4405030000000  0.5283300000000  0.4194750000000 1.0
C      1  0.5483760000000  0.5091600000000  0.5580370000000 1.0
C      1  0.4981460000000  0.4706240000000  0.5325620000000 1.0
C      1  0.5126010000000  0.4251140000000  0.5625350000000 1.0
C      1  0.5436580000000  0.4149650000000  0.4918400000000 1.0
C      1  0.5174880000000  0.5338450000000  0.5303430000000 1.0
C      1  0.5698820000000  0.5194400000000  0.5094960000000 1.0
C      1  0.4545780000000  0.5662470000000  0.5009640000000 1.0
C      1  0.4193640000000  0.5007270000000  0.5039200000000 1.0
C      1  0.5522090000000  0.5395440000000  0.5018590000000 1.0
C      1  0.5513390000000  0.4759810000000  0.5136420000000 1.0
C      1  0.4393280000000  0.4336080000000  0.5437000000000 1.0
C      1  0.5303160000000  0.4637270000000  0.5877650000000 1.0
C      1  0.4596870000000  0.4615160000000  0.4532450000000 1.0
C      1  0.4421190000000  0.3532560000000  0.5316840000000 1.0
C      1  0.4385100000000  0.5688860000000  0.5625020000000 1.0
C      1  0.4978230000000  0.4006970000000  0.4664270000000 1.0
C      1  0.4031250000000  0.4839960000000  0.4630840000000 1.0
C      1  0.5399000000000  0.5619080000000  0.4944220000000 1.0
C      1  0.4608730000000  0.5289850000000  0.5747300000000 1.0
C      1  0.5119530000000  0.5324750000000  0.6093950000000 1.0
C      1  0.4861350000000  0.4576930000000  0.4600380000000 1.0
C      1  0.4536720000000  0.4661780000000  0.5134060000000 1.0
C      1  0.5308140000000  0.5592020000000  0.5408370000000 1.0
C      1  0.4338320000000  0.4449500000000  0.5173770000000 1.0
C      1  0.5072310000000  0.4660090000000  0.4395650000000 1.0
C      1  0.4799090000000  0.5616910000000  0.5451780000000 1.0
C      1  0.4560140000000  0.5565810000000  0.4723150000000 1.0
C      1  0.4572870000000  0.3743810000000  0.5333450000000 1.0
C      1  0.4713710000000  0.5057520000000  0.4692200000000 1.0
C      1  0.4834630000000  0.5498050000000  0.4634570000000 1.0
C      1  0.6035680000000  0.5310000000000  0.4661530000000 1.0
C      1  0.5071590000000  0.5672960000000  0.4593620000000 1.0
C      1  0.5754320000000  0.5709690000000  0.4713080000000 1.0
C      1  0.5986990000000  0.5193900000000  0.5130710000000 1.0
C      1  0.5957160000000  0.4658260000000  0.5185080000000 1.0
C      1  0.4992700000000  0.4563930000000  0.4873150000000 1.0
C      1  0.4271620000000  0.4823050000000  0.4031440000000 1.0
C      1  0.4293550000000  0.5515060000000  0.5149550000000 1.0
C      1  0.5993920000000  0.4536310000000  0.4926360000000 1.0
C      1  0.4054020000000  0.4791210000000  0.4907960000000 1.0
C      1  0.5558040000000  0.4400800000000  0.5477920000000 1.0
C      1  0.4397630000000  0.4908230000000  0.5210630000000 1.0
C      1  0.5335370000000  0.5856020000000  0.5052380000000 1.0
C      1  0.5762460000000  0.5258840000000  0.4572400000000 1.0
C      1  0.4947800000000  0.5313130000000  0.5110640000000 1.0
C      1  0.5291150000000  0.5089670000000  0.5372740000000 1.0
C      1  0.4992250000000  0.3984300000000  0.5222890000000 1.0
C      1  0.5412520000000  0.4390950000000  0.4547870000000 1.0
C      1  0.5487120000000  0.4133210000000  0.5369620000000 1.0
C      1  0.5000760000000  0.5075410000000  0.6002520000000 1.0
C      1  0.5123760000000  0.4857490000000  0.4884590000000 1.0
C      1  0.4311920000000  0.4510760000000  0.5648570000000 1.0
C      1  0.4374160000000  0.5236090000000  0.5567920000000 1.0
C      1  0.6071570000000  0.4929080000000  0.5214070000000 1.0
C      1  0.4862860000000  0.4356980000000  0.5617110000000 1.0
C      1  0.5005630000000  0.5954900000000  0.4640060000000 1.0
C      1  0.4177190000000  0.5289640000000  0.5013660000000 1.0
C      1  0.4771350000000  0.5532980000000  0.5178170000000 1.0
C      1  0.5909130000000  0.5651860000000  0.4966800000000 1.0
C      1  0.5595340000000  0.5509560000000  0.4539470000000 1.0
C      1  0.5176190000000  0.5112660000000  0.4164930000000 1.0
C      1  0.5662090000000  0.5013790000000  0.4679810000000 1.0
END
