TITL C-612605-9286-1022 11.2520241753014 125000 -269.092174005712 0 0 45 (C1) n - 1
REM
REM in /home/nfs/bkarasulu/CARBON/AIRSS/Generating-Clusters/TERSOFF/Only-C1/FIRE-HFTN
REM
REM
REM
REM
REM
REM ./C.cell (11c1c37f851c82e70ff6c80c92926a4b)
REM AIRSS Version 0.9.1 bugfix July 2018 build 013d7b7c2542+ Fri, 06 Jul 2018 19:26:36 +0100
REM compiler GCC version 9.2.1 20190827 (Red Hat 9.2.1-1)
REM options -cpp -mtune=generic -march=x86-64 -g -O0 -fpre-include=/usr/include/finclude/math-vector-fortran.h
REM seed 1251817773 1745424899 2138165228 455107632 968258563 1275129231 -1978825390 575596461 -1312605085 -1576915579 -1521286937 -1445604286 1919393885 368968869 1568770381 154418783 1160686811 -864075819 2117092762 -1981410448 159282557 -993043698 -998489301 511285927 -339869026 1599408555 -558491609 -747708579 -623343248 440035680 -2068720635 349556956 1898572546
REM
CELL 1.54180   50.00000   50.00000   50.00000   90.00000   90.00000   90.00000
LATT -1
SFAC C  
C      1  0.4499110000000  0.5231440000000  0.5150110000000 1.0
C      1  0.5063510000000  0.5266650000000  0.5496430000000 1.0
C      1  0.4657000000000  0.5433460000000  0.5302710000000 1.0
C      1  0.3836270000000  0.4533740000000  0.4118510000000 1.0
C      1  0.4353820000000  0.4749350000000  0.4675950000000 1.0
C      1  0.5222660000000  0.4835690000000  0.4959510000000 1.0
C      1  0.5283770000000  0.5596810000000  0.4357630000000 1.0
C      1  0.5571540000000  0.5767560000000  0.3946630000000 1.0
C      1  0.5446550000000  0.4793880000000  0.5463000000000 1.0
C      1  0.4822530000000  0.4435930000000  0.5454610000000 1.0
C      1  0.4561490000000  0.5017010000000  0.5760030000000 1.0
C      1  0.5080300000000  0.4002130000000  0.5386630000000 1.0
C      1  0.4180470000000  0.4676790000000  0.4489300000000 1.0
C      1  0.4827670000000  0.4612090000000  0.5689080000000 1.0
C      1  0.5334180000000  0.4056760000000  0.5312150000000 1.0
C      1  0.5057690000000  0.5030040000000  0.5648730000000 1.0
C      1  0.5022020000000  0.4495100000000  0.5881250000000 1.0
C      1  0.4806820000000  0.4893780000000  0.5701790000000 1.0
C      1  0.4526710000000  0.5453310000000  0.5561190000000 1.0
C      1  0.4587680000000  0.5107730000000  0.4912480000000 1.0
C      1  0.5427650000000  0.5682190000000  0.4152130000000 1.0
C      1  0.4995150000000  0.5416560000000  0.4780220000000 1.0
C      1  0.5457350000000  0.4296370000000  0.5318940000000 1.0
C      1  0.4874670000000  0.4550210000000  0.5197220000000 1.0
C      1  0.4669650000000  0.4641950000000  0.5030100000000 1.0
C      1  0.6144830000000  0.6107680000000  0.3127920000000 1.0
C      1  0.5144250000000  0.4622910000000  0.5133380000000 1.0
C      1  0.6003260000000  0.6023700000000  0.3330080000000 1.0
C      1  0.4006940000000  0.4604670000000  0.4302370000000 1.0
C      1  0.4399620000000  0.5196860000000  0.5618330000000 1.0
C      1  0.5061040000000  0.5481350000000  0.5046990000000 1.0
C      1  0.5140440000000  0.5511050000000  0.4563200000000 1.0
C      1  0.5859330000000  0.5938310000000  0.3535630000000 1.0
C      1  0.4535800000000  0.4830680000000  0.4870930000000 1.0
C      1  0.5358020000000  0.4558010000000  0.5319750000000 1.0
C      1  0.4921410000000  0.4171160000000  0.5544590000000 1.0
C      1  0.5421410000000  0.5009260000000  0.5033010000000 1.0
C      1  0.5715430000000  0.5852930000000  0.3741130000000 1.0
C      1  0.4771640000000  0.5247180000000  0.4751510000000 1.0
C      1  0.5292080000000  0.4861860000000  0.5694900000000 1.0
C      1  0.4321180000000  0.5114860000000  0.5348490000000 1.0
C      1  0.5251980000000  0.4661160000000  0.5897390000000 1.0
C      1  0.5537670000000  0.4994960000000  0.5280790000000 1.0
C      1  0.4941070000000  0.5419730000000  0.5293180000000 1.0
C      1  0.5006340000000  0.4215160000000  0.5820080000000 1.0
END
