TITL C-612605-9286-841 0.000418096497762369 125000 -445.365884477892 0 0 75 (C1) n - 1
REM
REM in /home/nfs/bkarasulu/CARBON/AIRSS/Generating-Clusters/TERSOFF/Only-C1/FIRE-HFTN
REM
REM
REM
REM
REM
REM ./C.cell (11c1c37f851c82e70ff6c80c92926a4b)
REM AIRSS Version 0.9.1 bugfix July 2018 build 013d7b7c2542+ Fri, 06 Jul 2018 19:26:36 +0100
REM compiler GCC version 9.2.1 20190827 (Red Hat 9.2.1-1)
REM options -cpp -mtune=generic -march=x86-64 -g -O0 -fpre-include=/usr/include/finclude/math-vector-fortran.h
REM seed 1178885534 -910531349 405299615 -1787637768 1520193319 860902476 -1668442654 1438507049 -1442940901 1191569913 -1527579204 -1452187664 -217067382 1595518034 1795047063 -1674081886 -1316554379 -1824822112 326223136 -2044237553 1018801004 -1270680113 1837398858 -385280200 -1885470686 1656534759 1764653639 -1157776751 408627481 211724932 749862316 -1057140502 -636746121
REM
CELL 1.54180   50.00000   50.00000   50.00000   90.00000   90.00000   90.00000
LATT -1
SFAC C  
C      1  0.4783720000000  0.3861480000000  0.5030280000000 1.0
C      1  0.4716690000000  0.5791710000000  0.4664790000000 1.0
C      1  0.5433890000000  0.5278950000000  0.5311750000000 1.0
C      1  0.5823360000000  0.4637610000000  0.5279010000000 1.0
C      1  0.5311370000000  0.5842870000000  0.5033980000000 1.0
C      1  0.4869480000000  0.4368270000000  0.4918660000000 1.0
C      1  0.5190990000000  0.4288420000000  0.5310920000000 1.0
C      1  0.5948180000000  0.5645950000000  0.4702860000000 1.0
C      1  0.5258780000000  0.5413510000000  0.4790840000000 1.0
C      1  0.5700000000000  0.5648900000000  0.4782280000000 1.0
C      1  0.4421310000000  0.4569400000000  0.5088100000000 1.0
C      1  0.5366760000000  0.4456860000000  0.4843230000000 1.0
C      1  0.5901730000000  0.4694530000000  0.4770390000000 1.0
C      1  0.4483230000000  0.5221390000000  0.4794830000000 1.0
C      1  0.4400730000000  0.5447010000000  0.4631430000000 1.0
C      1  0.5019080000000  0.4679510000000  0.5951080000000 1.0
C      1  0.4155660000000  0.4911880000000  0.4922210000000 1.0
C      1  0.4446140000000  0.4614260000000  0.5722990000000 1.0
C      1  0.4596640000000  0.5096360000000  0.4365480000000 1.0
C      1  0.5293310000000  0.5046070000000  0.4419280000000 1.0
C      1  0.4318760000000  0.5131750000000  0.5001450000000 1.0
C      1  0.4953790000000  0.5661950000000  0.4221580000000 1.0
C      1  0.5025410000000  0.4656940000000  0.4278930000000 1.0
C      1  0.4787750000000  0.4858890000000  0.5373270000000 1.0
C      1  0.4391370000000  0.5204260000000  0.5265740000000 1.0
C      1  0.4601600000000  0.5659560000000  0.5269660000000 1.0
C      1  0.4950670000000  0.4476200000000  0.5759190000000 1.0
C      1  0.5118300000000  0.4965140000000  0.4843780000000 1.0
C      1  0.4633700000000  0.4523850000000  0.4544810000000 1.0
C      1  0.5984280000000  0.4698540000000  0.5035030000000 1.0
C      1  0.4837610000000  0.4112130000000  0.4983010000000 1.0
C      1  0.5133730000000  0.4919700000000  0.5848720000000 1.0
C      1  0.5001470000000  0.5467290000000  0.4909610000000 1.0
C      1  0.4946640000000  0.5112810000000  0.5751730000000 1.0
C      1  0.4964080000000  0.5369560000000  0.5177690000000 1.0
C      1  0.4449230000000  0.5346390000000  0.4363130000000 1.0
C      1  0.4862320000000  0.4872570000000  0.4763900000000 1.0
C      1  0.6262190000000  0.4742360000000  0.5405700000000 1.0
C      1  0.5375850000000  0.4853420000000  0.5710440000000 1.0
C      1  0.5240490000000  0.5227990000000  0.4211690000000 1.0
C      1  0.5434790000000  0.5634640000000  0.4865040000000 1.0
C      1  0.5191540000000  0.5398970000000  0.5358930000000 1.0
C      1  0.5403120000000  0.4611740000000  0.5560310000000 1.0
C      1  0.4684050000000  0.5343860000000  0.5322280000000 1.0
C      1  0.4462870000000  0.5693240000000  0.4754790000000 1.0
C      1  0.4740710000000  0.4640110000000  0.4294080000000 1.0
C      1  0.5166580000000  0.4421240000000  0.5570250000000 1.0
C      1  0.4270390000000  0.4657000000000  0.4862480000000 1.0
C      1  0.4800890000000  0.5796400000000  0.4396240000000 1.0
C      1  0.4674720000000  0.5057530000000  0.4652910000000 1.0
C      1  0.4286250000000  0.4732970000000  0.4348040000000 1.0
C      1  0.5555510000000  0.4565510000000  0.5313550000000 1.0
C      1  0.6251880000000  0.4761770000000  0.5129440000000 1.0
C      1  0.5388080000000  0.4408320000000  0.5125460000000 1.0
C      1  0.4778380000000  0.5113250000000  0.5522160000000 1.0
C      1  0.4589500000000  0.4689480000000  0.5262070000000 1.0
C      1  0.4668400000000  0.4458110000000  0.5725840000000 1.0
C      1  0.5206260000000  0.4883150000000  0.5091610000000 1.0
C      1  0.4804410000000  0.4588440000000  0.4761620000000 1.0
C      1  0.6012000000000  0.4668950000000  0.5500510000000 1.0
C      1  0.5171540000000  0.5565440000000  0.5577540000000 1.0
C      1  0.5048000000000  0.4805150000000  0.5288930000000 1.0
C      1  0.4311240000000  0.4836510000000  0.5646520000000 1.0
C      1  0.5262890000000  0.4752750000000  0.4409860000000 1.0
C      1  0.4425600000000  0.5709830000000  0.5042990000000 1.0
C      1  0.4535160000000  0.4848940000000  0.4238760000000 1.0
C      1  0.5025960000000  0.5886260000000  0.5076610000000 1.0
C      1  0.4347180000000  0.4586910000000  0.4592370000000 1.0
C      1  0.4826430000000  0.5853210000000  0.5286840000000 1.0
C      1  0.5432140000000  0.4600920000000  0.4599240000000 1.0
C      1  0.5111050000000  0.5455840000000  0.4155180000000 1.0
C      1  0.5709590000000  0.4658700000000  0.4588490000000 1.0
C      1  0.5265060000000  0.5149670000000  0.4684510000000 1.0
C      1  0.4912890000000  0.5734720000000  0.4854120000000 1.0
C      1  0.4284640000000  0.5054270000000  0.5486960000000 1.0
END
