TITL C-612603-7354-520 2.3234123665263 125000 -236.793239045228 0 0 41 (C1) n - 1
REM
REM in /home/nfs/bkarasulu/CARBON/AIRSS/Generating-Clusters/TERSOFF/Only-C1/FIRE-HFTN
REM
REM
REM
REM
REM
REM ./C.cell (11c1c37f851c82e70ff6c80c92926a4b)
REM AIRSS Version 0.9.1 bugfix July 2018 build 013d7b7c2542+ Fri, 06 Jul 2018 19:26:36 +0100
REM compiler GCC version 9.2.1 20190827 (Red Hat 9.2.1-1)
REM options -cpp -mtune=generic -march=x86-64 -g -O0 -fpre-include=/usr/include/finclude/math-vector-fortran.h
REM seed 806543827 -645557829 -1271485765 1558695881 -1388922587 -1138302730 -1445243670 -1109791009 1708091544 -1193618801 1974036120 1537039260 1986513044 1686949380 -1626648429 -1446360816 1604233119 1556628532 -215409068 1334578132 1054376259 1996821436 -109392 -1940245262 457116732 1823380833 342593467 652687353 -1666289607 -431196983 2023216369 -1689014707 2504354
REM
CELL 1.54180   50.00000   50.00000   50.00000   90.00000   90.00000   90.00000
LATT -1
SFAC C  
C      1  0.4761300000000  0.4638540000000  0.5850870000000 1.0
C      1  0.4518320000000  0.4992820000000  0.4992610000000 1.0
C      1  0.5122200000000  0.4826530000000  0.4577810000000 1.0
C      1  0.5281070000000  0.4599710000000  0.3910900000000 1.0
C      1  0.4989720000000  0.5336250000000  0.6781490000000 1.0
C      1  0.6305220000000  0.5735090000000  0.4640980000000 1.0
C      1  0.4727190000000  0.4154660000000  0.5824720000000 1.0
C      1  0.5919390000000  0.5386850000000  0.4537280000000 1.0
C      1  0.4800460000000  0.4409280000000  0.5423540000000 1.0
C      1  0.4673370000000  0.4873000000000  0.5726050000000 1.0
C      1  0.4255810000000  0.5444490000000  0.4266940000000 1.0
C      1  0.4258120000000  0.5017050000000  0.4877600000000 1.0
C      1  0.4848840000000  0.4643480000000  0.6115570000000 1.0
C      1  0.4828340000000  0.4494820000000  0.5174080000000 1.0
C      1  0.4626090000000  0.5396350000000  0.4565390000000 1.0
C      1  0.6112300000000  0.5560970000000  0.4589130000000 1.0
C      1  0.4804810000000  0.5203440000000  0.4459660000000 1.0
C      1  0.4812630000000  0.5195880000000  0.4176430000000 1.0
C      1  0.6498180000000  0.5909260000000  0.4692850000000 1.0
C      1  0.5309270000000  0.4724530000000  0.4142870000000 1.0
C      1  0.5250670000000  0.4478120000000  0.3682320000000 1.0
C      1  0.5001450000000  0.4403150000000  0.6501710000000 1.0
C      1  0.4626970000000  0.5275420000000  0.3996540000000 1.0
C      1  0.6687970000000  0.6080560000000  0.4743860000000 1.0
C      1  0.4886440000000  0.4990890000000  0.4623290000000 1.0
C      1  0.4204200000000  0.5242030000000  0.4717490000000 1.0
C      1  0.5321770000000  0.4863210000000  0.4385030000000 1.0
C      1  0.5726460000000  0.5212740000000  0.4485440000000 1.0
C      1  0.4383130000000  0.5385700000000  0.4035430000000 1.0
C      1  0.4551260000000  0.5065250000000  0.5261420000000 1.0
C      1  0.5532810000000  0.5039440000000  0.4434300000000 1.0
C      1  0.4972710000000  0.5110180000000  0.6652790000000 1.0
C      1  0.4935960000000  0.4639720000000  0.6381050000000 1.0
C      1  0.4739830000000  0.4884350000000  0.4854030000000 1.0
C      1  0.4602070000000  0.5021780000000  0.5518180000000 1.0
C      1  0.5110010000000  0.4618290000000  0.4775820000000 1.0
C      1  0.4882610000000  0.4647040000000  0.4949700000000 1.0
C      1  0.4763790000000  0.4395950000000  0.5701060000000 1.0
C      1  0.4068060000000  0.4825340000000  0.4920450000000 1.0
C      1  0.4955350000000  0.4880500000000  0.6521850000000 1.0
C      1  0.4343840000000  0.5397340000000  0.4531450000000 1.0
END
