TITL C-612600-6631-891 -0.035403473222695 125000 -81.6042903099069 0 0 15 (C1) n - 1
REM
REM in /home/nfs/bkarasulu/CARBON/AIRSS/Generating-Clusters/TERSOFF/Only-C1/FIRE-HFTN
REM
REM
REM
REM
REM
REM ./C.cell (11c1c37f851c82e70ff6c80c92926a4b)
REM AIRSS Version 0.9.1 bugfix July 2018 build 013d7b7c2542+ Fri, 06 Jul 2018 19:26:36 +0100
REM compiler GCC version 9.2.1 20190827 (Red Hat 9.2.1-1)
REM options -cpp -mtune=generic -march=x86-64 -g -O0 -fpre-include=/usr/include/finclude/math-vector-fortran.h
REM seed 96644351 -1807159036 -944993876 -934658112 -753814294 50745616 -134994739 307203473 228176167 97522173 -684571654 -1282209352 -1975232160 73877493 -137032982 -690002555 -2052119670 -1163296264 1581303937 -2044941783 -1033365539 1178855588 -737668539 169467208 -2134789422 -1205881144 530446050 -1564738887 671491504 1141843950 -446384759 -908382145 -1208414965
REM
CELL 1.54180   50.00000   50.00000   50.00000   90.00000   90.00000   90.00000
LATT -1
SFAC C  
C      1  0.4374670000000  0.4744230000000  0.5532610000000 1.0
C      1  0.4806960000000  0.5185550000000  0.4850140000000 1.0
C      1  0.4986550000000  0.5309990000000  0.5249460000000 1.0
C      1  0.5068820000000  0.5506640000000  0.5415830000000 1.0
C      1  0.5223360000000  0.4961590000000  0.4654610000000 1.0
C      1  0.5134010000000  0.5073740000000  0.5148280000000 1.0
C      1  0.5070060000000  0.5062650000000  0.4860150000000 1.0
C      1  0.5667600000000  0.4663570000000  0.4072430000000 1.0
C      1  0.4541720000000  0.5114900000000  0.5263170000000 1.0
C      1  0.4844520000000  0.4768140000000  0.5404810000000 1.0
C      1  0.5521060000000  0.4761940000000  0.4264300000000 1.0
C      1  0.5084910000000  0.4841710000000  0.5303820000000 1.0
C      1  0.5372080000000  0.4861960000000  0.4459390000000 1.0
C      1  0.4724080000000  0.5272470000000  0.5116030000000 1.0
C      1  0.4579600000000  0.4870910000000  0.5404960000000 1.0
END
