TITL C-612600-6631-1102 110.58946035221 125000 -530.593645826256 0 0 86 (C1) n - 1
REM
REM in /home/nfs/bkarasulu/CARBON/AIRSS/Generating-Clusters/TERSOFF/Only-C1/FIRE-HFTN
REM
REM
REM
REM
REM
REM ./C.cell (11c1c37f851c82e70ff6c80c92926a4b)
REM AIRSS Version 0.9.1 bugfix July 2018 build 013d7b7c2542+ Fri, 06 Jul 2018 19:26:36 +0100
REM compiler GCC version 9.2.1 20190827 (Red Hat 9.2.1-1)
REM options -cpp -mtune=generic -march=x86-64 -g -O0 -fpre-include=/usr/include/finclude/math-vector-fortran.h
REM seed 1060664302 -1545395961 -2134036234 2136560398 -1717070609 -1103029519 1911772587 -1761693555 -190739067 -894646439 1662553955 -1293738582 -1427285102 1431718953 826650132 -1415822132 1328552956 1980039714 1378069876 975384046 1530799981 -1881102947 -2135335693 505967377 1969051908 -1301185509 96843724 -1906604523 1298925141 2077698787 -1775467935 643048267 625185230
REM
CELL 1.54180   50.00000   50.00000   50.00000   90.00000   90.00000   90.00000
LATT -1
SFAC C  
C      1  0.5003530000000  0.4597820000000  0.4246160000000 1.0
C      1  0.5588520000000  0.5050170000000  0.4688980000000 1.0
C      1  0.5018880000000  0.4175440000000  0.5495810000000 1.0
C      1  0.4114870000000  0.4688150000000  0.4969230000000 1.0
C      1  0.4726460000000  0.4614200000000  0.4314700000000 1.0
C      1  0.4713400000000  0.5341200000000  0.4501810000000 1.0
C      1  0.4899530000000  0.4993020000000  0.5424550000000 1.0
C      1  0.5942730000000  0.4801500000000  0.4911840000000 1.0
C      1  0.5411520000000  0.5905640000000  0.5145780000000 1.0
C      1  0.4608010000000  0.4202150000000  0.4620980000000 1.0
C      1  0.5497930000000  0.3853710000000  0.5185600000000 1.0
C      1  0.4883150000000  0.5892990000000  0.4815060000000 1.0
C      1  0.4609520000000  0.4904240000000  0.5399410000000 1.0
C      1  0.4932920000000  0.5437650000000  0.4671830000000 1.0
C      1  0.4888600000000  0.4217420000000  0.5050310000000 1.0
C      1  0.4998970000000  0.5266590000000  0.4896540000000 1.0
C      1  0.6068390000000  0.5505080000000  0.4990290000000 1.0
C      1  0.5951620000000  0.5284270000000  0.4915950000000 1.0
C      1  0.5450140000000  0.5519730000000  0.4522430000000 1.0
C      1  0.5464070000000  0.5137200000000  0.4230810000000 1.0
C      1  0.5218030000000  0.4466110000000  0.4406760000000 1.0
C      1  0.4939820000000  0.5244690000000  0.5569810000000 1.0
C      1  0.4873680000000  0.4384240000000  0.5632720000000 1.0
C      1  0.4180870000000  0.4919200000000  0.4800580000000 1.0
C      1  0.4551270000000  0.5166930000000  0.5033610000000 1.0
C      1  0.5200320000000  0.5204430000000  0.5093260000000 1.0
C      1  0.5770580000000  0.4527660000000  0.5288630000000 1.0
C      1  0.5156110000000  0.4681830000000  0.5064710000000 1.0
C      1  0.4384060000000  0.5629390000000  0.5278240000000 1.0
C      1  0.5415930000000  0.4683660000000  0.4426220000000 1.0
C      1  0.4937070000000  0.4490760000000  0.5051480000000 1.0
C      1  0.5290350000000  0.5555930000000  0.4274710000000 1.0
C      1  0.5019540000000  0.6111020000000  0.4934480000000 1.0
C      1  0.4823600000000  0.4697400000000  0.6006600000000 1.0
C      1  0.5618310000000  0.5519710000000  0.5606860000000 1.0
C      1  0.4370620000000  0.4384270000000  0.5371590000000 1.0
C      1  0.5226230000000  0.4768820000000  0.5748220000000 1.0
C      1  0.5556060000000  0.4603120000000  0.5425310000000 1.0
C      1  0.4624680000000  0.4882300000000  0.4310930000000 1.0
C      1  0.4726730000000  0.4653120000000  0.4952970000000 1.0
C      1  0.4536050000000  0.4737210000000  0.5636150000000 1.0
C      1  0.5227720000000  0.5305690000000  0.4148390000000 1.0
C      1  0.5050310000000  0.5690390000000  0.4706900000000 1.0
C      1  0.5243070000000  0.6109400000000  0.5087120000000 1.0
C      1  0.5331390000000  0.4756280000000  0.5483760000000 1.0
C      1  0.5407490000000  0.5643280000000  0.5036390000000 1.0
C      1  0.4497750000000  0.5414160000000  0.5434200000000 1.0
C      1  0.4750280000000  0.5456970000000  0.5572040000000 1.0
C      1  0.4756350000000  0.5910860000000  0.5402280000000 1.0
C      1  0.5112730000000  0.4839880000000  0.4120370000000 1.0
C      1  0.4481110000000  0.5161930000000  0.5309730000000 1.0
C      1  0.4715610000000  0.4118820000000  0.4852500000000 1.0
C      1  0.5395820000000  0.5402380000000  0.5497070000000 1.0
C      1  0.5151060000000  0.4802270000000  0.4802000000000 1.0
C      1  0.4584620000000  0.4453210000000  0.5565680000000 1.0
C      1  0.4779450000000  0.5093660000000  0.4892890000000 1.0
C      1  0.4578070000000  0.5837250000000  0.5196610000000 1.0
C      1  0.5301060000000  0.4008970000000  0.5077840000000 1.0
C      1  0.5067250000000  0.4088300000000  0.5226360000000 1.0
C      1  0.5925630000000  0.4599810000000  0.5084610000000 1.0
C      1  0.4548180000000  0.4728890000000  0.5151410000000 1.0
C      1  0.4447720000000  0.5379180000000  0.4623460000000 1.0
C      1  0.5828430000000  0.5045790000000  0.4838340000000 1.0
C      1  0.4831040000000  0.5728440000000  0.5589200000000 1.0
C      1  0.4856580000000  0.4847140000000  0.4785150000000 1.0
C      1  0.4590700000000  0.4798560000000  0.5906710000000 1.0
C      1  0.5251910000000  0.4244590000000  0.4580630000000 1.0
C      1  0.4304380000000  0.4580870000000  0.5160490000000 1.0
C      1  0.5265590000000  0.5039620000000  0.5843130000000 1.0
C      1  0.4601980000000  0.4392280000000  0.4432420000000 1.0
C      1  0.4623550000000  0.5811750000000  0.4906220000000 1.0
C      1  0.5399520000000  0.4832960000000  0.4669930000000 1.0
C      1  0.5335460000000  0.5642440000000  0.4752960000000 1.0
C      1  0.5554590000000  0.5248210000000  0.4487580000000 1.0
C      1  0.5207370000000  0.5263260000000  0.5669370000000 1.0
C      1  0.5156260000000  0.4896350000000  0.5277150000000 1.0
C      1  0.4420110000000  0.5612480000000  0.4797600000000 1.0
C      1  0.5005550000000  0.5117890000000  0.4146030000000 1.0
C      1  0.5313570000000  0.4105730000000  0.4805560000000 1.0
C      1  0.5400480000000  0.4861020000000  0.4197370000000 1.0
C      1  0.3867590000000  0.4571550000000  0.4943640000000 1.0
C      1  0.4243100000000  0.5577800000000  0.5030490000000 1.0
C      1  0.5008260000000  0.4586290000000  0.5815590000000 1.0
C      1  0.5353080000000  0.5412590000000  0.5208530000000 1.0
C      1  0.4762270000000  0.5136030000000  0.4300730000000 1.0
C      1  0.4273300000000  0.5144810000000  0.4671680000000 1.0
END
