TITL C-612604-1799-553 0.49391872529194 125000 -185.944624069105 0 0 33 (C1) n - 1
REM
REM in /home/nfs/bkarasulu/CARBON/AIRSS/Generating-Clusters/TERSOFF/Only-C1/FIRE-HFTN
REM
REM
REM
REM
REM
REM ./C.cell (11c1c37f851c82e70ff6c80c92926a4b)
REM AIRSS Version 0.9.1 bugfix July 2018 build 013d7b7c2542+ Fri, 06 Jul 2018 19:26:36 +0100
REM compiler GCC version 9.2.1 20190827 (Red Hat 9.2.1-1)
REM options -cpp -mtune=generic -march=x86-64 -g -O0 -fpre-include=/usr/include/finclude/math-vector-fortran.h
REM seed 1443192404 1381479071 -838428005 -780427654 -2015969194 -760658747 -728698379 1380728999 -715820331 -36730949 1436920384 -949216235 2085203769 2039123354 -1341034170 531955110 2012687972 1716150102 1844000624 -287368966 -1200185992 571525817 -1126401461 1846589881 -985331782 -1752461214 -2146160014 1957726017 370897045 -1693468523 -559713934 226798360 328904693
REM
CELL 1.54180   50.00000   50.00000   50.00000   90.00000   90.00000   90.00000
LATT -1
SFAC C  
C      1  0.4966110000000  0.5615690000000  0.5179220000000 1.0
C      1  0.4394260000000  0.4403120000000  0.5070400000000 1.0
C      1  0.5116220000000  0.4440130000000  0.4458980000000 1.0
C      1  0.5233000000000  0.4674800000000  0.4417520000000 1.0
C      1  0.4739360000000  0.4211850000000  0.4731710000000 1.0
C      1  0.5966660000000  0.4855360000000  0.5616020000000 1.0
C      1  0.5537820000000  0.5474290000000  0.4717910000000 1.0
C      1  0.5782340000000  0.5411590000000  0.5092900000000 1.0
C      1  0.4413740000000  0.4877730000000  0.5140270000000 1.0
C      1  0.4091890000000  0.4612880000000  0.5380680000000 1.0
C      1  0.5738590000000  0.5580380000000  0.4877230000000 1.0
C      1  0.4789000000000  0.5437820000000  0.5288120000000 1.0
C      1  0.4821900000000  0.5346310000000  0.5550210000000 1.0
C      1  0.5773560000000  0.4914250000000  0.5451210000000 1.0
C      1  0.4350110000000  0.5504950000000  0.5084230000000 1.0
C      1  0.5602380000000  0.5183040000000  0.5079810000000 1.0
C      1  0.4296290000000  0.4630900000000  0.5200320000000 1.0
C      1  0.5245560000000  0.5053970000000  0.4718880000000 1.0
C      1  0.5029480000000  0.4964100000000  0.4883590000000 1.0
C      1  0.5104280000000  0.4840320000000  0.5124660000000 1.0
C      1  0.5275460000000  0.4948970000000  0.4455850000000 1.0
C      1  0.4941180000000  0.4275190000000  0.4571340000000 1.0
C      1  0.4546990000000  0.4258950000000  0.4908370000000 1.0
C      1  0.4577720000000  0.5076300000000  0.5032100000000 1.0
C      1  0.4143610000000  0.5656560000000  0.5036450000000 1.0
C      1  0.4570360000000  0.5340940000000  0.5134400000000 1.0
C      1  0.4858390000000  0.5241850000000  0.5786150000000 1.0
C      1  0.5569700000000  0.4981080000000  0.5273560000000 1.0
C      1  0.4664610000000  0.4993490000000  0.4564050000000 1.0
C      1  0.5322580000000  0.4847900000000  0.5278940000000 1.0
C      1  0.5442680000000  0.5222160000000  0.4829260000000 1.0
C      1  0.4757350000000  0.5011600000000  0.4820860000000 1.0
C      1  0.5336820000000  0.5111550000000  0.4244780000000 1.0
END
