TITL C-612603-7354-1278 2.09917644080466e-05 125000 -575.730244898986 0 0 95 (C1) n - 1
REM
REM in /home/nfs/bkarasulu/CARBON/AIRSS/Generating-Clusters/TERSOFF/Only-C1/FIRE-HFTN
REM
REM
REM
REM
REM
REM ./C.cell (11c1c37f851c82e70ff6c80c92926a4b)
REM AIRSS Version 0.9.1 bugfix July 2018 build 013d7b7c2542+ Fri, 06 Jul 2018 19:26:36 +0100
REM compiler GCC version 9.2.1 20190827 (Red Hat 9.2.1-1)
REM options -cpp -mtune=generic -march=x86-64 -g -O0 -fpre-include=/usr/include/finclude/math-vector-fortran.h
REM seed 208335027 -1759166422 1479812087 -194839607 -893492066 49685452 853907125 -981382059 1841141189 -1879685293 248107090 -966964816 -849132070 -446970027 1799156148 72086954 -1022311742 -677964763 866641952 -145324143 -489260773 2003519552 1651666126 -218467662 502072039 2126793647 -1246390824 954128097 152594206 -2008567835 518371066 184833795 410843610
REM
CELL 1.54180   50.00000   50.00000   50.00000   90.00000   90.00000   90.00000
LATT -1
SFAC C  
C      1  0.4445860000000  0.5233890000000  0.5477890000000 1.0
C      1  0.5147980000000  0.4506940000000  0.5440770000000 1.0
C      1  0.5109960000000  0.4844640000000  0.4139800000000 1.0
C      1  0.5333000000000  0.4975240000000  0.4739830000000 1.0
C      1  0.5674650000000  0.5627520000000  0.5269080000000 1.0
C      1  0.4601280000000  0.5074560000000  0.5009710000000 1.0
C      1  0.5979390000000  0.4752110000000  0.5708880000000 1.0
C      1  0.4665650000000  0.5513120000000  0.4380500000000 1.0
C      1  0.5267970000000  0.4678260000000  0.5222420000000 1.0
C      1  0.5587770000000  0.4863490000000  0.4792160000000 1.0
C      1  0.5170070000000  0.4420060000000  0.4483770000000 1.0
C      1  0.5988110000000  0.4534960000000  0.5552550000000 1.0
C      1  0.5247910000000  0.4253940000000  0.4973850000000 1.0
C      1  0.5041910000000  0.4711750000000  0.5035310000000 1.0
C      1  0.5102510000000  0.5718680000000  0.4478680000000 1.0
C      1  0.4523780000000  0.5702960000000  0.5044850000000 1.0
C      1  0.4473330000000  0.4329690000000  0.5869390000000 1.0
C      1  0.5201970000000  0.5530580000000  0.4273040000000 1.0
C      1  0.5042630000000  0.5096470000000  0.5298400000000 1.0
C      1  0.4469850000000  0.5086970000000  0.4714690000000 1.0
C      1  0.5158920000000  0.5263690000000  0.3896610000000 1.0
C      1  0.5726480000000  0.5414990000000  0.5084810000000 1.0
C      1  0.4834630000000  0.4907080000000  0.4078670000000 1.0
C      1  0.4568520000000  0.4196550000000  0.5397630000000 1.0
C      1  0.5306130000000  0.5431480000000  0.5519900000000 1.0
C      1  0.5741090000000  0.4867360000000  0.4376810000000 1.0
C      1  0.5092780000000  0.4254490000000  0.5253330000000 1.0
C      1  0.5630810000000  0.4926280000000  0.5068660000000 1.0
C      1  0.4416150000000  0.4591330000000  0.5861730000000 1.0
C      1  0.4806540000000  0.5722380000000  0.4535930000000 1.0
C      1  0.5676780000000  0.5156760000000  0.4384420000000 1.0
C      1  0.5403000000000  0.5665220000000  0.5365030000000 1.0
C      1  0.4185080000000  0.4561810000000  0.5264110000000 1.0
C      1  0.5023810000000  0.5329940000000  0.4890620000000 1.0
C      1  0.5292570000000  0.4794170000000  0.5846200000000 1.0
C      1  0.4755030000000  0.5409170000000  0.4126190000000 1.0
C      1  0.5096730000000  0.4819970000000  0.4778220000000 1.0
C      1  0.5229170000000  0.5771300000000  0.5155250000000 1.0
C      1  0.5423900000000  0.5248130000000  0.4270360000000 1.0
C      1  0.4089530000000  0.5067260000000  0.5190200000000 1.0
C      1  0.5427530000000  0.5504180000000  0.4715290000000 1.0
C      1  0.5693210000000  0.4686770000000  0.4599850000000 1.0
C      1  0.5300600000000  0.5216440000000  0.5321700000000 1.0
C      1  0.5087300000000  0.4278770000000  0.4722480000000 1.0
C      1  0.4357920000000  0.4353560000000  0.5283810000000 1.0
C      1  0.5509410000000  0.5203320000000  0.5107460000000 1.0
C      1  0.5026820000000  0.5469190000000  0.4050350000000 1.0
C      1  0.4901030000000  0.5215000000000  0.4637310000000 1.0
C      1  0.4071880000000  0.4783720000000  0.5118490000000 1.0
C      1  0.4286130000000  0.5532440000000  0.5076590000000 1.0
C      1  0.5171390000000  0.4606880000000  0.4286140000000 1.0
C      1  0.4033340000000  0.5349580000000  0.4696890000000 1.0
C      1  0.4642940000000  0.5767650000000  0.5295890000000 1.0
C      1  0.4826210000000  0.4149930000000  0.5284730000000 1.0
C      1  0.5879840000000  0.4395720000000  0.5349400000000 1.0
C      1  0.4686860000000  0.5136210000000  0.4063140000000 1.0
C      1  0.4562310000000  0.4860430000000  0.5197870000000 1.0
C      1  0.5325440000000  0.5256010000000  0.4851300000000 1.0
C      1  0.5643300000000  0.5109770000000  0.5877320000000 1.0
C      1  0.4540680000000  0.4154690000000  0.5676590000000 1.0
C      1  0.4892480000000  0.4680950000000  0.5476880000000 1.0
C      1  0.4661750000000  0.5775050000000  0.4792230000000 1.0
C      1  0.4085760000000  0.5544400000000  0.4876070000000 1.0
C      1  0.5036190000000  0.5589280000000  0.5046070000000 1.0
C      1  0.4406780000000  0.4796470000000  0.5691740000000 1.0
C      1  0.4787900000000  0.4686850000000  0.5196270000000 1.0
C      1  0.5279020000000  0.4561260000000  0.5703670000000 1.0
C      1  0.4114200000000  0.4517920000000  0.4690190000000 1.0
C      1  0.5863060000000  0.4968010000000  0.5815850000000 1.0
C      1  0.4187250000000  0.5131640000000  0.4656010000000 1.0
C      1  0.4614910000000  0.4842120000000  0.4597390000000 1.0
C      1  0.5829330000000  0.5310320000000  0.4576510000000 1.0
C      1  0.4255050000000  0.5306760000000  0.5265630000000 1.0
C      1  0.4633820000000  0.5306690000000  0.4574370000000 1.0
C      1  0.4554290000000  0.4234070000000  0.4672690000000 1.0
C      1  0.4891790000000  0.4921810000000  0.4620880000000 1.0
C      1  0.5544690000000  0.4702830000000  0.5214500000000 1.0
C      1  0.4897930000000  0.5205520000000  0.5705810000000 1.0
C      1  0.4700120000000  0.5638120000000  0.5526140000000 1.0
C      1  0.4935000000000  0.4966350000000  0.5534430000000 1.0
C      1  0.5304080000000  0.5760820000000  0.4679200000000 1.0
C      1  0.4313970000000  0.4346500000000  0.4642820000000 1.0
C      1  0.4464620000000  0.4945440000000  0.5462120000000 1.0
C      1  0.5655880000000  0.4414670000000  0.4687820000000 1.0
C      1  0.5186650000000  0.5290320000000  0.5755710000000 1.0
C      1  0.5282910000000  0.5069430000000  0.4077750000000 1.0
C      1  0.5669880000000  0.4448300000000  0.5172250000000 1.0
C      1  0.4814790000000  0.4201400000000  0.4721090000000 1.0
C      1  0.4870400000000  0.5171460000000  0.5086520000000 1.0
C      1  0.4006390000000  0.4701720000000  0.4854600000000 1.0
C      1  0.4669500000000  0.5368890000000  0.5609850000000 1.0
C      1  0.5362570000000  0.5073320000000  0.5859190000000 1.0
C      1  0.5865280000000  0.5398960000000  0.4832980000000 1.0
C      1  0.5311430000000  0.5917150000000  0.4918410000000 1.0
C      1  0.5542980000000  0.4319720000000  0.4943480000000 1.0
END
