TITL C-612601-4209-1474 -0.0774729445752073 125000 -796.889022911507 0 0 130 (C1) n - 1
REM
REM in /home/nfs/bkarasulu/CARBON/AIRSS/Generating-Clusters/TERSOFF/Only-C1/FIRE-HFTN
REM
REM
REM
REM
REM
REM ./C.cell (11c1c37f851c82e70ff6c80c92926a4b)
REM AIRSS Version 0.9.1 bugfix July 2018 build 013d7b7c2542+ Fri, 06 Jul 2018 19:26:36 +0100
REM compiler GCC version 9.2.1 20190827 (Red Hat 9.2.1-1)
REM options -cpp -mtune=generic -march=x86-64 -g -O0 -fpre-include=/usr/include/finclude/math-vector-fortran.h
REM seed -1515944848 841890917 -437043749 1760860074 2097323209 -225998148 994592284 249058795 -225160186 -1966777972 -1932624524 1386538196 -1060189383 -100671431 -1855456659 -51424915 1374714490 -607403701 -586041611 -524589466 1339714115 -1515803255 -1355409065 -992997716 143208823 -666896087 -1358233374 -802127589 -1042773338 -1351935570 -2030730954 1925724300 1976073143
REM
CELL 1.54180   50.00000   50.00000   50.00000   90.00000   90.00000   90.00000
LATT -1
SFAC C  
C      1  0.5465650000000  0.5499520000000  0.5756900000000 1.0
C      1  0.5607610000000  0.4191680000000  0.4748490000000 1.0
C      1  0.5083870000000  0.4524860000000  0.4967430000000 1.0
C      1  0.5797490000000  0.5725010000000  0.4806520000000 1.0
C      1  0.4283750000000  0.4532520000000  0.4397920000000 1.0
C      1  0.6047470000000  0.4818870000000  0.5255140000000 1.0
C      1  0.5806680000000  0.5614640000000  0.5378390000000 1.0
C      1  0.5394540000000  0.5235080000000  0.5389250000000 1.0
C      1  0.4153950000000  0.4622250000000  0.4653530000000 1.0
C      1  0.5042600000000  0.5284400000000  0.4535840000000 1.0
C      1  0.5386430000000  0.5736020000000  0.5599580000000 1.0
C      1  0.4850560000000  0.4119720000000  0.5591230000000 1.0
C      1  0.5522750000000  0.5493920000000  0.4307000000000 1.0
C      1  0.4293600000000  0.5670390000000  0.4363190000000 1.0
C      1  0.3902540000000  0.4788710000000  0.4656770000000 1.0
C      1  0.4590790000000  0.4542120000000  0.5802670000000 1.0
C      1  0.4582110000000  0.4444110000000  0.4854430000000 1.0
C      1  0.5378250000000  0.5077400000000  0.4746510000000 1.0
C      1  0.6046830000000  0.5292050000000  0.4790090000000 1.0
C      1  0.4359590000000  0.5145350000000  0.6086460000000 1.0
C      1  0.4467910000000  0.4696470000000  0.5598410000000 1.0
C      1  0.3723450000000  0.4727160000000  0.4443900000000 1.0
C      1  0.4390090000000  0.5738580000000  0.5285700000000 1.0
C      1  0.4687860000000  0.5831350000000  0.4614460000000 1.0
C      1  0.5419660000000  0.5523770000000  0.4039330000000 1.0
C      1  0.4975510000000  0.5584480000000  0.4189840000000 1.0
C      1  0.4255120000000  0.5589950000000  0.5078920000000 1.0
C      1  0.4605980000000  0.4939630000000  0.5518700000000 1.0
C      1  0.5154590000000  0.5532130000000  0.3978740000000 1.0
C      1  0.5163660000000  0.5542640000000  0.5109660000000 1.0
C      1  0.4797360000000  0.4325560000000  0.5780980000000 1.0
C      1  0.4827530000000  0.4716000000000  0.4542860000000 1.0
C      1  0.5363730000000  0.4444530000000  0.5588900000000 1.0
C      1  0.4731720000000  0.5481700000000  0.4885140000000 1.0
C      1  0.5550890000000  0.4298830000000  0.4488480000000 1.0
C      1  0.5120840000000  0.4242160000000  0.4960300000000 1.0
C      1  0.4635610000000  0.4706220000000  0.4105230000000 1.0
C      1  0.5106820000000  0.5736020000000  0.4404020000000 1.0
C      1  0.5086360000000  0.4913440000000  0.4062450000000 1.0
C      1  0.4470060000000  0.4905840000000  0.6127450000000 1.0
C      1  0.5081000000000  0.4091800000000  0.5409610000000 1.0
C      1  0.3871730000000  0.4757450000000  0.3974350000000 1.0
C      1  0.5626450000000  0.4146520000000  0.5014000000000 1.0
C      1  0.5956970000000  0.4998470000000  0.5461090000000 1.0
C      1  0.4527560000000  0.4351120000000  0.4422940000000 1.0
C      1  0.4708280000000  0.4982930000000  0.4510940000000 1.0
C      1  0.5060590000000  0.4838020000000  0.5543170000000 1.0
C      1  0.4858910000000  0.4958570000000  0.5101710000000 1.0
C      1  0.6191610000000  0.4885270000000  0.5013730000000 1.0
C      1  0.4038930000000  0.5371800000000  0.5073730000000 1.0
C      1  0.5070450000000  0.4837800000000  0.6175820000000 1.0
C      1  0.5449790000000  0.4138710000000  0.4291390000000 1.0
C      1  0.4738470000000  0.4537770000000  0.4329200000000 1.0
C      1  0.5267010000000  0.4662740000000  0.5165550000000 1.0
C      1  0.4210200000000  0.5145780000000  0.5016330000000 1.0
C      1  0.4606250000000  0.4947880000000  0.4981420000000 1.0
C      1  0.5604010000000  0.4193330000000  0.5293260000000 1.0
C      1  0.5345130000000  0.5618800000000  0.4513080000000 1.0
C      1  0.4625230000000  0.4684800000000  0.6056540000000 1.0
C      1  0.5599040000000  0.4574620000000  0.4443130000000 1.0
C      1  0.5636110000000  0.4517250000000  0.5649200000000 1.0
C      1  0.3798230000000  0.5267680000000  0.4946950000000 1.0
C      1  0.4728350000000  0.5453660000000  0.4270720000000 1.0
C      1  0.4949610000000  0.5928960000000  0.4530730000000 1.0
C      1  0.4683270000000  0.5967440000000  0.4947950000000 1.0
C      1  0.5020490000000  0.6157890000000  0.4683410000000 1.0
C      1  0.5078320000000  0.5063210000000  0.5722040000000 1.0
C      1  0.5112880000000  0.5828140000000  0.5541320000000 1.0
C      1  0.5298750000000  0.4935100000000  0.4252820000000 1.0
C      1  0.5537440000000  0.5946320000000  0.5170820000000 1.0
C      1  0.5918130000000  0.4893390000000  0.4580810000000 1.0
C      1  0.4655320000000  0.3976290000000  0.4793460000000 1.0
C      1  0.4344050000000  0.4680480000000  0.4143750000000 1.0
C      1  0.5713710000000  0.4710870000000  0.4671250000000 1.0
C      1  0.4548860000000  0.5054470000000  0.4721160000000 1.0
C      1  0.5227480000000  0.4643610000000  0.5448560000000 1.0
C      1  0.4954160000000  0.5289650000000  0.5565470000000 1.0
C      1  0.5594660000000  0.5805800000000  0.5409480000000 1.0
C      1  0.4352240000000  0.4931690000000  0.5118520000000 1.0
C      1  0.3811440000000  0.5020570000000  0.4813540000000 1.0
C      1  0.4893460000000  0.4621400000000  0.6152800000000 1.0
C      1  0.4866940000000  0.6184300000000  0.4909420000000 1.0
C      1  0.4841740000000  0.4592060000000  0.4809330000000 1.0
C      1  0.4313290000000  0.5700790000000  0.5553460000000 1.0
C      1  0.5529640000000  0.5311660000000  0.4874040000000 1.0
C      1  0.5347900000000  0.4187440000000  0.5451770000000 1.0
C      1  0.4647040000000  0.5863330000000  0.5217120000000 1.0
C      1  0.5522620000000  0.4837640000000  0.4827640000000 1.0
C      1  0.4963820000000  0.4376410000000  0.6015560000000 1.0
C      1  0.4263380000000  0.4667320000000  0.5150050000000 1.0
C      1  0.4284710000000  0.4581180000000  0.5415330000000 1.0
C      1  0.5143340000000  0.5371890000000  0.5350540000000 1.0
C      1  0.5250220000000  0.5099010000000  0.4483060000000 1.0
C      1  0.5128040000000  0.5028120000000  0.5994350000000 1.0
C      1  0.5781260000000  0.5008400000000  0.4340760000000 1.0
C      1  0.4639140000000  0.3941310000000  0.5520260000000 1.0
C      1  0.5742490000000  0.5024450000000  0.5656360000000 1.0
C      1  0.4309410000000  0.4544760000000  0.4896520000000 1.0
C      1  0.5482150000000  0.4833570000000  0.5095080000000 1.0
C      1  0.4666050000000  0.5221960000000  0.5572530000000 1.0
C      1  0.5050170000000  0.5103370000000  0.4949120000000 1.0
C      1  0.4603040000000  0.3841760000000  0.5270160000000 1.0
C      1  0.5812080000000  0.5371210000000  0.5256650000000 1.0
C      1  0.5719280000000  0.5287410000000  0.4325670000000 1.0
C      1  0.5009190000000  0.4049610000000  0.5130860000000 1.0
C      1  0.4278270000000  0.5567170000000  0.5781810000000 1.0
C      1  0.4875170000000  0.5863360000000  0.5404570000000 1.0
C      1  0.5812600000000  0.5439900000000  0.4794320000000 1.0
C      1  0.5782290000000  0.4390290000000  0.5426280000000 1.0
C      1  0.4763870000000  0.3920430000000  0.5050390000000 1.0
C      1  0.4938920000000  0.5313960000000  0.4797640000000 1.0
C      1  0.6076710000000  0.5013680000000  0.4783070000000 1.0
C      1  0.4139430000000  0.4748010000000  0.3966380000000 1.0
C      1  0.5575700000000  0.5192440000000  0.5162810000000 1.0
C      1  0.4293200000000  0.5373520000000  0.5964930000000 1.0
C      1  0.4799150000000  0.4947050000000  0.4070520000000 1.0
C      1  0.4349390000000  0.5243600000000  0.4773620000000 1.0
C      1  0.4448610000000  0.5493030000000  0.4874560000000 1.0
C      1  0.4576230000000  0.4216350000000  0.4671720000000 1.0
C      1  0.4843190000000  0.4871200000000  0.5368180000000 1.0
C      1  0.5559900000000  0.4810490000000  0.4262000000000 1.0
C      1  0.6459470000000  0.4822410000000  0.5003990000000 1.0
C      1  0.5356610000000  0.5585860000000  0.4859140000000 1.0
C      1  0.4718240000000  0.5151210000000  0.4267850000000 1.0
C      1  0.5683530000000  0.4768670000000  0.5768420000000 1.0
C      1  0.5978750000000  0.4546320000000  0.5299500000000 1.0
C      1  0.3698320000000  0.4735460000000  0.4177730000000 1.0
C      1  0.4560230000000  0.5644060000000  0.4425680000000 1.0
C      1  0.5539240000000  0.5239180000000  0.5642800000000 1.0
C      1  0.5549680000000  0.5820260000000  0.4919850000000 1.0
END
