TITL C-612601-4209-965 0.0324221299412055 125000 -107.698115435789 0 0 19 (Cs) n - 1
REM
REM in /home/nfs/bkarasulu/CARBON/AIRSS/Generating-Clusters/TERSOFF/Only-C1/FIRE-HFTN
REM
REM
REM
REM
REM
REM ./C.cell (11c1c37f851c82e70ff6c80c92926a4b)
REM AIRSS Version 0.9.1 bugfix July 2018 build 013d7b7c2542+ Fri, 06 Jul 2018 19:26:36 +0100
REM compiler GCC version 9.2.1 20190827 (Red Hat 9.2.1-1)
REM options -cpp -mtune=generic -march=x86-64 -g -O0 -fpre-include=/usr/include/finclude/math-vector-fortran.h
REM seed 2102447570 -1101843314 -1486957420 -515287658 50189013 -74776793 1467242797 34810153 -1014892676 -989912677 -1188848910 -968833605 -1402536972 -67385467 1137906386 1188090959 -1766285202 1854704352 -2108507151 -297673362 -806166750 -1663583542 -1790039950 2076782216 1387341397 221333909 1326247326 2053950386 1530369425 -593896138 1001948728 -1385648882 -1624133247
REM
CELL 1.54180   50.00000   50.00000   50.00000   90.00000   90.00000   90.00000
LATT -1
SFAC C  
C      1  0.5519220000000  0.5037480000000  0.5304890000000 1.0
C      1  0.5336460000000  0.5011540000000  0.5746900000000 1.0
C      1  0.4311360000000  0.4951410000000  0.4547120000000 1.0
C      1  0.5402620000000  0.5033000000000  0.5066760000000 1.0
C      1  0.5813060000000  0.5053830000000  0.5686990000000 1.0
C      1  0.4623810000000  0.4962990000000  0.5203870000000 1.0
C      1  0.3942840000000  0.4928470000000  0.4172830000000 1.0
C      1  0.4693570000000  0.4975250000000  0.4933310000000 1.0
C      1  0.4125570000000  0.4939850000000  0.4358430000000 1.0
C      1  0.5073870000000  0.4988240000000  0.5780050000000 1.0
C      1  0.4668940000000  0.4960790000000  0.5465450000000 1.0
C      1  0.5240770000000  0.5024400000000  0.4838790000000 1.0
C      1  0.5561760000000  0.5034700000000  0.5581980000000 1.0
C      1  0.4829650000000  0.4969680000000  0.5676840000000 1.0
C      1  0.5573360000000  0.5069920000000  0.4107140000000 1.0
C      1  0.5465950000000  0.5055200000000  0.4344220000000 1.0
C      1  0.4497040000000  0.4962970000000  0.4735670000000 1.0
C      1  0.4963370000000  0.5000020000000  0.4863580000000 1.0
C      1  0.5356770000000  0.5040240000000  0.4585170000000 1.0
END
