TITL C-612606-7351-71 0.0610595270604696 125000 -626.120064058547 0 0 104 (C1) n - 1
REM
REM in /home/nfs/bkarasulu/CARBON/AIRSS/Generating-Clusters/TERSOFF/Only-C1/FIRE-HFTN
REM
REM
REM
REM
REM
REM ./C.cell (11c1c37f851c82e70ff6c80c92926a4b)
REM AIRSS Version 0.9.1 bugfix July 2018 build 013d7b7c2542+ Fri, 06 Jul 2018 19:26:36 +0100
REM compiler GCC version 9.2.1 20190827 (Red Hat 9.2.1-1)
REM options -cpp -mtune=generic -march=x86-64 -g -O0 -fpre-include=/usr/include/finclude/math-vector-fortran.h
REM seed -852810741 2095405270 201103852 -2096839922 -1864691039 816260473 -1778022013 1199258321 -1745413596 1458876396 1149068463 -1726758329 -331048070 -632312119 -1239287909 1803522411 -158603462 -874916895 719160578 1894071564 467169005 1034957718 1549076042 1123087257 1142562701 612770690 1518781512 2102213686 -1065462916 494449355 811651367 -1316179945 -1458505330
REM
CELL 1.54180   50.00000   50.00000   50.00000   90.00000   90.00000   90.00000
LATT -1
SFAC C  
C      1  0.5090420000000  0.4650790000000  0.5331630000000 1.0
C      1  0.4131240000000  0.5108580000000  0.4039840000000 1.0
C      1  0.4954600000000  0.4583170000000  0.4697990000000 1.0
C      1  0.4893230000000  0.4741490000000  0.5490960000000 1.0
C      1  0.4948580000000  0.4496350000000  0.4220460000000 1.0
C      1  0.5239110000000  0.3971020000000  0.4415680000000 1.0
C      1  0.5416380000000  0.5040730000000  0.5727420000000 1.0
C      1  0.4486380000000  0.4542280000000  0.5110730000000 1.0
C      1  0.4639590000000  0.4192410000000  0.4796810000000 1.0
C      1  0.4558860000000  0.5582660000000  0.6244450000000 1.0
C      1  0.4672560000000  0.4763540000000  0.5928140000000 1.0
C      1  0.5105020000000  0.5203630000000  0.6337070000000 1.0
C      1  0.4905220000000  0.4049650000000  0.4807900000000 1.0
C      1  0.4770750000000  0.5219580000000  0.4481510000000 1.0
C      1  0.5527800000000  0.5463730000000  0.4295780000000 1.0
C      1  0.5101640000000  0.5776950000000  0.4771440000000 1.0
C      1  0.5042680000000  0.5412050000000  0.5116100000000 1.0
C      1  0.5117440000000  0.5215980000000  0.6862380000000 1.0
C      1  0.4950350000000  0.5256300000000  0.4680510000000 1.0
C      1  0.5596050000000  0.5235800000000  0.5589010000000 1.0
C      1  0.5414810000000  0.4748800000000  0.5706830000000 1.0
C      1  0.4180930000000  0.4694980000000  0.4626350000000 1.0
C      1  0.5018750000000  0.4947880000000  0.5010160000000 1.0
C      1  0.5301330000000  0.4791820000000  0.4449440000000 1.0
C      1  0.5904630000000  0.4601680000000  0.4964850000000 1.0
C      1  0.5261380000000  0.5570220000000  0.4294220000000 1.0
C      1  0.4864510000000  0.5206830000000  0.4973350000000 1.0
C      1  0.4597620000000  0.4281660000000  0.5079480000000 1.0
C      1  0.4169920000000  0.4971260000000  0.4523480000000 1.0
C      1  0.4852750000000  0.5726320000000  0.5888410000000 1.0
C      1  0.4844300000000  0.4454010000000  0.4476610000000 1.0
C      1  0.5743360000000  0.4968540000000  0.5249830000000 1.0
C      1  0.5820050000000  0.5134610000000  0.5460390000000 1.0
C      1  0.4677860000000  0.5789660000000  0.6097990000000 1.0
C      1  0.5671950000000  0.4530410000000  0.4574390000000 1.0
C      1  0.4048640000000  0.5266190000000  0.3849450000000 1.0
C      1  0.5294470000000  0.4623380000000  0.5127620000000 1.0
C      1  0.4673600000000  0.4813160000000  0.5651950000000 1.0
C      1  0.4400870000000  0.4717070000000  0.4213130000000 1.0
C      1  0.5306950000000  0.4872170000000  0.4976200000000 1.0
C      1  0.5722540000000  0.5726470000000  0.5139430000000 1.0
C      1  0.5440320000000  0.4126360000000  0.4335690000000 1.0
C      1  0.5372320000000  0.4483500000000  0.5631890000000 1.0
C      1  0.5829360000000  0.4787500000000  0.4533540000000 1.0
C      1  0.5756190000000  0.5029330000000  0.4384380000000 1.0
C      1  0.4513700000000  0.5071090000000  0.6302760000000 1.0
C      1  0.5347760000000  0.5308660000000  0.5144100000000 1.0
C      1  0.4169660000000  0.5886750000000  0.4372970000000 1.0
C      1  0.5483910000000  0.5035360000000  0.5148350000000 1.0
C      1  0.5668020000000  0.4454730000000  0.4865710000000 1.0
C      1  0.5681280000000  0.5418000000000  0.4744490000000 1.0
C      1  0.5051870000000  0.5467450000000  0.4121290000000 1.0
C      1  0.3972020000000  0.4823130000000  0.5057060000000 1.0
C      1  0.6015500000000  0.4763820000000  0.4752270000000 1.0
C      1  0.5083770000000  0.5895420000000  0.5489430000000 1.0
C      1  0.5422100000000  0.5440310000000  0.5428500000000 1.0
C      1  0.4326880000000  0.5662810000000  0.4386340000000 1.0
C      1  0.5418580000000  0.5367770000000  0.4843970000000 1.0
C      1  0.5234310000000  0.5839470000000  0.5255640000000 1.0
C      1  0.4558790000000  0.5647240000000  0.4227170000000 1.0
C      1  0.4021420000000  0.4651880000000  0.4853280000000 1.0
C      1  0.5033610000000  0.5691120000000  0.5679900000000 1.0
C      1  0.4574420000000  0.5080240000000  0.4995070000000 1.0
C      1  0.5245170000000  0.4262250000000  0.5479850000000 1.0
C      1  0.5198570000000  0.5216000000000  0.5811830000000 1.0
C      1  0.5706020000000  0.5313000000000  0.4472430000000 1.0
C      1  0.4615700000000  0.4752640000000  0.4032650000000 1.0
C      1  0.4372110000000  0.4540370000000  0.4460850000000 1.0
C      1  0.5099130000000  0.4929020000000  0.4042210000000 1.0
C      1  0.5881620000000  0.4731500000000  0.5208490000000 1.0
C      1  0.4580450000000  0.4359820000000  0.4554520000000 1.0
C      1  0.4447100000000  0.4947580000000  0.5551920000000 1.0
C      1  0.4813340000000  0.4178860000000  0.5249880000000 1.0
C      1  0.5324220000000  0.4937670000000  0.4683410000000 1.0
C      1  0.5605030000000  0.4963400000000  0.4144410000000 1.0
C      1  0.5497560000000  0.5718440000000  0.5315610000000 1.0
C      1  0.4253100000000  0.5452550000000  0.4558470000000 1.0
C      1  0.5296970000000  0.4183340000000  0.5183010000000 1.0
C      1  0.4597290000000  0.4780380000000  0.5006350000000 1.0
C      1  0.5117130000000  0.5209270000000  0.6601780000000 1.0
C      1  0.5086030000000  0.5701420000000  0.5045900000000 1.0
C      1  0.5814570000000  0.5603140000000  0.4913620000000 1.0
C      1  0.5101860000000  0.5204290000000  0.6071980000000 1.0
C      1  0.4591890000000  0.4857710000000  0.6163990000000 1.0
C      1  0.4859450000000  0.4736650000000  0.4906600000000 1.0
C      1  0.4228420000000  0.4949500000000  0.4243920000000 1.0
C      1  0.5180350000000  0.5734400000000  0.4516230000000 1.0
C      1  0.4952340000000  0.4211330000000  0.5502460000000 1.0
C      1  0.5341380000000  0.4865990000000  0.4180140000000 1.0
C      1  0.4221770000000  0.5202650000000  0.4682590000000 1.0
C      1  0.5183070000000  0.5451870000000  0.5637520000000 1.0
C      1  0.5238580000000  0.5216320000000  0.4672170000000 1.0
C      1  0.5590270000000  0.4340730000000  0.4385910000000 1.0
C      1  0.5039870000000  0.3939520000000  0.4589860000000 1.0
C      1  0.4894630000000  0.4724740000000  0.4058620000000 1.0
C      1  0.4233800000000  0.5028830000000  0.5413030000000 1.0
C      1  0.5037690000000  0.4092570000000  0.5064280000000 1.0
C      1  0.4129120000000  0.5039520000000  0.5151520000000 1.0
C      1  0.4498880000000  0.5335960000000  0.6322420000000 1.0
C      1  0.5442390000000  0.4394210000000  0.5040830000000 1.0
C      1  0.4303970000000  0.5159770000000  0.4954170000000 1.0
C      1  0.4624100000000  0.6050800000000  0.6158910000000 1.0
C      1  0.4801220000000  0.5599030000000  0.4126330000000 1.0
C      1  0.5058950000000  0.5207270000000  0.4006140000000 1.0
END
