TITL C-612600-6631-772 0.268985204585264 125000 -647.649432002564 0 0 106 (C1) n - 1
REM
REM in /home/nfs/bkarasulu/CARBON/AIRSS/Generating-Clusters/TERSOFF/Only-C1/FIRE-HFTN
REM
REM
REM
REM
REM
REM ./C.cell (11c1c37f851c82e70ff6c80c92926a4b)
REM AIRSS Version 0.9.1 bugfix July 2018 build 013d7b7c2542+ Fri, 06 Jul 2018 19:26:36 +0100
REM compiler GCC version 9.2.1 20190827 (Red Hat 9.2.1-1)
REM options -cpp -mtune=generic -march=x86-64 -g -O0 -fpre-include=/usr/include/finclude/math-vector-fortran.h
REM seed 1715496315 -1647912 286445573 599218116 455670694 -1001951911 990645885 1055236900 1134938094 1904624270 -715644428 1980871507 -460886655 -1208675116 1608098861 -512037850 -300761001 -1662113029 -1154957144 -1661526891 1794794293 946660141 573345794 -1516993524 -1713404864 2083987625 413240358 192911263 -1264520721 -1532740771 1415277108 -965976772 706566236
REM
CELL 1.54180   50.00000   50.00000   50.00000   90.00000   90.00000   90.00000
LATT -1
SFAC C  
C      1  0.4555360000000  0.5729220000000  0.5812650000000 1.0
C      1  0.5735590000000  0.5022340000000  0.4867370000000 1.0
C      1  0.5182480000000  0.5848660000000  0.5535450000000 1.0
C      1  0.5794710000000  0.5650150000000  0.5470770000000 1.0
C      1  0.4797980000000  0.5121650000000  0.5853820000000 1.0
C      1  0.5061940000000  0.5852440000000  0.5279280000000 1.0
C      1  0.6000510000000  0.5598280000000  0.5285780000000 1.0
C      1  0.4543610000000  0.5295610000000  0.4732580000000 1.0
C      1  0.4536300000000  0.4877900000000  0.5293230000000 1.0
C      1  0.3978820000000  0.4922550000000  0.5005750000000 1.0
C      1  0.5037790000000  0.3722170000000  0.4771680000000 1.0
C      1  0.5539360000000  0.4770930000000  0.5486060000000 1.0
C      1  0.5490000000000  0.5054150000000  0.4407400000000 1.0
C      1  0.4096460000000  0.5101070000000  0.4294620000000 1.0
C      1  0.5531800000000  0.5445500000000  0.4687740000000 1.0
C      1  0.5750980000000  0.4813050000000  0.5304520000000 1.0
C      1  0.5456710000000  0.4764110000000  0.4413360000000 1.0
C      1  0.4818040000000  0.3867500000000  0.4806910000000 1.0
C      1  0.5160360000000  0.5395410000000  0.5705930000000 1.0
C      1  0.5612460000000  0.5287940000000  0.5736900000000 1.0
C      1  0.4643130000000  0.6381120000000  0.4537800000000 1.0
C      1  0.3951930000000  0.5193890000000  0.4081010000000 1.0
C      1  0.4565650000000  0.4978880000000  0.4170690000000 1.0
C      1  0.5649130000000  0.5894560000000  0.4871630000000 1.0
C      1  0.4690240000000  0.4095730000000  0.4850970000000 1.0
C      1  0.5442450000000  0.6029530000000  0.4975680000000 1.0
C      1  0.5557460000000  0.4191780000000  0.4314380000000 1.0
C      1  0.5170680000000  0.4729640000000  0.4442570000000 1.0
C      1  0.4979470000000  0.5018860000000  0.4797260000000 1.0
C      1  0.5080720000000  0.4763930000000  0.4704740000000 1.0
C      1  0.5090080000000  0.5733470000000  0.4616510000000 1.0
C      1  0.4421890000000  0.5897860000000  0.5967310000000 1.0
C      1  0.4492610000000  0.5363000000000  0.4457250000000 1.0
C      1  0.5816290000000  0.5168290000000  0.5869410000000 1.0
C      1  0.4629710000000  0.4356290000000  0.4930860000000 1.0
C      1  0.5201490000000  0.6007050000000  0.5090710000000 1.0
C      1  0.4214110000000  0.5083050000000  0.5004280000000 1.0
C      1  0.4318510000000  0.4933470000000  0.5477130000000 1.0
C      1  0.4905080000000  0.5517810000000  0.4183810000000 1.0
C      1  0.4995290000000  0.4436240000000  0.3875020000000 1.0
C      1  0.3963970000000  0.4963880000000  0.4502160000000 1.0
C      1  0.4251930000000  0.4463060000000  0.4646090000000 1.0
C      1  0.6267420000000  0.5196410000000  0.5339750000000 1.0
C      1  0.3982340000000  0.4692230000000  0.5209320000000 1.0
C      1  0.4884480000000  0.5367790000000  0.5752340000000 1.0
C      1  0.5589780000000  0.4131220000000  0.4586190000000 1.0
C      1  0.5603430000000  0.4483690000000  0.5009360000000 1.0
C      1  0.6449980000000  0.5066680000000  0.5472990000000 1.0
C      1  0.4160210000000  0.4679720000000  0.5444160000000 1.0
C      1  0.5136500000000  0.4685630000000  0.5160370000000 1.0
C      1  0.4813220000000  0.4857130000000  0.4111580000000 1.0
C      1  0.5025940000000  0.5406980000000  0.5093250000000 1.0
C      1  0.5248460000000  0.4424740000000  0.5685770000000 1.0
C      1  0.4798820000000  0.4861430000000  0.5799680000000 1.0
C      1  0.4296800000000  0.5224590000000  0.5459290000000 1.0
C      1  0.5053110000000  0.4915900000000  0.4250280000000 1.0
C      1  0.4655550000000  0.4435630000000  0.5201290000000 1.0
C      1  0.4832580000000  0.4659870000000  0.5610850000000 1.0
C      1  0.4370110000000  0.5332060000000  0.4976400000000 1.0
C      1  0.4508120000000  0.4538500000000  0.4745510000000 1.0
C      1  0.4377710000000  0.5146530000000  0.4302040000000 1.0
C      1  0.5646340000000  0.4327640000000  0.4778100000000 1.0
C      1  0.4554640000000  0.4813350000000  0.4799410000000 1.0
C      1  0.5450070000000  0.4500640000000  0.5499890000000 1.0
C      1  0.4430710000000  0.4894850000000  0.5036670000000 1.0
C      1  0.5462260000000  0.4354390000000  0.5244800000000 1.0
C      1  0.4657450000000  0.5555290000000  0.5361630000000 1.0
C      1  0.5031420000000  0.4062440000000  0.5359060000000 1.0
C      1  0.4896140000000  0.5624280000000  0.5215850000000 1.0
C      1  0.5925100000000  0.5195200000000  0.4999480000000 1.0
C      1  0.5593830000000  0.5166770000000  0.4650060000000 1.0
C      1  0.5173070000000  0.4954850000000  0.5244010000000 1.0
C      1  0.5114660000000  0.4583150000000  0.4913070000000 1.0
C      1  0.5596180000000  0.5565140000000  0.5647030000000 1.0
C      1  0.5705480000000  0.5651050000000  0.4771440000000 1.0
C      1  0.3999270000000  0.4529460000000  0.4755510000000 1.0
C      1  0.4835390000000  0.4188560000000  0.5533690000000 1.0
C      1  0.3927230000000  0.4814020000000  0.4735360000000 1.0
C      1  0.4309050000000  0.4417370000000  0.5507130000000 1.0
C      1  0.4719390000000  0.4679310000000  0.5345920000000 1.0
C      1  0.5213340000000  0.4295490000000  0.3935380000000 1.0
C      1  0.5417960000000  0.4224720000000  0.4090160000000 1.0
C      1  0.4964960000000  0.4414120000000  0.5668010000000 1.0
C      1  0.4833470000000  0.4640900000000  0.3932480000000 1.0
C      1  0.5510300000000  0.3875870000000  0.4671250000000 1.0
C      1  0.6061040000000  0.5330200000000  0.5205550000000 1.0
C      1  0.5245810000000  0.5140850000000  0.4250210000000 1.0
C      1  0.5079160000000  0.5138280000000  0.5043370000000 1.0
C      1  0.5315200000000  0.5638610000000  0.5660780000000 1.0
C      1  0.5350480000000  0.5179520000000  0.5670220000000 1.0
C      1  0.4794540000000  0.6170000000000  0.4559210000000 1.0
C      1  0.4946230000000  0.5954100000000  0.4584100000000 1.0
C      1  0.5266560000000  0.4140330000000  0.5239000000000 1.0
C      1  0.6155840000000  0.5804300000000  0.5193250000000 1.0
C      1  0.3946220000000  0.4461430000000  0.5033180000000 1.0
C      1  0.5337020000000  0.4976400000000  0.5477920000000 1.0
C      1  0.4430610000000  0.5406790000000  0.5260170000000 1.0
C      1  0.4706780000000  0.5050680000000  0.4737350000000 1.0
C      1  0.4669160000000  0.5528760000000  0.4312240000000 1.0
C      1  0.5138240000000  0.5385260000000  0.4163870000000 1.0
C      1  0.5300580000000  0.3722590000000  0.4729630000000 1.0
C      1  0.4564410000000  0.4269010000000  0.5427190000000 1.0
C      1  0.4290480000000  0.6064020000000  0.6119250000000 1.0
C      1  0.5700670000000  0.4767780000000  0.5021920000000 1.0
C      1  0.4694790000000  0.5553680000000  0.5647590000000 1.0
C      1  0.5270820000000  0.5539770000000  0.4639110000000 1.0
END
