TITL C-612606-7351-1322 0.000329310530044885 125000 -491.347951633754 0 0 82 (C1) n - 1
REM
REM in /home/nfs/bkarasulu/CARBON/AIRSS/Generating-Clusters/TERSOFF/Only-C1/FIRE-HFTN
REM
REM
REM
REM
REM
REM ./C.cell (11c1c37f851c82e70ff6c80c92926a4b)
REM AIRSS Version 0.9.1 bugfix July 2018 build 013d7b7c2542+ Fri, 06 Jul 2018 19:26:36 +0100
REM compiler GCC version 9.2.1 20190827 (Red Hat 9.2.1-1)
REM options -cpp -mtune=generic -march=x86-64 -g -O0 -fpre-include=/usr/include/finclude/math-vector-fortran.h
REM seed -1238169526 -414776614 -1762021404 779450119 588193241 697406335 1992264507 787569584 1320018550 1665543980 -194045192 -1334177587 1039865680 95250172 -726319678 -97390526 2033654363 -47319194 346991776 -108024835 -1735397740 1405065885 -707514096 883837488 -1063141644 -181280618 -985674529 -453354834 928394719 -2032483255 1749874319 711678968 2108790487
REM
CELL 1.54180   50.00000   50.00000   50.00000   90.00000   90.00000   90.00000
LATT -1
SFAC C  
C      1  0.4378170000000  0.5834260000000  0.5385740000000 1.0
C      1  0.5292220000000  0.5075770000000  0.3950620000000 1.0
C      1  0.5192880000000  0.5617360000000  0.4722750000000 1.0
C      1  0.4926900000000  0.4125550000000  0.5049490000000 1.0
C      1  0.5223210000000  0.5456170000000  0.4497350000000 1.0
C      1  0.4544460000000  0.5858650000000  0.5597950000000 1.0
C      1  0.5060780000000  0.5549280000000  0.4964560000000 1.0
C      1  0.4469500000000  0.5195300000000  0.4361170000000 1.0
C      1  0.4547400000000  0.4309160000000  0.4446320000000 1.0
C      1  0.5279900000000  0.5107220000000  0.6009020000000 1.0
C      1  0.4385450000000  0.4887740000000  0.5743320000000 1.0
C      1  0.4413940000000  0.5538050000000  0.4989810000000 1.0
C      1  0.4656570000000  0.4888320000000  0.4991690000000 1.0
C      1  0.4818260000000  0.4389600000000  0.4428480000000 1.0
C      1  0.4085800000000  0.5031570000000  0.4619550000000 1.0
C      1  0.4512030000000  0.5407770000000  0.4540650000000 1.0
C      1  0.4032970000000  0.5103270000000  0.4874160000000 1.0
C      1  0.5088260000000  0.4295700000000  0.4889460000000 1.0
C      1  0.4199530000000  0.4689900000000  0.5672200000000 1.0
C      1  0.4689540000000  0.5092920000000  0.4200340000000 1.0
C      1  0.5021220000000  0.5745990000000  0.5430260000000 1.0
C      1  0.4796460000000  0.4912370000000  0.6075110000000 1.0
C      1  0.5931460000000  0.5108010000000  0.5651520000000 1.0
C      1  0.4869110000000  0.4593060000000  0.4228830000000 1.0
C      1  0.4962340000000  0.5037010000000  0.5485410000000 1.0
C      1  0.5462930000000  0.5253500000000  0.5854700000000 1.0
C      1  0.5413310000000  0.4949520000000  0.4210630000000 1.0
C      1  0.5237660000000  0.4488430000000  0.5033650000000 1.0
C      1  0.4556440000000  0.4870680000000  0.5965670000000 1.0
C      1  0.6061310000000  0.5063490000000  0.5183790000000 1.0
C      1  0.6188090000000  0.3999730000000  0.5703860000000 1.0
C      1  0.4735360000000  0.5162520000000  0.4930650000000 1.0
C      1  0.5165930000000  0.5321240000000  0.4049150000000 1.0
C      1  0.5049790000000  0.4995500000000  0.6084130000000 1.0
C      1  0.4735010000000  0.4215140000000  0.5216840000000 1.0
C      1  0.4099650000000  0.4525400000000  0.5200250000000 1.0
C      1  0.5443070000000  0.4591620000000  0.5458880000000 1.0
C      1  0.5793510000000  0.5189660000000  0.4484760000000 1.0
C      1  0.5377110000000  0.5481480000000  0.5717050000000 1.0
C      1  0.6051640000000  0.4962320000000  0.5444460000000 1.0
C      1  0.5383230000000  0.5422680000000  0.4252520000000 1.0
C      1  0.4275810000000  0.4986970000000  0.4416440000000 1.0
C      1  0.4545750000000  0.5354250000000  0.4820110000000 1.0
C      1  0.4391620000000  0.4743720000000  0.4308890000000 1.0
C      1  0.5396100000000  0.4658320000000  0.4143110000000 1.0
C      1  0.4470410000000  0.5775740000000  0.5125460000000 1.0
C      1  0.4097930000000  0.5145020000000  0.5132360000000 1.0
C      1  0.5743450000000  0.5127640000000  0.4761150000000 1.0
C      1  0.5725260000000  0.5168560000000  0.5807920000000 1.0
C      1  0.4252640000000  0.5156100000000  0.5352280000000 1.0
C      1  0.4676880000000  0.4472910000000  0.5266040000000 1.0
C      1  0.5948350000000  0.4460160000000  0.5559400000000 1.0
C      1  0.5015240000000  0.4809530000000  0.5326760000000 1.0
C      1  0.5613570000000  0.4496560000000  0.4120210000000 1.0
C      1  0.4520200000000  0.5665500000000  0.4447720000000 1.0
C      1  0.4343630000000  0.4475910000000  0.4381700000000 1.0
C      1  0.5250300000000  0.5637210000000  0.5544380000000 1.0
C      1  0.4426080000000  0.4761440000000  0.4889900000000 1.0
C      1  0.6095380000000  0.4689120000000  0.5491280000000 1.0
C      1  0.6050410000000  0.5240000000000  0.4402250000000 1.0
C      1  0.5956670000000  0.5113100000000  0.4944260000000 1.0
C      1  0.4447340000000  0.5088490000000  0.5546240000000 1.0
C      1  0.5209350000000  0.4967470000000  0.4450380000000 1.0
C      1  0.4092800000000  0.4557600000000  0.5465720000000 1.0
C      1  0.5242520000000  0.4644880000000  0.5272790000000 1.0
C      1  0.5057710000000  0.5213700000000  0.4473590000000 1.0
C      1  0.4779890000000  0.4725280000000  0.5191980000000 1.0
C      1  0.4965060000000  0.5741060000000  0.5149060000000 1.0
C      1  0.5669470000000  0.4485260000000  0.5547980000000 1.0
C      1  0.4722720000000  0.5156640000000  0.5529800000000 1.0
C      1  0.5003710000000  0.5265710000000  0.4981930000000 1.0
C      1  0.5487050000000  0.5081520000000  0.4868680000000 1.0
C      1  0.4226850000000  0.4603990000000  0.4978200000000 1.0
C      1  0.4926880000000  0.5243580000000  0.4208780000000 1.0
C      1  0.5124960000000  0.4578690000000  0.4110350000000 1.0
C      1  0.4666360000000  0.4799580000000  0.4200200000000 1.0
C      1  0.5239180000000  0.5109480000000  0.4965010000000 1.0
C      1  0.6072150000000  0.4222420000000  0.5633910000000 1.0
C      1  0.5585210000000  0.5200500000000  0.4293040000000 1.0
C      1  0.5010900000000  0.4325860000000  0.4621700000000 1.0
C      1  0.4729580000000  0.5878370000000  0.5068940000000 1.0
C      1  0.4812200000000  0.5829210000000  0.5603330000000 1.0
END
