TITL C-612607-4507-996 0.0165998862391422 125000 -555.002009726226 0 0 92 (C1) n - 1
REM
REM in /home/nfs/bkarasulu/CARBON/AIRSS/Generating-Clusters/TERSOFF/Only-C1/FIRE-HFTN
REM
REM
REM
REM
REM
REM ./C.cell (11c1c37f851c82e70ff6c80c92926a4b)
REM AIRSS Version 0.9.1 bugfix July 2018 build 013d7b7c2542+ Fri, 06 Jul 2018 19:26:36 +0100
REM compiler GCC version 9.2.1 20190827 (Red Hat 9.2.1-1)
REM options -cpp -mtune=generic -march=x86-64 -g -O0 -fpre-include=/usr/include/finclude/math-vector-fortran.h
REM seed -1699142100 437230226 1945169433 1758077184 -2137801557 -1420761350 -545078651 -651364823 -786801942 -1183282254 1403088898 838300281 -1127076909 2017740305 1031216154 1688761236 589253025 -742542087 641750815 -414498106 -1353968033 1642011336 1955383662 -1678028727 -612879535 1812641114 -377639499 -840761923 -1248648546 1787527721 1774826177 185143295 -568010499
REM
CELL 1.54180   50.00000   50.00000   50.00000   90.00000   90.00000   90.00000
LATT -1
SFAC C  
C      1  0.5118620000000  0.4902130000000  0.4726070000000 1.0
C      1  0.5526300000000  0.5390780000000  0.5486560000000 1.0
C      1  0.5039620000000  0.4334260000000  0.4798280000000 1.0
C      1  0.5681250000000  0.5612730000000  0.4389670000000 1.0
C      1  0.5129600000000  0.5169980000000  0.4643430000000 1.0
C      1  0.5347320000000  0.4564620000000  0.4299930000000 1.0
C      1  0.5592230000000  0.4883780000000  0.4703320000000 1.0
C      1  0.5015580000000  0.4538630000000  0.5767120000000 1.0
C      1  0.5279460000000  0.5548910000000  0.4976570000000 1.0
C      1  0.4675600000000  0.4823070000000  0.5335650000000 1.0
C      1  0.4218030000000  0.4966450000000  0.5198060000000 1.0
C      1  0.4629570000000  0.5718230000000  0.4781100000000 1.0
C      1  0.5304050000000  0.4262640000000  0.4709340000000 1.0
C      1  0.5547420000000  0.4966650000000  0.4420660000000 1.0
C      1  0.4916190000000  0.5714110000000  0.5675030000000 1.0
C      1  0.4596080000000  0.5064720000000  0.4951010000000 1.0
C      1  0.5502270000000  0.5484140000000  0.4558390000000 1.0
C      1  0.4316330000000  0.4982480000000  0.4930510000000 1.0
C      1  0.5447380000000  0.5108960000000  0.5692860000000 1.0
C      1  0.5106600000000  0.5341890000000  0.4234380000000 1.0
C      1  0.4061030000000  0.4396630000000  0.4736780000000 1.0
C      1  0.4736720000000  0.4572380000000  0.5721180000000 1.0
C      1  0.5226050000000  0.5096740000000  0.5280120000000 1.0
C      1  0.5059990000000  0.5838490000000  0.4282740000000 1.0
C      1  0.4560930000000  0.5065500000000  0.5750910000000 1.0
C      1  0.5899640000000  0.4864330000000  0.5045860000000 1.0
C      1  0.4940440000000  0.5835290000000  0.5195390000000 1.0
C      1  0.4191950000000  0.4317090000000  0.5234390000000 1.0
C      1  0.5344790000000  0.4800590000000  0.4870850000000 1.0
C      1  0.4881950000000  0.3978030000000  0.5385250000000 1.0
C      1  0.5522930000000  0.5492720000000  0.4841720000000 1.0
C      1  0.5293020000000  0.5194280000000  0.5912890000000 1.0
C      1  0.5084260000000  0.3892240000000  0.5232590000000 1.0
C      1  0.4698020000000  0.4131330000000  0.5504850000000 1.0
C      1  0.4093320000000  0.4305620000000  0.4985760000000 1.0
C      1  0.5715200000000  0.5333920000000  0.4983110000000 1.0
C      1  0.5029190000000  0.5415230000000  0.5004460000000 1.0
C      1  0.5343500000000  0.4857000000000  0.4249780000000 1.0
C      1  0.4101860000000  0.4554340000000  0.4525140000000 1.0
C      1  0.5351750000000  0.4612700000000  0.5111770000000 1.0
C      1  0.5282510000000  0.5334050000000  0.4468730000000 1.0
C      1  0.4265260000000  0.5399530000000  0.5473370000000 1.0
C      1  0.4438580000000  0.5175660000000  0.4545060000000 1.0
C      1  0.5841890000000  0.5734180000000  0.4224310000000 1.0
C      1  0.4392670000000  0.5263820000000  0.5684390000000 1.0
C      1  0.4375870000000  0.4752610000000  0.5316590000000 1.0
C      1  0.5709120000000  0.4592180000000  0.4677370000000 1.0
C      1  0.4174540000000  0.5253300000000  0.5247920000000 1.0
C      1  0.4925890000000  0.5581260000000  0.4296850000000 1.0
C      1  0.5159130000000  0.5063260000000  0.4129990000000 1.0
C      1  0.4671520000000  0.5220060000000  0.4723730000000 1.0
C      1  0.4870260000000  0.4541590000000  0.4900720000000 1.0
C      1  0.5325310000000  0.5598910000000  0.5463970000000 1.0
C      1  0.4303700000000  0.5676130000000  0.5426110000000 1.0
C      1  0.5112160000000  0.4230410000000  0.3945710000000 1.0
C      1  0.4359040000000  0.5792340000000  0.5187540000000 1.0
C      1  0.5003320000000  0.6028420000000  0.4742830000000 1.0
C      1  0.4882770000000  0.4747240000000  0.4699680000000 1.0
C      1  0.4942800000000  0.5561800000000  0.5895130000000 1.0
C      1  0.5067360000000  0.5730560000000  0.5435520000000 1.0
C      1  0.4844980000000  0.5872400000000  0.4922110000000 1.0
C      1  0.5096650000000  0.5361420000000  0.5984730000000 1.0
C      1  0.5724850000000  0.5393220000000  0.5271730000000 1.0
C      1  0.5660310000000  0.4696220000000  0.5463810000000 1.0
C      1  0.4866530000000  0.4622100000000  0.5185710000000 1.0
C      1  0.4705760000000  0.5625990000000  0.4502490000000 1.0
C      1  0.5668470000000  0.4238990000000  0.5268290000000 1.0
C      1  0.4214970000000  0.5419230000000  0.4934360000000 1.0
C      1  0.4459080000000  0.4913940000000  0.4421890000000 1.0
C      1  0.4924640000000  0.5321920000000  0.4758820000000 1.0
C      1  0.4222080000000  0.5198310000000  0.4746620000000 1.0
C      1  0.5777900000000  0.5069660000000  0.4868520000000 1.0
C      1  0.5569640000000  0.4492070000000  0.5273500000000 1.0
C      1  0.5231920000000  0.4391890000000  0.4111490000000 1.0
C      1  0.4387920000000  0.5652930000000  0.4939260000000 1.0
C      1  0.5483540000000  0.5035660000000  0.5237210000000 1.0
C      1  0.5385720000000  0.4021160000000  0.4832770000000 1.0
C      1  0.5446310000000  0.4808890000000  0.5633110000000 1.0
C      1  0.4688440000000  0.4843220000000  0.5637380000000 1.0
C      1  0.4353260000000  0.4476000000000  0.5401140000000 1.0
C      1  0.5199510000000  0.4655860000000  0.5585330000000 1.0
C      1  0.4233130000000  0.4747840000000  0.4394330000000 1.0
C      1  0.5271820000000  0.3891710000000  0.5040950000000 1.0
C      1  0.5743060000000  0.4900630000000  0.5283230000000 1.0
C      1  0.5473280000000  0.4445730000000  0.4549450000000 1.0
C      1  0.4573460000000  0.4377040000000  0.5572040000000 1.0
C      1  0.5914170000000  0.4613060000000  0.4888780000000 1.0
C      1  0.5087290000000  0.6015260000000  0.4486750000000 1.0
C      1  0.4743600000000  0.5072290000000  0.5190380000000 1.0
C      1  0.4702040000000  0.4779200000000  0.4486550000000 1.0
C      1  0.4986880000000  0.5218270000000  0.5206670000000 1.0
C      1  0.5129050000000  0.4616990000000  0.5301600000000 1.0
END
