TITL C-612606-7351-408 -309.857073350855 125000 -729.527786795544 0 0 119 (C1) n - 1
REM
REM in /home/nfs/bkarasulu/CARBON/AIRSS/Generating-Clusters/TERSOFF/Only-C1/FIRE-HFTN
REM
REM
REM
REM
REM
REM ./C.cell (11c1c37f851c82e70ff6c80c92926a4b)
REM AIRSS Version 0.9.1 bugfix July 2018 build 013d7b7c2542+ Fri, 06 Jul 2018 19:26:36 +0100
REM compiler GCC version 9.2.1 20190827 (Red Hat 9.2.1-1)
REM options -cpp -mtune=generic -march=x86-64 -g -O0 -fpre-include=/usr/include/finclude/math-vector-fortran.h
REM seed 284476953 -546701617 415410255 -490728867 1940335375 2041170793 -345456988 -793554103 2107923239 769912713 -1802271948 490096513 -1149461647 63938266 -386710736 251736239 -1048215696 618600902 -1894976269 -1369365747 -349734295 -1071137144 1324934797 1059151193 -1366605088 1022973449 -701292753 -1344973129 331137020 1574886727 -2114419055 -994195539 -631314792
REM
CELL 1.54180   50.00000   50.00000   50.00000   90.00000   90.00000   90.00000
LATT -1
SFAC C  
C      1  0.5093860000000  0.4331240000000  0.5614240000000 1.0
C      1  0.5739590000000  0.4558660000000  0.4546270000000 1.0
C      1  0.4848620000000  0.4818400000000  0.3855740000000 1.0
C      1  0.5509280000000  0.5331230000000  0.5048960000000 1.0
C      1  0.5072070000000  0.5652100000000  0.5454360000000 1.0
C      1  0.5031870000000  0.5376340000000  0.5066640000000 1.0
C      1  0.4952140000000  0.5000910000000  0.4447110000000 1.0
C      1  0.4860910000000  0.4729700000000  0.4434850000000 1.0
C      1  0.5358820000000  0.4744950000000  0.5188400000000 1.0
C      1  0.4042970000000  0.4822240000000  0.5090400000000 1.0
C      1  0.4876360000000  0.5093620000000  0.5923760000000 1.0
C      1  0.4903890000000  0.5715780000000  0.4321520000000 1.0
C      1  0.4718350000000  0.5031460000000  0.3993510000000 1.0
C      1  0.5181670000000  0.4808310000000  0.4984790000000 1.0
C      1  0.4815590000000  0.5255660000000  0.4467950000000 1.0
C      1  0.5435080000000  0.5558810000000  0.4297090000000 1.0
C      1  0.4966820000000  0.4651230000000  0.4915860000000 1.0
C      1  0.5829490000000  0.5242420000000  0.5864640000000 1.0
C      1  0.5239910000000  0.6003150000000  0.5744760000000 1.0
C      1  0.5007210000000  0.5925760000000  0.5053720000000 1.0
C      1  0.5905140000000  0.4476220000000  0.4343620000000 1.0
C      1  0.4037100000000  0.5796210000000  0.4506520000000 1.0
C      1  0.5236490000000  0.5022870000000  0.4819560000000 1.0
C      1  0.4440450000000  0.4440610000000  0.4806970000000 1.0
C      1  0.3958890000000  0.5955590000000  0.4315630000000 1.0
C      1  0.3518970000000  0.4351340000000  0.5313300000000 1.0
C      1  0.4869370000000  0.4145520000000  0.4748320000000 1.0
C      1  0.4968840000000  0.4575660000000  0.4647630000000 1.0
C      1  0.5961750000000  0.4647510000000  0.5447630000000 1.0
C      1  0.4852920000000  0.5071980000000  0.5637790000000 1.0
C      1  0.4702980000000  0.5364030000000  0.4702850000000 1.0
C      1  0.5529820000000  0.4387290000000  0.4635690000000 1.0
C      1  0.4446580000000  0.5274160000000  0.4774810000000 1.0
C      1  0.4800470000000  0.5923340000000  0.4175940000000 1.0
C      1  0.4207140000000  0.4585550000000  0.5462960000000 1.0
C      1  0.4465000000000  0.4991060000000  0.4807950000000 1.0
C      1  0.5656300000000  0.5476420000000  0.4848570000000 1.0
C      1  0.5316000000000  0.4340840000000  0.4181440000000 1.0
C      1  0.4482550000000  0.5009150000000  0.5263240000000 1.0
C      1  0.3813230000000  0.4736150000000  0.4661810000000 1.0
C      1  0.5082570000000  0.5139270000000  0.5475820000000 1.0
C      1  0.4894830000000  0.5831800000000  0.5308790000000 1.0
C      1  0.4495480000000  0.4164490000000  0.5435080000000 1.0
C      1  0.4596940000000  0.4250830000000  0.4653970000000 1.0
C      1  0.5308890000000  0.4093890000000  0.4946980000000 1.0
C      1  0.4128740000000  0.5635430000000  0.4696090000000 1.0
C      1  0.5058420000000  0.4312330000000  0.4588660000000 1.0
C      1  0.4042360000000  0.4771520000000  0.4806020000000 1.0
C      1  0.4730040000000  0.4671840000000  0.5057980000000 1.0
C      1  0.3743480000000  0.4483240000000  0.5302900000000 1.0
C      1  0.5218180000000  0.6251400000000  0.5821030000000 1.0
C      1  0.5677490000000  0.4182690000000  0.5492430000000 1.0
C      1  0.4619620000000  0.5791910000000  0.5372950000000 1.0
C      1  0.4593630000000  0.4316820000000  0.4372290000000 1.0
C      1  0.4193610000000  0.5032830000000  0.5209440000000 1.0
C      1  0.4097990000000  0.5277330000000  0.5306960000000 1.0
C      1  0.4843460000000  0.5442170000000  0.4255060000000 1.0
C      1  0.4350120000000  0.4843840000000  0.4369800000000 1.0
C      1  0.4261670000000  0.5469720000000  0.4877750000000 1.0
C      1  0.4698570000000  0.4004640000000  0.5361110000000 1.0
C      1  0.5794310000000  0.5306360000000  0.4666890000000 1.0
C      1  0.5312380000000  0.4311170000000  0.4460590000000 1.0
C      1  0.5489550000000  0.5940060000000  0.4930770000000 1.0
C      1  0.4342020000000  0.5082550000000  0.5677080000000 1.0
C      1  0.6082680000000  0.4796140000000  0.5663340000000 1.0
C      1  0.5267390000000  0.6039110000000  0.5049230000000 1.0
C      1  0.4960280000000  0.4027130000000  0.5261150000000 1.0
C      1  0.4613720000000  0.4922900000000  0.5039570000000 1.0
C      1  0.5056460000000  0.5389960000000  0.5347510000000 1.0
C      1  0.5210140000000  0.4461990000000  0.3967860000000 1.0
C      1  0.5190990000000  0.5249300000000  0.4005340000000 1.0
C      1  0.5360090000000  0.4965050000000  0.5419830000000 1.0
C      1  0.5355580000000  0.5706570000000  0.4526110000000 1.0
C      1  0.5453830000000  0.5090100000000  0.4396610000000 1.0
C      1  0.6329560000000  0.4712530000000  0.5751550000000 1.0
C      1  0.4883560000000  0.5297270000000  0.3992660000000 1.0
C      1  0.5259040000000  0.5739540000000  0.5651360000000 1.0
C      1  0.5500580000000  0.4508910000000  0.5122120000000 1.0
C      1  0.5199510000000  0.4564090000000  0.5684550000000 1.0
C      1  0.5972680000000  0.4742020000000  0.5179410000000 1.0
C      1  0.5787850000000  0.4813320000000  0.4669430000000 1.0
C      1  0.5967490000000  0.5022770000000  0.5789880000000 1.0
C      1  0.6077840000000  0.5354520000000  0.5358710000000 1.0
C      1  0.4486420000000  0.4968120000000  0.4163330000000 1.0
C      1  0.5397200000000  0.5293990000000  0.4200500000000 1.0
C      1  0.4948970000000  0.5767530000000  0.4816660000000 1.0
C      1  0.4810560000000  0.5463830000000  0.3753350000000 1.0
C      1  0.4214240000000  0.5501220000000  0.5155590000000 1.0
C      1  0.5440990000000  0.4057540000000  0.5456590000000 1.0
C      1  0.5483510000000  0.4316240000000  0.4911660000000 1.0
C      1  0.5580690000000  0.5195340000000  0.5289010000000 1.0
C      1  0.5702470000000  0.5062770000000  0.4547260000000 1.0
C      1  0.5462400000000  0.5576300000000  0.5760920000000 1.0
C      1  0.5108000000000  0.5213720000000  0.6031870000000 1.0
C      1  0.5531200000000  0.5720980000000  0.4756440000000 1.0
C      1  0.5221720000000  0.5015210000000  0.4541330000000 1.0
C      1  0.5072260000000  0.5769340000000  0.4552610000000 1.0
C      1  0.5839430000000  0.5248030000000  0.5372060000000 1.0
C      1  0.4234170000000  0.4802000000000  0.5664820000000 1.0
C      1  0.4226830000000  0.5332580000000  0.5565530000000 1.0
C      1  0.5381520000000  0.5165280000000  0.5995870000000 1.0
C      1  0.5443230000000  0.4900940000000  0.5920080000000 1.0
C      1  0.5256950000000  0.5261770000000  0.4952380000000 1.0
C      1  0.4403910000000  0.5625950000000  0.5421620000000 1.0
C      1  0.5912980000000  0.4807850000000  0.4925640000000 1.0
C      1  0.5366470000000  0.4788830000000  0.5675530000000 1.0
C      1  0.4317320000000  0.4760690000000  0.4671280000000 1.0
C      1  0.5024860000000  0.4054010000000  0.4982560000000 1.0
C      1  0.4408970000000  0.4413880000000  0.5337820000000 1.0
C      1  0.4702320000000  0.4549680000000  0.4277260000000 1.0
C      1  0.5569810000000  0.5353800000000  0.5895760000000 1.0
C      1  0.4592940000000  0.5052990000000  0.5523270000000 1.0
C      1  0.3982170000000  0.4622340000000  0.5284180000000 1.0
C      1  0.5843760000000  0.4393820000000  0.5499240000000 1.0
C      1  0.5162410000000  0.4112430000000  0.5450990000000 1.0
C      1  0.5037910000000  0.4629430000000  0.3850730000000 1.0
C      1  0.4860280000000  0.5506140000000  0.4885550000000 1.0
C      1  0.4691500000000  0.4983680000000  0.6093000000000 1.0
C      1  0.4521530000000  0.4476970000000  0.5078220000000 1.0
END
