TITL C-612606-7351-623 2.00594308117659e-05 125000 -378.241440208356 0 0 63 (C1) n - 1
REM
REM in /home/nfs/bkarasulu/CARBON/AIRSS/Generating-Clusters/TERSOFF/Only-C1/FIRE-HFTN
REM
REM
REM
REM
REM
REM ./C.cell (11c1c37f851c82e70ff6c80c92926a4b)
REM AIRSS Version 0.9.1 bugfix July 2018 build 013d7b7c2542+ Fri, 06 Jul 2018 19:26:36 +0100
REM compiler GCC version 9.2.1 20190827 (Red Hat 9.2.1-1)
REM options -cpp -mtune=generic -march=x86-64 -g -O0 -fpre-include=/usr/include/finclude/math-vector-fortran.h
REM seed 244985572 -1356004466 1485145892 -31927444 -1190897844 1971314831 -136946966 -647275666 -2034278714 -1065223982 -823810715 309006320 -1274152649 1975504965 1261464177 -1100194984 1050751980 -86413797 1439686597 1038381549 571648784 -497622580 1312400816 -891289913 1120046681 -84660974 659818854 -1639151572 605354669 -1558147998 -681877810 -1866506956 805434023
REM
CELL 1.54180   50.00000   50.00000   50.00000   90.00000   90.00000   90.00000
LATT -1
SFAC C  
C      1  0.4273210000000  0.4441800000000  0.5076950000000 1.0
C      1  0.5143650000000  0.5221470000000  0.4285360000000 1.0
C      1  0.5382100000000  0.5592180000000  0.4511680000000 1.0
C      1  0.4483920000000  0.5589570000000  0.5053760000000 1.0
C      1  0.4558100000000  0.4397300000000  0.5129060000000 1.0
C      1  0.4981310000000  0.4644200000000  0.4714370000000 1.0
C      1  0.4732920000000  0.5476620000000  0.5436830000000 1.0
C      1  0.5788020000000  0.4557180000000  0.4931560000000 1.0
C      1  0.4659560000000  0.5715560000000  0.4858110000000 1.0
C      1  0.5111160000000  0.4701030000000  0.4463800000000 1.0
C      1  0.5127960000000  0.4900880000000  0.5116840000000 1.0
C      1  0.4954390000000  0.5548460000000  0.5281160000000 1.0
C      1  0.4783590000000  0.5070300000000  0.4811220000000 1.0
C      1  0.5399310000000  0.5678600000000  0.5440890000000 1.0
C      1  0.4514450000000  0.5401590000000  0.5272650000000 1.0
C      1  0.5524000000000  0.5141520000000  0.4583330000000 1.0
C      1  0.5121620000000  0.5401220000000  0.5134510000000 1.0
C      1  0.5238210000000  0.5703160000000  0.5677050000000 1.0
C      1  0.4823450000000  0.4552910000000  0.5526320000000 1.0
C      1  0.5337390000000  0.4657420000000  0.5573980000000 1.0
C      1  0.4936960000000  0.4856430000000  0.4904210000000 1.0
C      1  0.5567800000000  0.4445600000000  0.4354300000000 1.0
C      1  0.4448770000000  0.5123330000000  0.5281970000000 1.0
C      1  0.5255330000000  0.5644160000000  0.4756450000000 1.0
C      1  0.4755200000000  0.5553110000000  0.4357440000000 1.0
C      1  0.4440290000000  0.4838610000000  0.5273720000000 1.0
C      1  0.5372130000000  0.4357090000000  0.5053960000000 1.0
C      1  0.4810700000000  0.4919160000000  0.5818380000000 1.0
C      1  0.4723150000000  0.5538300000000  0.4637310000000 1.0
C      1  0.4884020000000  0.5891730000000  0.4934880000000 1.0
C      1  0.5836690000000  0.4420250000000  0.4432150000000 1.0
C      1  0.5366070000000  0.4939810000000  0.5520480000000 1.0
C      1  0.5316580000000  0.4530290000000  0.4375570000000 1.0
C      1  0.5382130000000  0.5321660000000  0.4416300000000 1.0
C      1  0.4640200000000  0.4608790000000  0.5311260000000 1.0
C      1  0.5108950000000  0.4510230000000  0.5522460000000 1.0
C      1  0.6028660000000  0.4334390000000  0.4258330000000 1.0
C      1  0.4035030000000  0.4607090000000  0.4724440000000 1.0
C      1  0.4204660000000  0.4384230000000  0.4790340000000 1.0
C      1  0.5176440000000  0.5848710000000  0.4950660000000 1.0
C      1  0.3888910000000  0.5043450000000  0.4923950000000 1.0
C      1  0.4030790000000  0.4812440000000  0.4930130000000 1.0
C      1  0.4740430000000  0.4663330000000  0.5773860000000 1.0
C      1  0.4933930000000  0.4379590000000  0.4813210000000 1.0
C      1  0.5328770000000  0.5836200000000  0.5202980000000 1.0
C      1  0.5081880000000  0.4947170000000  0.4325920000000 1.0
C      1  0.4451250000000  0.4274360000000  0.4690760000000 1.0
C      1  0.4670760000000  0.4307870000000  0.4876700000000 1.0
C      1  0.5512830000000  0.5020520000000  0.4822110000000 1.0
C      1  0.5152680000000  0.4256320000000  0.4938600000000 1.0
C      1  0.5538500000000  0.5165420000000  0.5507280000000 1.0
C      1  0.5121350000000  0.5407960000000  0.4857960000000 1.0
C      1  0.4859090000000  0.5369080000000  0.5667000000000 1.0
C      1  0.5546450000000  0.5429870000000  0.5439760000000 1.0
C      1  0.4937280000000  0.5406290000000  0.4217660000000 1.0
C      1  0.5402530000000  0.4847310000000  0.5017670000000 1.0
C      1  0.5099050000000  0.5001510000000  0.5404960000000 1.0
C      1  0.5897890000000  0.4487900000000  0.4698000000000 1.0
C      1  0.4876430000000  0.5322490000000  0.4743990000000 1.0
C      1  0.5529020000000  0.4589680000000  0.5036720000000 1.0
C      1  0.4206120000000  0.4720700000000  0.5140840000000 1.0
C      1  0.5043070000000  0.5549720000000  0.5788350000000 1.0
C      1  0.4922910000000  0.5094850000000  0.5627550000000 1.0
END
