TITL C-612603-7354-816 1.07019881592424e-05 125000 -833.953882014592 0 0 135 (C1) n - 1
REM
REM in /home/nfs/bkarasulu/CARBON/AIRSS/Generating-Clusters/TERSOFF/Only-C1/FIRE-HFTN
REM
REM
REM
REM
REM
REM ./C.cell (11c1c37f851c82e70ff6c80c92926a4b)
REM AIRSS Version 0.9.1 bugfix July 2018 build 013d7b7c2542+ Fri, 06 Jul 2018 19:26:36 +0100
REM compiler GCC version 9.2.1 20190827 (Red Hat 9.2.1-1)
REM options -cpp -mtune=generic -march=x86-64 -g -O0 -fpre-include=/usr/include/finclude/math-vector-fortran.h
REM seed -361830567 -42329404 1683506357 -110366432 -1065526962 -1246477878 1111146976 2074039445 1150610594 -881149972 1508107721 -1940687853 -2001865527 -1353370837 -1077720605 1007803473 874533598 -2143741306 -397108736 543938278 -448876970 -485962832 -1587610692 -672599792 925009721 1089654005 546503240 1473845377 -1101147550 -15120013 1712976027 -1416131508 -898785117
REM
CELL 1.54180   50.00000   50.00000   50.00000   90.00000   90.00000   90.00000
LATT -1
SFAC C  
C      1  0.4744160000000  0.5391270000000  0.4407710000000 1.0
C      1  0.4451160000000  0.5876290000000  0.4886710000000 1.0
C      1  0.5975810000000  0.4926400000000  0.4702910000000 1.0
C      1  0.5245510000000  0.4013000000000  0.5016010000000 1.0
C      1  0.4617220000000  0.5640780000000  0.5632100000000 1.0
C      1  0.5057750000000  0.4890720000000  0.5960640000000 1.0
C      1  0.4766550000000  0.3850910000000  0.5112630000000 1.0
C      1  0.5710810000000  0.5069600000000  0.4275110000000 1.0
C      1  0.4216700000000  0.4688320000000  0.4479430000000 1.0
C      1  0.4369550000000  0.5059510000000  0.4247610000000 1.0
C      1  0.5092370000000  0.6135100000000  0.4558880000000 1.0
C      1  0.4925320000000  0.5977590000000  0.5025830000000 1.0
C      1  0.5028160000000  0.5139210000000  0.5837400000000 1.0
C      1  0.5453210000000  0.4428220000000  0.4354420000000 1.0
C      1  0.4088390000000  0.4684220000000  0.5145480000000 1.0
C      1  0.4158620000000  0.5141060000000  0.5349960000000 1.0
C      1  0.5332040000000  0.5660300000000  0.5067360000000 1.0
C      1  0.5279130000000  0.5292320000000  0.5372890000000 1.0
C      1  0.6028910000000  0.5000410000000  0.4987060000000 1.0
C      1  0.4589120000000  0.4665140000000  0.4070360000000 1.0
C      1  0.3913610000000  0.5347520000000  0.4846420000000 1.0
C      1  0.5688720000000  0.4090070000000  0.4959530000000 1.0
C      1  0.4874390000000  0.3994980000000  0.4387120000000 1.0
C      1  0.4741980000000  0.5855340000000  0.4385580000000 1.0
C      1  0.4363870000000  0.4605250000000  0.5096940000000 1.0
C      1  0.5156610000000  0.5814480000000  0.4138240000000 1.0
C      1  0.5229060000000  0.5331250000000  0.5885750000000 1.0
C      1  0.5839500000000  0.4576330000000  0.5184470000000 1.0
C      1  0.5729100000000  0.4559790000000  0.4433250000000 1.0
C      1  0.5100210000000  0.5038910000000  0.4789230000000 1.0
C      1  0.4523390000000  0.4833120000000  0.5012500000000 1.0
C      1  0.5007730000000  0.5977040000000  0.4343250000000 1.0
C      1  0.5274280000000  0.4762720000000  0.5286370000000 1.0
C      1  0.4731200000000  0.4954650000000  0.4523400000000 1.0
C      1  0.5263580000000  0.5041790000000  0.3949950000000 1.0
C      1  0.5966940000000  0.4828480000000  0.5229800000000 1.0
C      1  0.4536960000000  0.5277630000000  0.4785450000000 1.0
C      1  0.5362810000000  0.4067390000000  0.5282250000000 1.0
C      1  0.5998640000000  0.5284940000000  0.5056530000000 1.0
C      1  0.4361450000000  0.4767160000000  0.4225140000000 1.0
C      1  0.5441720000000  0.5074290000000  0.4178910000000 1.0
C      1  0.5095680000000  0.5785140000000  0.5154910000000 1.0
C      1  0.4534960000000  0.3916620000000  0.5238090000000 1.0
C      1  0.4518980000000  0.5839270000000  0.4590800000000 1.0
C      1  0.5767320000000  0.4379190000000  0.5378880000000 1.0
C      1  0.5887600000000  0.4946990000000  0.5492110000000 1.0
C      1  0.4670700000000  0.5730510000000  0.5354520000000 1.0
C      1  0.4956250000000  0.4306410000000  0.5545100000000 1.0
C      1  0.5081340000000  0.4674560000000  0.4446750000000 1.0
C      1  0.4512320000000  0.4422940000000  0.5279510000000 1.0
C      1  0.4837580000000  0.4705500000000  0.5901130000000 1.0
C      1  0.5940300000000  0.4420950000000  0.4266630000000 1.0
C      1  0.5244550000000  0.5116710000000  0.4378260000000 1.0
C      1  0.4778820000000  0.5603570000000  0.4238610000000 1.0
C      1  0.4831150000000  0.4444190000000  0.5293130000000 1.0
C      1  0.3982400000000  0.5068220000000  0.4861850000000 1.0
C      1  0.5439650000000  0.4081200000000  0.4798380000000 1.0
C      1  0.4320390000000  0.5367410000000  0.4608150000000 1.0
C      1  0.5828920000000  0.5229730000000  0.5499150000000 1.0
C      1  0.4560050000000  0.5131000000000  0.5696050000000 1.0
C      1  0.5681190000000  0.5376740000000  0.5701300000000 1.0
C      1  0.5243640000000  0.4597970000000  0.4222680000000 1.0
C      1  0.5732820000000  0.4785330000000  0.5680020000000 1.0
C      1  0.5809700000000  0.5333500000000  0.4320660000000 1.0
C      1  0.4070690000000  0.5644590000000  0.5430210000000 1.0
C      1  0.4202990000000  0.5158470000000  0.4454570000000 1.0
C      1  0.5171500000000  0.4124470000000  0.5483280000000 1.0
C      1  0.4043910000000  0.4975110000000  0.5126080000000 1.0
C      1  0.4246470000000  0.4751840000000  0.5640940000000 1.0
C      1  0.4542360000000  0.4283560000000  0.4635480000000 1.0
C      1  0.5368640000000  0.5037550000000  0.5287950000000 1.0
C      1  0.4647880000000  0.5900160000000  0.5100130000000 1.0
C      1  0.4807820000000  0.5091830000000  0.4033110000000 1.0
C      1  0.4654510000000  0.5140160000000  0.4284700000000 1.0
C      1  0.4993870000000  0.4715100000000  0.5315700000000 1.0
C      1  0.5284730000000  0.5503520000000  0.4828420000000 1.0
C      1  0.4003110000000  0.5603120000000  0.4857160000000 1.0
C      1  0.4966120000000  0.4030200000000  0.5023760000000 1.0
C      1  0.5642580000000  0.4147300000000  0.5251880000000 1.0
C      1  0.4437740000000  0.5412260000000  0.5656100000000 1.0
C      1  0.4791210000000  0.5394750000000  0.4695480000000 1.0
C      1  0.4861550000000  0.5158380000000  0.5583130000000 1.0
C      1  0.5263040000000  0.4822890000000  0.4856700000000 1.0
C      1  0.4834890000000  0.4801060000000  0.3986920000000 1.0
C      1  0.5136090000000  0.4759590000000  0.3990690000000 1.0
C      1  0.5015890000000  0.5563350000000  0.4066100000000 1.0
C      1  0.5043600000000  0.5264390000000  0.3966270000000 1.0
C      1  0.5139710000000  0.4037090000000  0.4407610000000 1.0
C      1  0.5577810000000  0.5151650000000  0.4819990000000 1.0
C      1  0.5270140000000  0.4494400000000  0.5878300000000 1.0
C      1  0.4327570000000  0.5633550000000  0.4512250000000 1.0
C      1  0.5390380000000  0.4659610000000  0.5041420000000 1.0
C      1  0.4855460000000  0.5662050000000  0.5807020000000 1.0
C      1  0.4312190000000  0.4444590000000  0.4593010000000 1.0
C      1  0.5747380000000  0.5334140000000  0.5221820000000 1.0
C      1  0.4379580000000  0.4974120000000  0.5486620000000 1.0
C      1  0.4956460000000  0.4497250000000  0.4611240000000 1.0
C      1  0.4842250000000  0.4939940000000  0.5375290000000 1.0
C      1  0.5313840000000  0.4770460000000  0.5952050000000 1.0
C      1  0.4934190000000  0.5612760000000  0.5314540000000 1.0
C      1  0.5021750000000  0.6137510000000  0.4818380000000 1.0
C      1  0.4087610000000  0.4937400000000  0.4614060000000 1.0
C      1  0.5346070000000  0.5770870000000  0.5728020000000 1.0
C      1  0.5496460000000  0.5528070000000  0.5293670000000 1.0
C      1  0.4768530000000  0.4387420000000  0.4779410000000 1.0
C      1  0.4607750000000  0.4887240000000  0.5894760000000 1.0
C      1  0.4040210000000  0.4581550000000  0.5601190000000 1.0
C      1  0.5736270000000  0.4492120000000  0.4724940000000 1.0
C      1  0.4178340000000  0.5797430000000  0.4975350000000 1.0
C      1  0.5577430000000  0.5643000000000  0.5577080000000 1.0
C      1  0.5333930000000  0.6043140000000  0.5756830000000 1.0
C      1  0.4584840000000  0.4984550000000  0.4780420000000 1.0
C      1  0.4984990000000  0.4463310000000  0.5791170000000 1.0
C      1  0.5814130000000  0.4862150000000  0.4454100000000 1.0
C      1  0.4584510000000  0.4943100000000  0.5266640000000 1.0
C      1  0.4109300000000  0.5838260000000  0.5247360000000 1.0
C      1  0.5142060000000  0.5602130000000  0.5837040000000 1.0
C      1  0.5537060000000  0.4925620000000  0.5855780000000 1.0
C      1  0.3947720000000  0.4545390000000  0.5348380000000 1.0
C      1  0.5048950000000  0.5327450000000  0.4806210000000 1.0
C      1  0.5366800000000  0.4177390000000  0.4520340000000 1.0
C      1  0.4878440000000  0.4301730000000  0.5025370000000 1.0
C      1  0.5701430000000  0.4494350000000  0.5634200000000 1.0
C      1  0.5805660000000  0.5839390000000  0.5546760000000 1.0
C      1  0.5650150000000  0.4573880000000  0.4975310000000 1.0
C      1  0.4193540000000  0.5399630000000  0.5488350000000 1.0
C      1  0.5505470000000  0.4366730000000  0.5794770000000 1.0
C      1  0.5576300000000  0.5110230000000  0.5099020000000 1.0
C      1  0.5034300000000  0.4956530000000  0.4510380000000 1.0
C      1  0.4424710000000  0.4152620000000  0.5312970000000 1.0
C      1  0.5689870000000  0.5495400000000  0.4502810000000 1.0
C      1  0.5517480000000  0.5403140000000  0.4703830000000 1.0
C      1  0.4625900000000  0.4071940000000  0.4463460000000 1.0
C      1  0.5011910000000  0.5366140000000  0.5420330000000 1.0
C      1  0.5499470000000  0.5220770000000  0.5858190000000 1.0
END
