TITL C-612601-4209-642 -2.913017270811e-05 125000 -422.040125868317 0 0 70 (C1) n - 1
REM
REM in /home/nfs/bkarasulu/CARBON/AIRSS/Generating-Clusters/TERSOFF/Only-C1/FIRE-HFTN
REM
REM
REM
REM
REM
REM ./C.cell (11c1c37f851c82e70ff6c80c92926a4b)
REM AIRSS Version 0.9.1 bugfix July 2018 build 013d7b7c2542+ Fri, 06 Jul 2018 19:26:36 +0100
REM compiler GCC version 9.2.1 20190827 (Red Hat 9.2.1-1)
REM options -cpp -mtune=generic -march=x86-64 -g -O0 -fpre-include=/usr/include/finclude/math-vector-fortran.h
REM seed -323479246 2051293450 -2119219000 453596788 1915376976 -639685074 -1492231211 354786841 -1871111942 -414189351 1283304714 -218668722 -1540870441 346210037 -556420728 12586732 2043339498 -170647984 -517909796 725317157 -417830065 1302888821 -2118584011 -701320247 -1404991247 -604110114 99009303 -1270165722 -338717599 -1997051151 1275377505 -1626661703 -946517358
REM
CELL 1.54180   50.00000   50.00000   50.00000   90.00000   90.00000   90.00000
LATT -1
SFAC C  
C      1  0.4985330000000  0.4823440000000  0.5212760000000 1.0
C      1  0.4730970000000  0.5636440000000  0.5171650000000 1.0
C      1  0.5933920000000  0.5094890000000  0.5038670000000 1.0
C      1  0.4904270000000  0.5727630000000  0.5394320000000 1.0
C      1  0.5946950000000  0.4975450000000  0.5300840000000 1.0
C      1  0.4707920000000  0.5327970000000  0.5551480000000 1.0
C      1  0.5729400000000  0.4815730000000  0.5401810000000 1.0
C      1  0.5631640000000  0.4647600000000  0.5195160000000 1.0
C      1  0.4777590000000  0.4221890000000  0.5147680000000 1.0
C      1  0.4577300000000  0.5311010000000  0.4713010000000 1.0
C      1  0.4357710000000  0.5257820000000  0.4522860000000 1.0
C      1  0.5247610000000  0.4229090000000  0.5161730000000 1.0
C      1  0.4780600000000  0.4772830000000  0.5376180000000 1.0
C      1  0.5173860000000  0.5794360000000  0.5356190000000 1.0
C      1  0.5086790000000  0.4849620000000  0.4956320000000 1.0
C      1  0.4885700000000  0.4876060000000  0.4761230000000 1.0
C      1  0.5528970000000  0.4930970000000  0.5571810000000 1.0
C      1  0.4380610000000  0.4048390000000  0.4935950000000 1.0
C      1  0.4818440000000  0.5586730000000  0.5625110000000 1.0
C      1  0.5258710000000  0.4513720000000  0.5586220000000 1.0
C      1  0.4763390000000  0.5738270000000  0.4902090000000 1.0
C      1  0.5289090000000  0.4791050000000  0.5648980000000 1.0
C      1  0.4336110000000  0.5279730000000  0.5158800000000 1.0
C      1  0.4661450000000  0.5579520000000  0.4694970000000 1.0
C      1  0.5518370000000  0.5212930000000  0.5562140000000 1.0
C      1  0.4756080000000  0.4877970000000  0.4088470000000 1.0
C      1  0.5344730000000  0.4879150000000  0.4851630000000 1.0
C      1  0.5129920000000  0.5767230000000  0.4592980000000 1.0
C      1  0.4938140000000  0.4745490000000  0.4514940000000 1.0
C      1  0.4767530000000  0.5379690000000  0.4283350000000 1.0
C      1  0.5064260000000  0.4954580000000  0.5721570000000 1.0
C      1  0.5301540000000  0.5840140000000  0.5108830000000 1.0
C      1  0.4588160000000  0.4218860000000  0.5827000000000 1.0
C      1  0.5400360000000  0.5072090000000  0.4633970000000 1.0
C      1  0.4734970000000  0.5625770000000  0.4422330000000 1.0
C      1  0.4237380000000  0.4999810000000  0.5097660000000 1.0
C      1  0.5688200000000  0.5061220000000  0.4606050000000 1.0
C      1  0.5007510000000  0.4233790000000  0.4977080000000 1.0
C      1  0.4507720000000  0.4250490000000  0.5069450000000 1.0
C      1  0.5591290000000  0.4763440000000  0.4942650000000 1.0
C      1  0.4972030000000  0.5909460000000  0.4790510000000 1.0
C      1  0.5005440000000  0.5211550000000  0.4354130000000 1.0
C      1  0.5102360000000  0.4278170000000  0.4707170000000 1.0
C      1  0.4698380000000  0.4355700000000  0.5620060000000 1.0
C      1  0.5158400000000  0.4301940000000  0.5426540000000 1.0
C      1  0.4950580000000  0.4924370000000  0.4292980000000 1.0
C      1  0.5280240000000  0.5541760000000  0.4690210000000 1.0
C      1  0.4502920000000  0.5236570000000  0.4268210000000 1.0
C      1  0.5536780000000  0.5403160000000  0.5375670000000 1.0
C      1  0.5228200000000  0.5284740000000  0.4549520000000 1.0
C      1  0.4851000000000  0.5113930000000  0.5670050000000 1.0
C      1  0.4191300000000  0.5435480000000  0.4944990000000 1.0
C      1  0.4869040000000  0.4243030000000  0.5425050000000 1.0
C      1  0.4575890000000  0.5389360000000  0.5282710000000 1.0
C      1  0.4658820000000  0.4629500000000  0.5568900000000 1.0
C      1  0.4518190000000  0.5011650000000  0.4096400000000 1.0
C      1  0.4134310000000  0.5260740000000  0.4705770000000 1.0
C      1  0.4302520000000  0.4741760000000  0.5180880000000 1.0
C      1  0.4996950000000  0.4470690000000  0.4531770000000 1.0
C      1  0.4708510000000  0.5084320000000  0.4800960000000 1.0
C      1  0.5385340000000  0.4203080000000  0.4703530000000 1.0
C      1  0.5541270000000  0.4162730000000  0.4485410000000 1.0
C      1  0.4086550000000  0.5011340000000  0.4845640000000 1.0
C      1  0.4370200000000  0.4488460000000  0.5130710000000 1.0
C      1  0.5158260000000  0.6034470000000  0.4960350000000 1.0
C      1  0.5810760000000  0.4932800000000  0.4835870000000 1.0
C      1  0.5854750000000  0.5367090000000  0.5025230000000 1.0
C      1  0.5464560000000  0.4181200000000  0.4980700000000 1.0
C      1  0.5604970000000  0.5467750000000  0.5108500000000 1.0
C      1  0.5410970000000  0.5610330000000  0.4955650000000 1.0
END
