TITL C-612604-1799-335 270.77484912108 125000 -901.212625217173 0 0 148 (C1) n - 1
REM
REM in /home/nfs/bkarasulu/CARBON/AIRSS/Generating-Clusters/TERSOFF/Only-C1/FIRE-HFTN
REM
REM
REM
REM
REM
REM ./C.cell (11c1c37f851c82e70ff6c80c92926a4b)
REM AIRSS Version 0.9.1 bugfix July 2018 build 013d7b7c2542+ Fri, 06 Jul 2018 19:26:36 +0100
REM compiler GCC version 9.2.1 20190827 (Red Hat 9.2.1-1)
REM options -cpp -mtune=generic -march=x86-64 -g -O0 -fpre-include=/usr/include/finclude/math-vector-fortran.h
REM seed -668636574 606159180 -1337761063 1241631973 1319071212 -215609840 -187860737 -281676285 1308135183 -630847568 -600114825 -27381006 1877212355 2141599028 1769779727 -564611080 -1202355461 525676200 -1487291344 -651424971 1269861218 -1761680248 -1102503188 -456334048 1044237252 -373547397 -7899679 285099682 851259743 207978584 1181849644 -1992069699 1390272999
REM
CELL 1.54180   50.00000   50.00000   50.00000   90.00000   90.00000   90.00000
LATT -1
SFAC C  
C      1  0.4738080000000  0.4107800000000  0.4461930000000 1.0
C      1  0.5940060000000  0.4617990000000  0.4720780000000 1.0
C      1  0.4923900000000  0.3911270000000  0.5138630000000 1.0
C      1  0.6082850000000  0.4979720000000  0.5080230000000 1.0
C      1  0.5308700000000  0.4168770000000  0.4548790000000 1.0
C      1  0.4561190000000  0.4596250000000  0.4445160000000 1.0
C      1  0.5170010000000  0.4737140000000  0.5571840000000 1.0
C      1  0.4873420000000  0.4436210000000  0.4129270000000 1.0
C      1  0.5118790000000  0.4508880000000  0.4255040000000 1.0
C      1  0.4201020000000  0.5716060000000  0.4672830000000 1.0
C      1  0.6206260000000  0.5465520000000  0.4611980000000 1.0
C      1  0.4199620000000  0.4684800000000  0.5657880000000 1.0
C      1  0.5161900000000  0.5276000000000  0.5034290000000 1.0
C      1  0.4431510000000  0.5444420000000  0.3870150000000 1.0
C      1  0.5088080000000  0.5690260000000  0.4486770000000 1.0
C      1  0.4011730000000  0.5539350000000  0.4557160000000 1.0
C      1  0.5304660000000  0.5522010000000  0.4395790000000 1.0
C      1  0.4810400000000  0.4441640000000  0.5236870000000 1.0
C      1  0.4870870000000  0.5264250000000  0.6018070000000 1.0
C      1  0.5432300000000  0.3994320000000  0.5160880000000 1.0
C      1  0.5072000000000  0.4406770000000  0.5949000000000 1.0
C      1  0.4602910000000  0.5384300000000  0.5997340000000 1.0
C      1  0.5674130000000  0.5968990000000  0.4973650000000 1.0
C      1  0.4538360000000  0.4843730000000  0.4588270000000 1.0
C      1  0.4654980000000  0.5458930000000  0.4836010000000 1.0
C      1  0.5347900000000  0.5308830000000  0.6165660000000 1.0
C      1  0.4916690000000  0.5478360000000  0.3821470000000 1.0
C      1  0.4806470000000  0.4018510000000  0.5386430000000 1.0
C      1  0.3925710000000  0.5079720000000  0.4705000000000 1.0
C      1  0.4485440000000  0.5390900000000  0.5726640000000 1.0
C      1  0.5160210000000  0.4420930000000  0.4532030000000 1.0
C      1  0.5103220000000  0.5759320000000  0.4955720000000 1.0
C      1  0.4340010000000  0.5596250000000  0.3662540000000 1.0
C      1  0.5602370000000  0.4886820000000  0.5268210000000 1.0
C      1  0.4104770000000  0.4215150000000  0.5497420000000 1.0
C      1  0.5247230000000  0.4411310000000  0.4990830000000 1.0
C      1  0.4670240000000  0.5888320000000  0.4744260000000 1.0
C      1  0.6028850000000  0.5654450000000  0.5011760000000 1.0
C      1  0.4962710000000  0.4470650000000  0.6200670000000 1.0
C      1  0.6008840000000  0.5814120000000  0.5250330000000 1.0
C      1  0.5390290000000  0.5182190000000  0.5567490000000 1.0
C      1  0.4887630000000  0.5150670000000  0.5078460000000 1.0
C      1  0.5396140000000  0.6110810000000  0.5571950000000 1.0
C      1  0.4511200000000  0.4895410000000  0.5251500000000 1.0
C      1  0.4744580000000  0.3885520000000  0.4907370000000 1.0
C      1  0.5137810000000  0.4914950000000  0.6288310000000 1.0
C      1  0.4263340000000  0.4929290000000  0.4141850000000 1.0
C      1  0.5153530000000  0.6001500000000  0.5590730000000 1.0
C      1  0.4686820000000  0.5319860000000  0.3862790000000 1.0
C      1  0.4052550000000  0.5253670000000  0.4512070000000 1.0
C      1  0.5457820000000  0.5163890000000  0.4068400000000 1.0
C      1  0.5004390000000  0.5791470000000  0.5519110000000 1.0
C      1  0.4635970000000  0.5545890000000  0.5110080000000 1.0
C      1  0.5792570000000  0.4936660000000  0.4411640000000 1.0
C      1  0.4983280000000  0.4571930000000  0.5731880000000 1.0
C      1  0.5551750000000  0.4240670000000  0.4409010000000 1.0
C      1  0.4912850000000  0.4851190000000  0.5041850000000 1.0
C      1  0.6237890000000  0.5211170000000  0.5024050000000 1.0
C      1  0.4672760000000  0.4672890000000  0.5121810000000 1.0
C      1  0.4811890000000  0.4158150000000  0.4188240000000 1.0
C      1  0.5669380000000  0.4444560000000  0.5330750000000 1.0
C      1  0.4396920000000  0.5821720000000  0.4851380000000 1.0
C      1  0.5505980000000  0.5435980000000  0.4583790000000 1.0
C      1  0.5080550000000  0.4397050000000  0.5194270000000 1.0
C      1  0.4264570000000  0.4351450000000  0.4918260000000 1.0
C      1  0.5330530000000  0.5420740000000  0.4124640000000 1.0
C      1  0.4368670000000  0.4837770000000  0.4820820000000 1.0
C      1  0.4441990000000  0.4573550000000  0.4943010000000 1.0
C      1  0.5403060000000  0.5574750000000  0.6178290000000 1.0
C      1  0.5223950000000  0.4894000000000  0.4460430000000 1.0
C      1  0.5038150000000  0.5526880000000  0.5396050000000 1.0
C      1  0.5269620000000  0.4941400000000  0.4018920000000 1.0
C      1  0.4061870000000  0.4747300000000  0.4096240000000 1.0
C      1  0.5174410000000  0.5545030000000  0.5126320000000 1.0
C      1  0.5853300000000  0.4646530000000  0.4426620000000 1.0
C      1  0.4535900000000  0.4862880000000  0.4052590000000 1.0
C      1  0.5197170000000  0.3934040000000  0.5013480000000 1.0
C      1  0.5169280000000  0.3980910000000  0.4715880000000 1.0
C      1  0.5285010000000  0.5088130000000  0.4870950000000 1.0
C      1  0.5714840000000  0.4553590000000  0.5605190000000 1.0
C      1  0.5539660000000  0.5096070000000  0.6127270000000 1.0
C      1  0.5657640000000  0.5204440000000  0.5671990000000 1.0
C      1  0.5230620000000  0.4188260000000  0.5909040000000 1.0
C      1  0.5705530000000  0.5085910000000  0.4187910000000 1.0
C      1  0.5361400000000  0.6341490000000  0.4735270000000 1.0
C      1  0.5326810000000  0.4719800000000  0.4231390000000 1.0
C      1  0.5864260000000  0.5220960000000  0.5478770000000 1.0
C      1  0.4298340000000  0.4098630000000  0.5047160000000 1.0
C      1  0.5634190000000  0.6101840000000  0.5452180000000 1.0
C      1  0.4275710000000  0.5399980000000  0.4099630000000 1.0
C      1  0.4045490000000  0.4930680000000  0.5662490000000 1.0
C      1  0.4493010000000  0.4707630000000  0.5667990000000 1.0
C      1  0.5674310000000  0.4975780000000  0.4675460000000 1.0
C      1  0.3848650000000  0.4872630000000  0.5210440000000 1.0
C      1  0.4933340000000  0.5220430000000  0.5738710000000 1.0
C      1  0.3768660000000  0.5644290000000  0.4480960000000 1.0
C      1  0.5691590000000  0.5024370000000  0.5889300000000 1.0
C      1  0.4229270000000  0.5514760000000  0.5277180000000 1.0
C      1  0.5980040000000  0.5524470000000  0.4472000000000 1.0
C      1  0.4731150000000  0.5058050000000  0.3969850000000 1.0
C      1  0.5623100000000  0.4506110000000  0.4324860000000 1.0
C      1  0.4338300000000  0.5021550000000  0.5055160000000 1.0
C      1  0.5782050000000  0.5993450000000  0.5243990000000 1.0
C      1  0.4702810000000  0.4501210000000  0.5662260000000 1.0
C      1  0.4963880000000  0.4702390000000  0.6336550000000 1.0
C      1  0.5542780000000  0.4633760000000  0.6082990000000 1.0
C      1  0.5741880000000  0.5592110000000  0.4613460000000 1.0
C      1  0.5191910000000  0.4573340000000  0.4771050000000 1.0
C      1  0.5145120000000  0.4832570000000  0.4870270000000 1.0
C      1  0.3840130000000  0.4973580000000  0.4941940000000 1.0
C      1  0.5512350000000  0.6156540000000  0.4850130000000 1.0
C      1  0.4568550000000  0.4944960000000  0.5519970000000 1.0
C      1  0.4469980000000  0.3907190000000  0.4940060000000 1.0
C      1  0.4762610000000  0.5212870000000  0.4791620000000 1.0
C      1  0.5857170000000  0.5033090000000  0.5265990000000 1.0
C      1  0.5494490000000  0.5180810000000  0.4716000000000 1.0
C      1  0.5414590000000  0.4846370000000  0.6229270000000 1.0
C      1  0.4394120000000  0.5698980000000  0.5122800000000 1.0
C      1  0.3889150000000  0.5022370000000  0.5454820000000 1.0
C      1  0.3904970000000  0.4599460000000  0.5278500000000 1.0
C      1  0.4183310000000  0.4055050000000  0.5298550000000 1.0
C      1  0.4207780000000  0.5260650000000  0.5138450000000 1.0
C      1  0.6132640000000  0.4748040000000  0.4899550000000 1.0
C      1  0.4970760000000  0.5017380000000  0.4392660000000 1.0
C      1  0.5366890000000  0.4919720000000  0.5445260000000 1.0
C      1  0.4778380000000  0.5355190000000  0.5300160000000 1.0
C      1  0.4648600000000  0.4621480000000  0.4171170000000 1.0
C      1  0.4280660000000  0.5504340000000  0.5562040000000 1.0
C      1  0.4195410000000  0.5183710000000  0.4264480000000 1.0
C      1  0.6199210000000  0.5457860000000  0.4897300000000 1.0
C      1  0.5636480000000  0.4649250000000  0.5118200000000 1.0
C      1  0.5693930000000  0.4723360000000  0.4844240000000 1.0
C      1  0.4578460000000  0.4331310000000  0.4546540000000 1.0
C      1  0.4713130000000  0.4289030000000  0.5457930000000 1.0
C      1  0.5155490000000  0.5329130000000  0.5594750000000 1.0
C      1  0.4953180000000  0.5804390000000  0.4715190000000 1.0
C      1  0.5686640000000  0.4722660000000  0.5842180000000 1.0
C      1  0.5795030000000  0.5741070000000  0.4848560000000 1.0
C      1  0.4064000000000  0.4490440000000  0.5493480000000 1.0
C      1  0.5595800000000  0.4176060000000  0.5275310000000 1.0
C      1  0.4681040000000  0.5215430000000  0.5563640000000 1.0
C      1  0.4750780000000  0.5037750000000  0.4572910000000 1.0
C      1  0.5079310000000  0.5188320000000  0.6196760000000 1.0
C      1  0.4877900000000  0.3955940000000  0.4660650000000 1.0
C      1  0.5200270000000  0.6512630000000  0.4622560000000 1.0
C      1  0.5159160000000  0.5523740000000  0.3925630000000 1.0
C      1  0.4043430000000  0.4377690000000  0.4755630000000 1.0
C      1  0.4984130000000  0.5020100000000  0.4095570000000 1.0
END
