TITL C-612602-9376-1292 16.3967026511151 125000 -391.218943465515 0 0 66 (C1) n - 1
REM
REM in /home/nfs/bkarasulu/CARBON/AIRSS/Generating-Clusters/TERSOFF/Only-C1/FIRE-HFTN
REM
REM
REM
REM
REM
REM ./C.cell (11c1c37f851c82e70ff6c80c92926a4b)
REM AIRSS Version 0.9.1 bugfix July 2018 build 013d7b7c2542+ Fri, 06 Jul 2018 19:26:36 +0100
REM compiler GCC version 9.2.1 20190827 (Red Hat 9.2.1-1)
REM options -cpp -mtune=generic -march=x86-64 -g -O0 -fpre-include=/usr/include/finclude/math-vector-fortran.h
REM seed 1531352983 1609847447 -2076399723 -1921122629 -373276246 1378877503 819974043 -575848441 -679711118 -1988882628 -1150894161 784071551 1359554472 911101949 1869129234 -504494722 1732275703 1434499138 -1185837004 -719186235 -1226870778 739093401 -131874091 -1746036183 -2065802542 1120214226 115481899 2062496001 19463649 -98903764 -1823248753 418186570 -1752075140
REM
CELL 1.54180   50.00000   50.00000   50.00000   90.00000   90.00000   90.00000
LATT -1
SFAC C  
C      1  0.5516690000000  0.3861000000000  0.5043330000000 1.0
C      1  0.5635260000000  0.4107020000000  0.4973780000000 1.0
C      1  0.5991370000000  0.5517820000000  0.5778790000000 1.0
C      1  0.5666800000000  0.5131260000000  0.5990290000000 1.0
C      1  0.5588430000000  0.5238720000000  0.5737000000000 1.0
C      1  0.4541480000000  0.4462200000000  0.4750090000000 1.0
C      1  0.4491370000000  0.5269840000000  0.5401300000000 1.0
C      1  0.4491700000000  0.5235690000000  0.4697270000000 1.0
C      1  0.5358410000000  0.5155640000000  0.5596180000000 1.0
C      1  0.4993280000000  0.4785570000000  0.4390060000000 1.0
C      1  0.5255640000000  0.4986950000000  0.5130830000000 1.0
C      1  0.5555710000000  0.4744040000000  0.5411720000000 1.0
C      1  0.4547440000000  0.4710670000000  0.4183550000000 1.0
C      1  0.5599850000000  0.5310600000000  0.4686040000000 1.0
C      1  0.5657870000000  0.4513800000000  0.5323890000000 1.0
C      1  0.4235330000000  0.5219230000000  0.4569080000000 1.0
C      1  0.5271760000000  0.4684110000000  0.4763060000000 1.0
C      1  0.4207080000000  0.5595350000000  0.5153750000000 1.0
C      1  0.5199480000000  0.5638140000000  0.4633250000000 1.0
C      1  0.4609610000000  0.6253730000000  0.5312780000000 1.0
C      1  0.4886680000000  0.4977990000000  0.4574460000000 1.0
C      1  0.5114690000000  0.3733820000000  0.4771970000000 1.0
C      1  0.4200740000000  0.4994250000000  0.4400450000000 1.0
C      1  0.4641700000000  0.4977930000000  0.4767460000000 1.0
C      1  0.5768670000000  0.5439240000000  0.5641310000000 1.0
C      1  0.4648190000000  0.5327790000000  0.5652090000000 1.0
C      1  0.4597220000000  0.5730630000000  0.5435160000000 1.0
C      1  0.4856210000000  0.5118950000000  0.5692230000000 1.0
C      1  0.5046150000000  0.5546230000000  0.5661960000000 1.0
C      1  0.4997370000000  0.3904620000000  0.4603450000000 1.0
C      1  0.6053680000000  0.5405760000000  0.6020210000000 1.0
C      1  0.5189460000000  0.4611540000000  0.4501710000000 1.0
C      1  0.5389860000000  0.4971140000000  0.5381460000000 1.0
C      1  0.4377810000000  0.4775550000000  0.4400640000000 1.0
C      1  0.4764240000000  0.5550840000000  0.4428770000000 1.0
C      1  0.5403860000000  0.4915790000000  0.4882100000000 1.0
C      1  0.4795780000000  0.5576330000000  0.4899280000000 1.0
C      1  0.4729280000000  0.4958660000000  0.5056870000000 1.0
C      1  0.5693180000000  0.4301180000000  0.5167110000000 1.0
C      1  0.4493810000000  0.4728150000000  0.4662280000000 1.0
C      1  0.5630830000000  0.5049390000000  0.4782290000000 1.0
C      1  0.5455680000000  0.4214970000000  0.4496690000000 1.0
C      1  0.3844380000000  0.5593100000000  0.4604140000000 1.0
C      1  0.4649730000000  0.5470930000000  0.4678750000000 1.0
C      1  0.4818520000000  0.4718720000000  0.4177830000000 1.0
C      1  0.5069230000000  0.4615220000000  0.4960800000000 1.0
C      1  0.5311040000000  0.3714990000000  0.4952630000000 1.0
C      1  0.5025290000000  0.5628160000000  0.4407230000000 1.0
C      1  0.4965700000000  0.4175320000000  0.4533570000000 1.0
C      1  0.5108220000000  0.5261450000000  0.5672050000000 1.0
C      1  0.5199340000000  0.4328680000000  0.4461690000000 1.0
C      1  0.4726110000000  0.4303510000000  0.4607740000000 1.0
C      1  0.5054400000000  0.5658990000000  0.4878390000000 1.0
C      1  0.4409580000000  0.4361940000000  0.4967540000000 1.0
C      1  0.3656790000000  0.5773960000000  0.4611870000000 1.0
C      1  0.5875260000000  0.4927120000000  0.4779900000000 1.0
C      1  0.5454120000000  0.5526010000000  0.4631060000000 1.0
C      1  0.4597620000000  0.5016700000000  0.5301390000000 1.0
C      1  0.4993030000000  0.4855540000000  0.5097620000000 1.0
C      1  0.4765890000000  0.5599440000000  0.5627390000000 1.0
C      1  0.5890480000000  0.5212810000000  0.6124420000000 1.0
C      1  0.4037090000000  0.5411310000000  0.4600400000000 1.0
C      1  0.4601380000000  0.6001640000000  0.5378280000000 1.0
C      1  0.4748880000000  0.4907540000000  0.5531720000000 1.0
C      1  0.4421920000000  0.5534420000000  0.5308720000000 1.0
C      1  0.5626360000000  0.4170380000000  0.4698850000000 1.0
END
