TITL C-612605-9286-1313 0.00184684984040189 125000 -729.079337864115 0 0 120 (C1) n - 1
REM
REM in /home/nfs/bkarasulu/CARBON/AIRSS/Generating-Clusters/TERSOFF/Only-C1/FIRE-HFTN
REM
REM
REM
REM
REM
REM ./C.cell (11c1c37f851c82e70ff6c80c92926a4b)
REM AIRSS Version 0.9.1 bugfix July 2018 build 013d7b7c2542+ Fri, 06 Jul 2018 19:26:36 +0100
REM compiler GCC version 9.2.1 20190827 (Red Hat 9.2.1-1)
REM options -cpp -mtune=generic -march=x86-64 -g -O0 -fpre-include=/usr/include/finclude/math-vector-fortran.h
REM seed -616985463 -1979237095 753394127 -2007698009 -1623565273 -940670184 490748844 1900146491 869243870 -698362925 1085429388 -1874820163 457463483 -156743928 1626375598 187142059 1488934576 -1706013533 334605602 61191874 -785907851 -1415456327 -113980512 910394569 -267009318 -1984402191 -520126187 2127940684 -191218815 -205707571 1490258317 -1663429508 1924425416
REM
CELL 1.54180   50.00000   50.00000   50.00000   90.00000   90.00000   90.00000
LATT -1
SFAC C  
C      1  0.4984860000000  0.4298010000000  0.5901460000000 1.0
C      1  0.4749210000000  0.5551010000000  0.4809200000000 1.0
C      1  0.5118200000000  0.5143740000000  0.5911840000000 1.0
C      1  0.5844060000000  0.5221060000000  0.5782110000000 1.0
C      1  0.4117040000000  0.5589310000000  0.5026240000000 1.0
C      1  0.5846300000000  0.4546300000000  0.5445050000000 1.0
C      1  0.5963440000000  0.5002250000000  0.4893540000000 1.0
C      1  0.4084300000000  0.4653150000000  0.4846020000000 1.0
C      1  0.4314970000000  0.4480290000000  0.5536180000000 1.0
C      1  0.4725570000000  0.4846440000000  0.5969520000000 1.0
C      1  0.4764990000000  0.4761420000000  0.4984340000000 1.0
C      1  0.5718920000000  0.5250260000000  0.5218690000000 1.0
C      1  0.4611140000000  0.4609840000000  0.4797270000000 1.0
C      1  0.4460890000000  0.4287640000000  0.4476210000000 1.0
C      1  0.5330660000000  0.4398220000000  0.5051880000000 1.0
C      1  0.5344000000000  0.5017900000000  0.5755730000000 1.0
C      1  0.5227280000000  0.5063990000000  0.4772190000000 1.0
C      1  0.5287460000000  0.4813300000000  0.4806790000000 1.0
C      1  0.5782530000000  0.4957750000000  0.4464440000000 1.0
C      1  0.4756540000000  0.4918430000000  0.3610830000000 1.0
C      1  0.4699710000000  0.6100630000000  0.4857900000000 1.0
C      1  0.4728790000000  0.5031810000000  0.4963980000000 1.0
C      1  0.4698640000000  0.4862620000000  0.5486000000000 1.0
C      1  0.5859860000000  0.5011850000000  0.5156870000000 1.0
C      1  0.4958120000000  0.4176560000000  0.4823860000000 1.0
C      1  0.5417060000000  0.4354060000000  0.5551910000000 1.0
C      1  0.4970390000000  0.5281280000000  0.4254450000000 1.0
C      1  0.4467960000000  0.4458130000000  0.3905120000000 1.0
C      1  0.4156780000000  0.5023410000000  0.3986880000000 1.0
C      1  0.4844090000000  0.4657770000000  0.5287290000000 1.0
C      1  0.5220060000000  0.4157500000000  0.4945500000000 1.0
C      1  0.4588270000000  0.4706170000000  0.4302860000000 1.0
C      1  0.4937120000000  0.4333960000000  0.6437210000000 1.0
C      1  0.4298920000000  0.4905230000000  0.5783940000000 1.0
C      1  0.4489640000000  0.4392350000000  0.4953200000000 1.0
C      1  0.4560540000000  0.5565840000000  0.5645050000000 1.0
C      1  0.5244420000000  0.4307860000000  0.5773930000000 1.0
C      1  0.4815280000000  0.4346270000000  0.5263610000000 1.0
C      1  0.4088190000000  0.5337790000000  0.4599230000000 1.0
C      1  0.5377060000000  0.3921420000000  0.4982500000000 1.0
C      1  0.5654130000000  0.4811240000000  0.4266620000000 1.0
C      1  0.4046610000000  0.4850110000000  0.4664430000000 1.0
C      1  0.5341670000000  0.4425950000000  0.4351460000000 1.0
C      1  0.4250200000000  0.5040830000000  0.4253310000000 1.0
C      1  0.4497840000000  0.4989790000000  0.3630600000000 1.0
C      1  0.5241850000000  0.4945170000000  0.5493780000000 1.0
C      1  0.4831170000000  0.4172480000000  0.5478180000000 1.0
C      1  0.4485310000000  0.4364370000000  0.5717850000000 1.0
C      1  0.4961870000000  0.4313390000000  0.6178600000000 1.0
C      1  0.4231180000000  0.5501450000000  0.4778480000000 1.0
C      1  0.5298800000000  0.4475450000000  0.5323780000000 1.0
C      1  0.4503850000000  0.5422990000000  0.4825720000000 1.0
C      1  0.4242170000000  0.4518320000000  0.5046480000000 1.0
C      1  0.5737950000000  0.4072880000000  0.5344830000000 1.0
C      1  0.4732740000000  0.4240400000000  0.5010780000000 1.0
C      1  0.4102930000000  0.5074100000000  0.4496110000000 1.0
C      1  0.4777890000000  0.5939500000000  0.5535300000000 1.0
C      1  0.5206880000000  0.5381420000000  0.4319840000000 1.0
C      1  0.6017480000000  0.5244770000000  0.4744060000000 1.0
C      1  0.5081340000000  0.5582870000000  0.5669530000000 1.0
C      1  0.5799640000000  0.5742670000000  0.4509530000000 1.0
C      1  0.4514090000000  0.5199270000000  0.5000280000000 1.0
C      1  0.4925070000000  0.4184890000000  0.4531630000000 1.0
C      1  0.5837400000000  0.5241460000000  0.4510280000000 1.0
C      1  0.4433890000000  0.5434500000000  0.5846810000000 1.0
C      1  0.4528380000000  0.4979000000000  0.4280090000000 1.0
C      1  0.4272380000000  0.4885630000000  0.3767040000000 1.0
C      1  0.4939300000000  0.4461190000000  0.4086770000000 1.0
C      1  0.4806600000000  0.5123120000000  0.5427410000000 1.0
C      1  0.5600190000000  0.5916030000000  0.4591970000000 1.0
C      1  0.5692950000000  0.5476670000000  0.4454060000000 1.0
C      1  0.4753710000000  0.4260870000000  0.5733320000000 1.0
C      1  0.4574950000000  0.5923330000000  0.5321430000000 1.0
C      1  0.5439780000000  0.4588980000000  0.4876190000000 1.0
C      1  0.5694840000000  0.4309720000000  0.5494460000000 1.0
C      1  0.4999300000000  0.5640630000000  0.4903520000000 1.0
C      1  0.5401210000000  0.5525900000000  0.4455940000000 1.0
C      1  0.5481260000000  0.4609020000000  0.4182360000000 1.0
C      1  0.5090310000000  0.4597160000000  0.3878910000000 1.0
C      1  0.5896300000000  0.5425570000000  0.5610520000000 1.0
C      1  0.4244000000000  0.4644190000000  0.5308470000000 1.0
C      1  0.5069240000000  0.4342580000000  0.4327220000000 1.0
C      1  0.4626320000000  0.6132550000000  0.5129510000000 1.0
C      1  0.4564300000000  0.4850060000000  0.5740010000000 1.0
C      1  0.5175920000000  0.5429890000000  0.5890880000000 1.0
C      1  0.4749030000000  0.6363940000000  0.5245140000000 1.0
C      1  0.5878530000000  0.4787790000000  0.5329910000000 1.0
C      1  0.5108790000000  0.5843410000000  0.4732690000000 1.0
C      1  0.5718660000000  0.5471820000000  0.5393120000000 1.0
C      1  0.4249470000000  0.5485430000000  0.5261030000000 1.0
C      1  0.5513370000000  0.5671260000000  0.5407830000000 1.0
C      1  0.4997120000000  0.6432980000000  0.5321260000000 1.0
C      1  0.5251220000000  0.6362610000000  0.5364390000000 1.0
C      1  0.4730620000000  0.5168820000000  0.4261790000000 1.0
C      1  0.5577760000000  0.5177830000000  0.5858230000000 1.0
C      1  0.5854510000000  0.4812310000000  0.4707020000000 1.0
C      1  0.5315210000000  0.3687810000000  0.4855030000000 1.0
C      1  0.4820740000000  0.5692210000000  0.5670980000000 1.0
C      1  0.4925050000000  0.6058310000000  0.4712090000000 1.0
C      1  0.6209430000000  0.5428330000000  0.4800950000000 1.0
C      1  0.5366280000000  0.4623790000000  0.3925060000000 1.0
C      1  0.5342070000000  0.5786120000000  0.4587860000000 1.0
C      1  0.5232050000000  0.5606270000000  0.5417410000000 1.0
C      1  0.4957020000000  0.4760340000000  0.3691660000000 1.0
C      1  0.4529910000000  0.4561710000000  0.4532370000000 1.0
C      1  0.4666430000000  0.4535390000000  0.4088980000000 1.0
C      1  0.4661540000000  0.4105300000000  0.4453340000000 1.0
C      1  0.4931610000000  0.4994400000000  0.6048980000000 1.0
C      1  0.5073340000000  0.5151130000000  0.5388900000000 1.0
C      1  0.5142510000000  0.4699790000000  0.5374710000000 1.0
C      1  0.4274800000000  0.4601990000000  0.3783020000000 1.0
C      1  0.5600820000000  0.3938370000000  0.5156070000000 1.0
C      1  0.5454940000000  0.6191580000000  0.5386820000000 1.0
C      1  0.5454150000000  0.5425510000000  0.5959670000000 1.0
C      1  0.4229930000000  0.4938140000000  0.5302440000000 1.0
C      1  0.5564940000000  0.5948280000000  0.5400390000000 1.0
C      1  0.4322400000000  0.5198250000000  0.5218130000000 1.0
C      1  0.5707180000000  0.4590810000000  0.4791520000000 1.0
C      1  0.4429850000000  0.5664740000000  0.5398550000000 1.0
C      1  0.5100250000000  0.5598050000000  0.5163530000000 1.0
END
