TITL C-612607-4507-762 5.86782507876451e-05 125000 -1126.23982437943 0 0 181 (C1) n - 1
REM
REM in /home/nfs/bkarasulu/CARBON/AIRSS/Generating-Clusters/TERSOFF/Only-C1/FIRE-HFTN
REM
REM
REM
REM
REM
REM ./C.cell (11c1c37f851c82e70ff6c80c92926a4b)
REM AIRSS Version 0.9.1 bugfix July 2018 build 013d7b7c2542+ Fri, 06 Jul 2018 19:26:36 +0100
REM compiler GCC version 9.2.1 20190827 (Red Hat 9.2.1-1)
REM options -cpp -mtune=generic -march=x86-64 -g -O0 -fpre-include=/usr/include/finclude/math-vector-fortran.h
REM seed 1219751988 -1572627715 -600653107 1702971658 1578717179 -1135754315 1087766803 -1761184564 -668007902 1294585635 -935817904 112187578 408138444 -1201511074 613602500 1835818344 -649957318 2133428354 -1382877118 -572198139 929078822 1719255320 -483712034 923447402 -39513709 1575209967 -1996846795 895744176 -1569850401 1370994741 -1093825920 -757999995 -277616488
REM
CELL 1.54180   50.00000   50.00000   50.00000   90.00000   90.00000   90.00000
LATT -1
SFAC C  
C      1  0.4475570000000  0.5236090000000  0.5980030000000 1.0
C      1  0.5073780000000  0.5632320000000  0.6107410000000 1.0
C      1  0.5814350000000  0.5751980000000  0.5141820000000 1.0
C      1  0.5577590000000  0.4671890000000  0.4384690000000 1.0
C      1  0.5503090000000  0.5271600000000  0.5111390000000 1.0
C      1  0.4838230000000  0.5088160000000  0.5459900000000 1.0
C      1  0.5077180000000  0.3723970000000  0.4863610000000 1.0
C      1  0.6042740000000  0.5298310000000  0.4234990000000 1.0
C      1  0.4012940000000  0.5675390000000  0.5316690000000 1.0
C      1  0.4837890000000  0.6009290000000  0.5478920000000 1.0
C      1  0.4682840000000  0.4445840000000  0.5588890000000 1.0
C      1  0.4204720000000  0.4753030000000  0.3910300000000 1.0
C      1  0.4415780000000  0.5681760000000  0.4862130000000 1.0
C      1  0.5725070000000  0.4687410000000  0.4121200000000 1.0
C      1  0.4334780000000  0.5351440000000  0.5493660000000 1.0
C      1  0.5771690000000  0.4669860000000  0.5131760000000 1.0
C      1  0.3826730000000  0.5330100000000  0.5049420000000 1.0
C      1  0.3873780000000  0.4364500000000  0.4505470000000 1.0
C      1  0.4221920000000  0.4946410000000  0.4439150000000 1.0
C      1  0.5649040000000  0.4518280000000  0.4653200000000 1.0
C      1  0.3863290000000  0.5239630000000  0.4773850000000 1.0
C      1  0.4658220000000  0.5054850000000  0.5258190000000 1.0
C      1  0.5094050000000  0.4439220000000  0.4772720000000 1.0
C      1  0.5211320000000  0.5193360000000  0.5712580000000 1.0
C      1  0.4987260000000  0.5052860000000  0.4668990000000 1.0
C      1  0.3738900000000  0.4565850000000  0.5244100000000 1.0
C      1  0.5603710000000  0.5239590000000  0.4421200000000 1.0
C      1  0.4503860000000  0.5681000000000  0.4118120000000 1.0
C      1  0.4335750000000  0.5249750000000  0.4999580000000 1.0
C      1  0.5749510000000  0.4072480000000  0.4295540000000 1.0
C      1  0.4681730000000  0.5598490000000  0.5757510000000 1.0
C      1  0.4785010000000  0.4861350000000  0.4637590000000 1.0
C      1  0.6070790000000  0.5396310000000  0.5365440000000 1.0
C      1  0.5534160000000  0.5768630000000  0.5163120000000 1.0
C      1  0.4672300000000  0.5658400000000  0.5261110000000 1.0
C      1  0.4090020000000  0.5991120000000  0.4725530000000 1.0
C      1  0.4722110000000  0.5757790000000  0.5528880000000 1.0
C      1  0.5636660000000  0.4248090000000  0.5334510000000 1.0
C      1  0.5564550000000  0.4149910000000  0.5594190000000 1.0
C      1  0.3892200000000  0.4511180000000  0.5016530000000 1.0
C      1  0.4605020000000  0.5140530000000  0.3941830000000 1.0
C      1  0.5104740000000  0.4531380000000  0.4145720000000 1.0
C      1  0.5056620000000  0.4965730000000  0.5829890000000 1.0
C      1  0.4911900000000  0.3898400000000  0.5855600000000 1.0
C      1  0.5645250000000  0.5493760000000  0.5690170000000 1.0
C      1  0.3912490000000  0.5833790000000  0.4865780000000 1.0
C      1  0.5895240000000  0.5550910000000  0.4934180000000 1.0
C      1  0.5248530000000  0.4227230000000  0.6050770000000 1.0
C      1  0.5297020000000  0.6086760000000  0.5374930000000 1.0
C      1  0.5500000000000  0.4930330000000  0.4759150000000 1.0
C      1  0.6103190000000  0.4174620000000  0.4768350000000 1.0
C      1  0.5052040000000  0.5269530000000  0.5488660000000 1.0
C      1  0.5908350000000  0.5463490000000  0.5573330000000 1.0
C      1  0.4427700000000  0.4853970000000  0.4277520000000 1.0
C      1  0.5200660000000  0.4116790000000  0.5112610000000 1.0
C      1  0.5641950000000  0.5550940000000  0.4065410000000 1.0
C      1  0.3958180000000  0.4847060000000  0.4462060000000 1.0
C      1  0.4844100000000  0.5393170000000  0.4334760000000 1.0
C      1  0.5574450000000  0.4062920000000  0.4502040000000 1.0
C      1  0.4296370000000  0.5436910000000  0.4799550000000 1.0
C      1  0.5653810000000  0.5370550000000  0.4882300000000 1.0
C      1  0.5731030000000  0.4048540000000  0.5142200000000 1.0
C      1  0.5217860000000  0.4929620000000  0.4785250000000 1.0
C      1  0.4445950000000  0.5231720000000  0.5254280000000 1.0
C      1  0.5343770000000  0.4737640000000  0.5284200000000 1.0
C      1  0.5816960000000  0.5946170000000  0.4574800000000 1.0
C      1  0.4914370000000  0.5495560000000  0.4843120000000 1.0
C      1  0.4525300000000  0.5609060000000  0.3845630000000 1.0
C      1  0.4455590000000  0.5774980000000  0.5125190000000 1.0
C      1  0.5399970000000  0.5968180000000  0.5611270000000 1.0
C      1  0.4985040000000  0.4736370000000  0.4021180000000 1.0
C      1  0.4822060000000  0.5926980000000  0.4416600000000 1.0
C      1  0.5293090000000  0.6109740000000  0.4896630000000 1.0
C      1  0.5313540000000  0.5618920000000  0.4608980000000 1.0
C      1  0.5118540000000  0.5992150000000  0.4431590000000 1.0
C      1  0.4224770000000  0.4286480000000  0.4088380000000 1.0
C      1  0.4467790000000  0.5397160000000  0.5738910000000 1.0
C      1  0.4079280000000  0.4918010000000  0.6155090000000 1.0
C      1  0.4075190000000  0.5517060000000  0.4385310000000 1.0
C      1  0.5324540000000  0.6133380000000  0.4612110000000 1.0
C      1  0.3989210000000  0.4104990000000  0.4454630000000 1.0
C      1  0.4592370000000  0.6061490000000  0.4534780000000 1.0
C      1  0.5349370000000  0.5024530000000  0.3956880000000 1.0
C      1  0.5461250000000  0.5362250000000  0.6312620000000 1.0
C      1  0.5608320000000  0.5051200000000  0.5529470000000 1.0
C      1  0.6241900000000  0.5238960000000  0.4403320000000 1.0
C      1  0.5518070000000  0.4259400000000  0.4698130000000 1.0
C      1  0.4727210000000  0.5284490000000  0.6119960000000 1.0
C      1  0.4247800000000  0.5651060000000  0.4231290000000 1.0
C      1  0.5468390000000  0.5021160000000  0.5276430000000 1.0
C      1  0.5572280000000  0.4967180000000  0.4481890000000 1.0
C      1  0.5490930000000  0.5248930000000  0.5693550000000 1.0
C      1  0.4580950000000  0.4714190000000  0.5642730000000 1.0
C      1  0.5451420000000  0.6046550000000  0.5131580000000 1.0
C      1  0.5281460000000  0.4254600000000  0.4862520000000 1.0
C      1  0.5938720000000  0.5735110000000  0.4694110000000 1.0
C      1  0.5582210000000  0.4876040000000  0.3953800000000 1.0
C      1  0.5157250000000  0.4036460000000  0.5858250000000 1.0
C      1  0.5102400000000  0.4931870000000  0.6105980000000 1.0
C      1  0.4966410000000  0.4385210000000  0.5541650000000 1.0
C      1  0.4871840000000  0.3750560000000  0.4687290000000 1.0
C      1  0.5133920000000  0.4686530000000  0.4892110000000 1.0
C      1  0.4418510000000  0.4930100000000  0.4003740000000 1.0
C      1  0.4603170000000  0.4798970000000  0.5157340000000 1.0
C      1  0.5265180000000  0.3838170000000  0.5044920000000 1.0
C      1  0.4331890000000  0.4714250000000  0.5202770000000 1.0
C      1  0.5371030000000  0.5518860000000  0.5207880000000 1.0
C      1  0.5947620000000  0.4774430000000  0.5338880000000 1.0
C      1  0.4800740000000  0.4598960000000  0.5175700000000 1.0
C      1  0.4266690000000  0.4799190000000  0.5474490000000 1.0
C      1  0.4667080000000  0.3835430000000  0.4530220000000 1.0
C      1  0.5081440000000  0.4681690000000  0.5170580000000 1.0
C      1  0.4539690000000  0.3992210000000  0.5519650000000 1.0
C      1  0.3787560000000  0.4417550000000  0.4770960000000 1.0
C      1  0.5682550000000  0.4721730000000  0.4864660000000 1.0
C      1  0.4898770000000  0.5087300000000  0.6239460000000 1.0
C      1  0.5525280000000  0.5750460000000  0.5711500000000 1.0
C      1  0.4741690000000  0.5668830000000  0.4284800000000 1.0
C      1  0.5025180000000  0.6038310000000  0.5270270000000 1.0
C      1  0.4718550000000  0.4601050000000  0.4554880000000 1.0
C      1  0.4852740000000  0.5190540000000  0.4104170000000 1.0
C      1  0.4331020000000  0.6070970000000  0.4619300000000 1.0
C      1  0.5103580000000  0.5457730000000  0.5288820000000 1.0
C      1  0.4067420000000  0.5397230000000  0.4637490000000 1.0
C      1  0.3929850000000  0.4590870000000  0.4329540000000 1.0
C      1  0.5515690000000  0.5416070000000  0.4633650000000 1.0
C      1  0.4271080000000  0.5074200000000  0.6073080000000 1.0
C      1  0.6219720000000  0.4774730000000  0.5314570000000 1.0
C      1  0.5069320000000  0.5008990000000  0.4025510000000 1.0
C      1  0.5382850000000  0.4880720000000  0.6162860000000 1.0
C      1  0.5890340000000  0.4449530000000  0.5818810000000 1.0
C      1  0.4232080000000  0.5851170000000  0.5282690000000 1.0
C      1  0.3796190000000  0.4998680000000  0.4639460000000 1.0
C      1  0.5809990000000  0.4864270000000  0.5583340000000 1.0
C      1  0.5292870000000  0.4065150000000  0.5604840000000 1.0
C      1  0.5297480000000  0.5560350000000  0.6236530000000 1.0
C      1  0.5318760000000  0.4537180000000  0.4304010000000 1.0
C      1  0.4562280000000  0.4248180000000  0.5405410000000 1.0
C      1  0.4830090000000  0.4384030000000  0.4693080000000 1.0
C      1  0.6129990000000  0.4249240000000  0.4509650000000 1.0
C      1  0.5966790000000  0.4256550000000  0.4276170000000 1.0
C      1  0.5551100000000  0.3826010000000  0.5086590000000 1.0
C      1  0.5104820000000  0.5702720000000  0.4804280000000 1.0
C      1  0.4463170000000  0.3955870000000  0.4397610000000 1.0
C      1  0.4542040000000  0.5351810000000  0.3764840000000 1.0
C      1  0.4063950000000  0.5424170000000  0.5447740000000 1.0
C      1  0.4834980000000  0.5533930000000  0.5999120000000 1.0
C      1  0.5602140000000  0.6106770000000  0.4534040000000 1.0
C      1  0.5426990000000  0.5701060000000  0.4126610000000 1.0
C      1  0.5558600000000  0.4522350000000  0.5268950000000 1.0
C      1  0.4234850000000  0.4100340000000  0.4304780000000 1.0
C      1  0.5675060000000  0.4262980000000  0.5829610000000 1.0
C      1  0.4172400000000  0.4574830000000  0.5014140000000 1.0
C      1  0.4677820000000  0.4330730000000  0.5153180000000 1.0
C      1  0.5537070000000  0.4684670000000  0.6014620000000 1.0
C      1  0.4872900000000  0.5509970000000  0.5127220000000 1.0
C      1  0.3993280000000  0.4935500000000  0.5444800000000 1.0
C      1  0.5926210000000  0.4486490000000  0.4110280000000 1.0
C      1  0.5508140000000  0.5097990000000  0.6294620000000 1.0
C      1  0.4089460000000  0.4541500000000  0.4080890000000 1.0
C      1  0.4685640000000  0.3871400000000  0.5712250000000 1.0
C      1  0.5054450000000  0.5952100000000  0.4970640000000 1.0
C      1  0.5960770000000  0.4095420000000  0.4982670000000 1.0
C      1  0.6292880000000  0.5266010000000  0.4914010000000 1.0
C      1  0.3924030000000  0.5199100000000  0.5316090000000 1.0
C      1  0.5768050000000  0.5350720000000  0.4217670000000 1.0
C      1  0.3867980000000  0.3874690000000  0.4538280000000 1.0
C      1  0.5475160000000  0.4392480000000  0.6008080000000 1.0
C      1  0.4903910000000  0.5317590000000  0.4616000000000 1.0
C      1  0.6108740000000  0.5396010000000  0.5081050000000 1.0
C      1  0.4807620000000  0.4906330000000  0.5681160000000 1.0
C      1  0.4552180000000  0.4610130000000  0.4337370000000 1.0
C      1  0.6332850000000  0.5217210000000  0.4653700000000 1.0
C      1  0.4685310000000  0.4235480000000  0.4888540000000 1.0
C      1  0.4299710000000  0.4491680000000  0.4786590000000 1.0
C      1  0.3778670000000  0.4747400000000  0.5438750000000 1.0
C      1  0.5782100000000  0.4719700000000  0.5830150000000 1.0
C      1  0.5989540000000  0.5928990000000  0.5254830000000 1.0
C      1  0.5277510000000  0.5755530000000  0.4355380000000 1.0
C      1  0.5132870000000  0.4188630000000  0.5394640000000 1.0
C      1  0.3861210000000  0.5633050000000  0.5070360000000 1.0
END
