TITL C-612600-6631-872 0.0440643341216712 125000 -824.713066611957 0 0 135 (C1) n - 1
REM
REM in /home/nfs/bkarasulu/CARBON/AIRSS/Generating-Clusters/TERSOFF/Only-C1/FIRE-HFTN
REM
REM
REM
REM
REM
REM ./C.cell (11c1c37f851c82e70ff6c80c92926a4b)
REM AIRSS Version 0.9.1 bugfix July 2018 build 013d7b7c2542+ Fri, 06 Jul 2018 19:26:36 +0100
REM compiler GCC version 9.2.1 20190827 (Red Hat 9.2.1-1)
REM options -cpp -mtune=generic -march=x86-64 -g -O0 -fpre-include=/usr/include/finclude/math-vector-fortran.h
REM seed -528598876 1839028501 -1596756905 1417078580 1095018790 -217715757 -1963660584 -1860450768 -1875040554 1434261012 -613921638 821278493 1593241985 -987933172 -1837466698 1283233812 997968637 -2050884061 -2071727735 -583625338 316316028 1105965356 818163015 -1190780740 2026358354 -714015174 -1303536345 657207932 1430827214 764711812 -1172693701 1591181254 836040782
REM
CELL 1.54180   50.00000   50.00000   50.00000   90.00000   90.00000   90.00000
LATT -1
SFAC C  
C      1  0.4675080000000  0.5624840000000  0.4286190000000 1.0
C      1  0.4577270000000  0.4046650000000  0.5083090000000 1.0
C      1  0.4375280000000  0.5580770000000  0.5268030000000 1.0
C      1  0.4444340000000  0.5609530000000  0.5557230000000 1.0
C      1  0.5175970000000  0.4951840000000  0.5359580000000 1.0
C      1  0.4349350000000  0.5396800000000  0.5716200000000 1.0
C      1  0.4952510000000  0.4282840000000  0.4136550000000 1.0
C      1  0.4692740000000  0.4693860000000  0.4169350000000 1.0
C      1  0.5766370000000  0.5553710000000  0.5189870000000 1.0
C      1  0.5174100000000  0.5619120000000  0.5744130000000 1.0
C      1  0.5722870000000  0.4674500000000  0.5432100000000 1.0
C      1  0.4627030000000  0.5680270000000  0.5085180000000 1.0
C      1  0.5526310000000  0.4786570000000  0.4049840000000 1.0
C      1  0.3861130000000  0.5170340000000  0.4876840000000 1.0
C      1  0.5535560000000  0.4629040000000  0.5226660000000 1.0
C      1  0.5598420000000  0.5674850000000  0.4989470000000 1.0
C      1  0.4343750000000  0.5180430000000  0.4054660000000 1.0
C      1  0.4606410000000  0.4568360000000  0.5441220000000 1.0
C      1  0.5290740000000  0.4887470000000  0.4176190000000 1.0
C      1  0.5793640000000  0.4361200000000  0.4637800000000 1.0
C      1  0.5242770000000  0.5831600000000  0.5260120000000 1.0
C      1  0.4737250000000  0.5948510000000  0.4667990000000 1.0
C      1  0.4567710000000  0.5141590000000  0.5376080000000 1.0
C      1  0.3922740000000  0.5022700000000  0.5478640000000 1.0
C      1  0.3991410000000  0.4761070000000  0.5479280000000 1.0
C      1  0.5548370000000  0.5149880000000  0.5154360000000 1.0
C      1  0.5503910000000  0.4105590000000  0.4980610000000 1.0
C      1  0.4965660000000  0.5017400000000  0.5532870000000 1.0
C      1  0.4552100000000  0.4266410000000  0.4385910000000 1.0
C      1  0.6169330000000  0.5022380000000  0.4840340000000 1.0
C      1  0.3911220000000  0.4924130000000  0.4977610000000 1.0
C      1  0.4121950000000  0.4588350000000  0.5291450000000 1.0
C      1  0.5702240000000  0.5077660000000  0.4599820000000 1.0
C      1  0.5783210000000  0.5276840000000  0.5129080000000 1.0
C      1  0.4410150000000  0.4165300000000  0.5260550000000 1.0
C      1  0.4958790000000  0.5075680000000  0.6046940000000 1.0
C      1  0.5031880000000  0.4109800000000  0.5535830000000 1.0
C      1  0.5103970000000  0.4261160000000  0.4600380000000 1.0
C      1  0.4733080000000  0.4055770000000  0.4844290000000 1.0
C      1  0.5369020000000  0.4658970000000  0.4718280000000 1.0
C      1  0.5575570000000  0.5698100000000  0.4700300000000 1.0
C      1  0.5685230000000  0.5416200000000  0.4077470000000 1.0
C      1  0.5461620000000  0.4595030000000  0.4976780000000 1.0
C      1  0.5158880000000  0.5079960000000  0.4340610000000 1.0
C      1  0.5331480000000  0.5883800000000  0.4627410000000 1.0
C      1  0.4354500000000  0.4417780000000  0.5385510000000 1.0
C      1  0.5301130000000  0.5192820000000  0.5276050000000 1.0
C      1  0.5241660000000  0.5559510000000  0.4253800000000 1.0
C      1  0.5733970000000  0.5219990000000  0.3902260000000 1.0
C      1  0.4844900000000  0.5798650000000  0.4441230000000 1.0
C      1  0.4624570000000  0.4705840000000  0.5188980000000 1.0
C      1  0.5360940000000  0.4713820000000  0.5754440000000 1.0
C      1  0.3969510000000  0.5264810000000  0.5370360000000 1.0
C      1  0.5087540000000  0.5393280000000  0.5342840000000 1.0
C      1  0.4927890000000  0.6138890000000  0.4758820000000 1.0
C      1  0.4102470000000  0.4895750000000  0.4377590000000 1.0
C      1  0.5141590000000  0.5776540000000  0.4418690000000 1.0
C      1  0.4716290000000  0.4539880000000  0.4980590000000 1.0
C      1  0.5243660000000  0.6077910000000  0.5114720000000 1.0
C      1  0.4131080000000  0.5441000000000  0.5244710000000 1.0
C      1  0.5731440000000  0.4579810000000  0.4456310000000 1.0
C      1  0.4656030000000  0.4861400000000  0.4691750000000 1.0
C      1  0.5168220000000  0.5078830000000  0.4643980000000 1.0
C      1  0.5728500000000  0.3969170000000  0.5403720000000 1.0
C      1  0.4716700000000  0.4966120000000  0.4237710000000 1.0
C      1  0.4463110000000  0.5008120000000  0.4875890000000 1.0
C      1  0.5098490000000  0.4545450000000  0.4656250000000 1.0
C      1  0.5513210000000  0.5477480000000  0.4287380000000 1.0
C      1  0.4833500000000  0.5319220000000  0.5940710000000 1.0
C      1  0.4838420000000  0.5244670000000  0.5414930000000 1.0
C      1  0.5678860000000  0.4582440000000  0.4178360000000 1.0
C      1  0.4712220000000  0.5706360000000  0.5599170000000 1.0
C      1  0.5136980000000  0.5497100000000  0.4891710000000 1.0
C      1  0.4046390000000  0.4669270000000  0.5016500000000 1.0
C      1  0.4523590000000  0.4966480000000  0.5151780000000 1.0
C      1  0.5174320000000  0.5645410000000  0.5461480000000 1.0
C      1  0.5667860000000  0.5105160000000  0.5687370000000 1.0
C      1  0.5370950000000  0.5343770000000  0.6100770000000 1.0
C      1  0.4897680000000  0.4572730000000  0.5533430000000 1.0
C      1  0.5732050000000  0.5566230000000  0.5479380000000 1.0
C      1  0.5281840000000  0.5330410000000  0.4711090000000 1.0
C      1  0.5716790000000  0.4134510000000  0.5179530000000 1.0
C      1  0.5972690000000  0.5089750000000  0.4672450000000 1.0
C      1  0.5057710000000  0.4517710000000  0.5286940000000 1.0
C      1  0.5979990000000  0.4388730000000  0.4854560000000 1.0
C      1  0.4769040000000  0.4327500000000  0.5945210000000 1.0
C      1  0.5107110000000  0.4776840000000  0.5145470000000 1.0
C      1  0.5403170000000  0.5484120000000  0.5856690000000 1.0
C      1  0.4104230000000  0.4669460000000  0.4521850000000 1.0
C      1  0.4717560000000  0.5312970000000  0.4681240000000 1.0
C      1  0.4586480000000  0.4112120000000  0.4604500000000 1.0
C      1  0.4026090000000  0.5667880000000  0.4794910000000 1.0
C      1  0.5199370000000  0.6073550000000  0.4826030000000 1.0
C      1  0.5089340000000  0.4936260000000  0.4893720000000 1.0
C      1  0.5066130000000  0.5336690000000  0.4212200000000 1.0
C      1  0.4627800000000  0.5179920000000  0.4070290000000 1.0
C      1  0.5118070000000  0.4188420000000  0.4329050000000 1.0
C      1  0.4526450000000  0.5854320000000  0.4851230000000 1.0
C      1  0.5203430000000  0.5145420000000  0.6176250000000 1.0
C      1  0.3893810000000  0.5432100000000  0.4815490000000 1.0
C      1  0.4374090000000  0.4917740000000  0.5798450000000 1.0
C      1  0.4702670000000  0.4602460000000  0.6014160000000 1.0
C      1  0.5659720000000  0.4963550000000  0.3876020000000 1.0
C      1  0.5619030000000  0.5392260000000  0.5683100000000 1.0
C      1  0.5120260000000  0.4234240000000  0.5288880000000 1.0
C      1  0.4921350000000  0.4792710000000  0.5977200000000 1.0
C      1  0.5586770000000  0.4804780000000  0.4583110000000 1.0
C      1  0.5216280000000  0.4111150000000  0.5046600000000 1.0
C      1  0.5608750000000  0.4824670000000  0.5650880000000 1.0
C      1  0.5023080000000  0.4101240000000  0.4827580000000 1.0
C      1  0.4451430000000  0.4718490000000  0.5960870000000 1.0
C      1  0.5724110000000  0.3826910000000  0.5621990000000 1.0
C      1  0.4108730000000  0.4553830000000  0.4766190000000 1.0
C      1  0.5076060000000  0.4669830000000  0.5761420000000 1.0
C      1  0.4290790000000  0.5344020000000  0.4497000000000 1.0
C      1  0.4781300000000  0.5809540000000  0.5325000000000 1.0
C      1  0.5317820000000  0.5651330000000  0.5051590000000 1.0
C      1  0.4245650000000  0.5826910000000  0.4800560000000 1.0
C      1  0.4201430000000  0.5148520000000  0.4303420000000 1.0
C      1  0.4847910000000  0.5474990000000  0.4888190000000 1.0
C      1  0.4896340000000  0.4159300000000  0.5769520000000 1.0
C      1  0.5596850000000  0.4161670000000  0.4711100000000 1.0
C      1  0.6181610000000  0.4733330000000  0.5262960000000 1.0
C      1  0.4755420000000  0.5059650000000  0.4508960000000 1.0
C      1  0.4823730000000  0.4633370000000  0.4737670000000 1.0
C      1  0.5546950000000  0.5402780000000  0.4576860000000 1.0
C      1  0.6248910000000  0.4901090000000  0.5064940000000 1.0
C      1  0.4708500000000  0.4414160000000  0.4199960000000 1.0
C      1  0.4413560000000  0.5135150000000  0.5625670000000 1.0
C      1  0.4888780000000  0.5572370000000  0.5802660000000 1.0
C      1  0.4794950000000  0.5405860000000  0.4136220000000 1.0
C      1  0.4406440000000  0.5578620000000  0.4372830000000 1.0
C      1  0.4428390000000  0.5264470000000  0.4740500000000 1.0
C      1  0.5919410000000  0.4341180000000  0.5133230000000 1.0
C      1  0.5967220000000  0.4560620000000  0.5323620000000 1.0
END
