TITL C-612607-4507-884 145864.160305723 125000 -1034.49915252703 0 0 169 (C1) n - 1
REM
REM in /home/nfs/bkarasulu/CARBON/AIRSS/Generating-Clusters/TERSOFF/Only-C1/FIRE-HFTN
REM
REM
REM
REM
REM
REM ./C.cell (11c1c37f851c82e70ff6c80c92926a4b)
REM AIRSS Version 0.9.1 bugfix July 2018 build 013d7b7c2542+ Fri, 06 Jul 2018 19:26:36 +0100
REM compiler GCC version 9.2.1 20190827 (Red Hat 9.2.1-1)
REM options -cpp -mtune=generic -march=x86-64 -g -O0 -fpre-include=/usr/include/finclude/math-vector-fortran.h
REM seed -1848816052 -1842253189 -1794903792 1998550282 -1107977458 -767193141 -1300290203 -1850748836 1816381204 884465428 -1004174039 -479118673 -954181154 1704951082 1914379523 -1884743639 887322761 1293638514 -863963633 1119957019 -1492980491 -178535513 2049051157 -677097624 1266593086 -1354427177 1013860172 -1642077732 -1124322261 2030719556 1881876567 -1005211715 -572070657
REM
CELL 1.54180   50.00000   50.00000   50.00000   90.00000   90.00000   90.00000
LATT -1
SFAC C  
C      1  0.5521400000000  0.4281190000000  0.5882440000000 1.0
C      1  0.5413020000000  0.4913120000000  0.3883120000000 1.0
C      1  0.4215350000000  0.4814190000000  0.5088440000000 1.0
C      1  0.5347190000000  0.4205350000000  0.5145240000000 1.0
C      1  0.5599040000000  0.3841190000000  0.5718130000000 1.0
C      1  0.5124310000000  0.5165110000000  0.4966110000000 1.0
C      1  0.5001520000000  0.3941810000000  0.4762460000000 1.0
C      1  0.3870710000000  0.5354640000000  0.5159470000000 1.0
C      1  0.5565440000000  0.4191170000000  0.6136720000000 1.0
C      1  0.5093400000000  0.4152830000000  0.4161800000000 1.0
C      1  0.4055730000000  0.4236490000000  0.4507880000000 1.0
C      1  0.5172270000000  0.5377750000000  0.6008610000000 1.0
C      1  0.5622130000000  0.4867970000000  0.4082960000000 1.0
C      1  0.4960520000000  0.4550250000000  0.5088720000000 1.0
C      1  0.5501270000000  0.5733490000000  0.5018120000000 1.0
C      1  0.4943890000000  0.6280960000000  0.4705700000000 1.0
C      1  0.4561710000000  0.5162520000000  0.5867860000000 1.0
C      1  0.5223740000000  0.4362790000000  0.4592660000000 1.0
C      1  0.4622940000000  0.4746070000000  0.5562470000000 1.0
C      1  0.4956190000000  0.4628320000000  0.4813220000000 1.0
C      1  0.5312270000000  0.5659830000000  0.4803990000000 1.0
C      1  0.3800870000000  0.5599550000000  0.4740090000000 1.0
C      1  0.5642190000000  0.3755130000000  0.5973840000000 1.0
C      1  0.5187570000000  0.4951360000000  0.4517770000000 1.0
C      1  0.4870710000000  0.4578930000000  0.6293290000000 1.0
C      1  0.5815100000000  0.4271420000000  0.4537070000000 1.0
C      1  0.6041170000000  0.6031010000000  0.5501520000000 1.0
C      1  0.4268390000000  0.5930330000000  0.5448610000000 1.0
C      1  0.4781720000000  0.4395410000000  0.6474590000000 1.0
C      1  0.3763070000000  0.5418480000000  0.4545800000000 1.0
C      1  0.5197070000000  0.6289290000000  0.4795280000000 1.0
C      1  0.5864540000000  0.5036160000000  0.4986100000000 1.0
C      1  0.5145980000000  0.4923900000000  0.3763400000000 1.0
C      1  0.5618400000000  0.4160400000000  0.4355650000000 1.0
C      1  0.4890870000000  0.5416680000000  0.3784060000000 1.0
C      1  0.5812180000000  0.5350870000000  0.5621750000000 1.0
C      1  0.5625360000000  0.3928740000000  0.6184300000000 1.0
C      1  0.6242290000000  0.6100530000000  0.5317100000000 1.0
C      1  0.4581600000000  0.5691850000000  0.4107400000000 1.0
C      1  0.5731400000000  0.4777550000000  0.5024790000000 1.0
C      1  0.3881170000000  0.4711160000000  0.4717020000000 1.0
C      1  0.4283780000000  0.4534370000000  0.5786970000000 1.0
C      1  0.5390890000000  0.5425020000000  0.4661320000000 1.0
C      1  0.4194650000000  0.5703830000000  0.5021660000000 1.0
C      1  0.5811770000000  0.5057040000000  0.5608540000000 1.0
C      1  0.4248950000000  0.4303210000000  0.5565300000000 1.0
C      1  0.4378830000000  0.5829390000000  0.4825290000000 1.0
C      1  0.4380460000000  0.4734990000000  0.3899640000000 1.0
C      1  0.5301850000000  0.5656190000000  0.4132370000000 1.0
C      1  0.4464340000000  0.4094010000000  0.5639400000000 1.0
C      1  0.5503550000000  0.5762180000000  0.4005800000000 1.0
C      1  0.5020670000000  0.6088780000000  0.5373410000000 1.0
C      1  0.5261010000000  0.3923730000000  0.4202640000000 1.0
C      1  0.5665170000000  0.5349310000000  0.4680670000000 1.0
C      1  0.5022520000000  0.5710430000000  0.4857400000000 1.0
C      1  0.4557460000000  0.5333090000000  0.5242450000000 1.0
C      1  0.4502650000000  0.4025140000000  0.4590730000000 1.0
C      1  0.5323000000000  0.5568600000000  0.5723660000000 1.0
C      1  0.5065440000000  0.4275430000000  0.5123330000000 1.0
C      1  0.4655880000000  0.4473410000000  0.5485170000000 1.0
C      1  0.5189520000000  0.6268320000000  0.5267490000000 1.0
C      1  0.4946480000000  0.5142600000000  0.3824240000000 1.0
C      1  0.5527310000000  0.6013390000000  0.5046570000000 1.0
C      1  0.5716880000000  0.4280840000000  0.4810870000000 1.0
C      1  0.4264690000000  0.5690220000000  0.5304670000000 1.0
C      1  0.6239520000000  0.4873200000000  0.5833040000000 1.0
C      1  0.4327180000000  0.4161020000000  0.4371240000000 1.0
C      1  0.4580790000000  0.5059190000000  0.4581020000000 1.0
C      1  0.4090160000000  0.4107860000000  0.4773210000000 1.0
C      1  0.4220010000000  0.5004310000000  0.4868990000000 1.0
C      1  0.3857130000000  0.5168400000000  0.4538680000000 1.0
C      1  0.4547990000000  0.4474150000000  0.5936020000000 1.0
C      1  0.4464610000000  0.6104820000000  0.4871650000000 1.0
C      1  0.4735010000000  0.5606340000000  0.3900730000000 1.0
C      1  0.5952840000000  0.5816660000000  0.5635770000000 1.0
C      1  0.5075550000000  0.5103190000000  0.6058120000000 1.0
C      1  0.4354100000000  0.4567040000000  0.5088520000000 1.0
C      1  0.5132430000000  0.4683930000000  0.6300800000000 1.0
C      1  0.4756080000000  0.5021890000000  0.4006550000000 1.0
C      1  0.5576490000000  0.4968770000000  0.5467610000000 1.0
C      1  0.5309770000000  0.3966650000000  0.4702500000000 1.0
C      1  0.4737760000000  0.5327170000000  0.5708630000000 1.0
C      1  0.5208730000000  0.5204590000000  0.4671450000000 1.0
C      1  0.4883890000000  0.4797110000000  0.4139370000000 1.0
C      1  0.4700690000000  0.4682810000000  0.6083080000000 1.0
C      1  0.5003950000000  0.5645500000000  0.5139510000000 1.0
C      1  0.3993080000000  0.4980810000000  0.4692770000000 1.0
C      1  0.4437850000000  0.5605070000000  0.4342210000000 1.0
C      1  0.4179790000000  0.5221850000000  0.5512610000000 1.0
C      1  0.5200610000000  0.4770580000000  0.4737830000000 1.0
C      1  0.4565090000000  0.3923050000000  0.5431870000000 1.0
C      1  0.4365500000000  0.6244080000000  0.5095820000000 1.0
C      1  0.5012720000000  0.5809040000000  0.5375870000000 1.0
C      1  0.4957860000000  0.5563080000000  0.6055600000000 1.0
C      1  0.4870690000000  0.5021990000000  0.5026650000000 1.0
C      1  0.5121650000000  0.4768680000000  0.4283820000000 1.0
C      1  0.6426750000000  0.5659580000000  0.5404070000000 1.0
C      1  0.5537750000000  0.5446760000000  0.5525420000000 1.0
C      1  0.5099230000000  0.5380520000000  0.5174690000000 1.0
C      1  0.4465660000000  0.5123960000000  0.4824480000000 1.0
C      1  0.5531570000000  0.4111490000000  0.5652530000000 1.0
C      1  0.4744400000000  0.4978930000000  0.6021910000000 1.0
C      1  0.4030020000000  0.4531640000000  0.4537390000000 1.0
C      1  0.5394320000000  0.4568400000000  0.4710690000000 1.0
C      1  0.5991350000000  0.4886880000000  0.5734850000000 1.0
C      1  0.4399980000000  0.4427100000000  0.5333610000000 1.0
C      1  0.4780620000000  0.5218130000000  0.4467620000000 1.0
C      1  0.6300380000000  0.5492970000000  0.5592180000000 1.0
C      1  0.4844920000000  0.5582240000000  0.5787300000000 1.0
C      1  0.4465080000000  0.4997660000000  0.3983140000000 1.0
C      1  0.4822050000000  0.4578560000000  0.3944060000000 1.0
C      1  0.4668160000000  0.4291670000000  0.5730160000000 1.0
C      1  0.3946670000000  0.5565420000000  0.4976780000000 1.0
C      1  0.6249700000000  0.6347640000000  0.5201000000000 1.0
C      1  0.3781780000000  0.4717710000000  0.5002350000000 1.0
C      1  0.5484490000000  0.4108340000000  0.4903840000000 1.0
C      1  0.4398100000000  0.4900910000000  0.4430590000000 1.0
C      1  0.4528840000000  0.5696570000000  0.4614100000000 1.0
C      1  0.5698840000000  0.4609090000000  0.4186070000000 1.0
C      1  0.4293190000000  0.5361470000000  0.4289790000000 1.0
C      1  0.4727490000000  0.3924500000000  0.5213700000000 1.0
C      1  0.5531220000000  0.4849690000000  0.5217170000000 1.0
C      1  0.4334530000000  0.4614490000000  0.4514930000000 1.0
C      1  0.5895700000000  0.4520430000000  0.4390520000000 1.0
C      1  0.5130530000000  0.5248460000000  0.5423790000000 1.0
C      1  0.5728940000000  0.5088660000000  0.4226570000000 1.0
C      1  0.5004390000000  0.4659590000000  0.3729040000000 1.0
C      1  0.4537410000000  0.4519170000000  0.4008400000000 1.0
C      1  0.5751310000000  0.5304790000000  0.4960340000000 1.0
C      1  0.4379340000000  0.4159540000000  0.4824510000000 1.0
C      1  0.4901780000000  0.5155930000000  0.5546590000000 1.0
C      1  0.6446000000000  0.5303130000000  0.5736100000000 1.0
C      1  0.5321880000000  0.4974520000000  0.5081890000000 1.0
C      1  0.5515820000000  0.4384630000000  0.4183040000000 1.0
C      1  0.5102770000000  0.5545110000000  0.4268120000000 1.0
C      1  0.5644750000000  0.4560850000000  0.4855610000000 1.0
C      1  0.3958660000000  0.5135130000000  0.5328370000000 1.0
C      1  0.4903870000000  0.4805720000000  0.5213350000000 1.0
C      1  0.5469920000000  0.4194240000000  0.5395340000000 1.0
C      1  0.4325330000000  0.5086450000000  0.4214970000000 1.0
C      1  0.4636780000000  0.5174270000000  0.5032460000000 1.0
C      1  0.4941430000000  0.4435690000000  0.4611560000000 1.0
C      1  0.5338650000000  0.6225460000000  0.5031420000000 1.0
C      1  0.4828110000000  0.4896880000000  0.5468400000000 1.0
C      1  0.4420210000000  0.4448200000000  0.4838880000000 1.0
C      1  0.4686310000000  0.6214420000000  0.4735070000000 1.0
C      1  0.4356010000000  0.4796650000000  0.5672600000000 1.0
C      1  0.5429610000000  0.3952140000000  0.4431730000000 1.0
C      1  0.4481430000000  0.4428410000000  0.4304470000000 1.0
C      1  0.4760170000000  0.4374780000000  0.4407360000000 1.0
C      1  0.6436520000000  0.5055080000000  0.5835070000000 1.0
C      1  0.3950920000000  0.4864530000000  0.5203880000000 1.0
C      1  0.5071150000000  0.5684130000000  0.5624190000000 1.0
C      1  0.5228380000000  0.4910260000000  0.6190880000000 1.0
C      1  0.4820000000000  0.5653300000000  0.4656180000000 1.0
C      1  0.4914880000000  0.4040140000000  0.5032280000000 1.0
C      1  0.5773780000000  0.5235400000000  0.4446790000000 1.0
C      1  0.6435630000000  0.5898360000000  0.5255570000000 1.0
C      1  0.5393910000000  0.5187060000000  0.5490230000000 1.0
C      1  0.4301530000000  0.6178040000000  0.5348310000000 1.0
C      1  0.6619820000000  0.5932390000000  0.5056420000000 1.0
C      1  0.4340810000000  0.5431370000000  0.5389340000000 1.0
C      1  0.4857700000000  0.4121270000000  0.4312900000000 1.0
C      1  0.4909360000000  0.5467660000000  0.4453760000000 1.0
C      1  0.4789150000000  0.3953970000000  0.4547730000000 1.0
C      1  0.5625090000000  0.5506690000000  0.5160020000000 1.0
C      1  0.6021170000000  0.5541900000000  0.5638970000000 1.0
C      1  0.4318070000000  0.5072300000000  0.5723640000000 1.0
C      1  0.5234980000000  0.4418450000000  0.4182240000000 1.0
END
