TITL C-612601-4209-1318 0.000246110740091599 125000 -544.908682121972 0 0 89 (C1) n - 1
REM
REM in /home/nfs/bkarasulu/CARBON/AIRSS/Generating-Clusters/TERSOFF/Only-C1/FIRE-HFTN
REM
REM
REM
REM
REM
REM ./C.cell (11c1c37f851c82e70ff6c80c92926a4b)
REM AIRSS Version 0.9.1 bugfix July 2018 build 013d7b7c2542+ Fri, 06 Jul 2018 19:26:36 +0100
REM compiler GCC version 9.2.1 20190827 (Red Hat 9.2.1-1)
REM options -cpp -mtune=generic -march=x86-64 -g -O0 -fpre-include=/usr/include/finclude/math-vector-fortran.h
REM seed -1409268159 -1983975141 817538213 1599161165 1500004363 625735823 1734405816 -756810568 1189018697 -1877764998 891874335 1258239423 -200670430 -2002258548 -828171519 -997637188 -2052783926 368563737 1997282829 -1694433472 998774651 250343875 -865262489 227723019 -1584183426 2108335682 -1772744454 -842741998 711524581 -976650730 1837993139 -1722361530 -453351928
REM
CELL 1.54180   50.00000   50.00000   50.00000   90.00000   90.00000   90.00000
LATT -1
SFAC C  
C      1  0.4361490000000  0.4917640000000  0.4678520000000 1.0
C      1  0.4198470000000  0.4783660000000  0.5159300000000 1.0
C      1  0.4664730000000  0.5249320000000  0.5730220000000 1.0
C      1  0.5073980000000  0.5766080000000  0.5131720000000 1.0
C      1  0.5151780000000  0.4369470000000  0.5901890000000 1.0
C      1  0.4739350000000  0.5864200000000  0.6006760000000 1.0
C      1  0.4271430000000  0.4892400000000  0.4099860000000 1.0
C      1  0.5730440000000  0.4585720000000  0.5454580000000 1.0
C      1  0.4929520000000  0.4659780000000  0.4809940000000 1.0
C      1  0.5175960000000  0.4212040000000  0.5686350000000 1.0
C      1  0.5100460000000  0.4183960000000  0.4684560000000 1.0
C      1  0.5549450000000  0.4500940000000  0.4586840000000 1.0
C      1  0.5261050000000  0.5040000000000  0.5874050000000 1.0
C      1  0.5796990000000  0.5199260000000  0.4785840000000 1.0
C      1  0.5181880000000  0.4530220000000  0.4275740000000 1.0
C      1  0.4997640000000  0.5883390000000  0.4876210000000 1.0
C      1  0.5012500000000  0.5739400000000  0.4262870000000 1.0
C      1  0.5275500000000  0.5326420000000  0.4113740000000 1.0
C      1  0.6005550000000  0.4556670000000  0.5495960000000 1.0
C      1  0.4314670000000  0.5139910000000  0.4253590000000 1.0
C      1  0.4246670000000  0.5114320000000  0.4529370000000 1.0
C      1  0.4549240000000  0.4779100000000  0.4027090000000 1.0
C      1  0.4892480000000  0.5716440000000  0.5360220000000 1.0
C      1  0.4866560000000  0.5387610000000  0.5883820000000 1.0
C      1  0.5092260000000  0.5243700000000  0.5046960000000 1.0
C      1  0.4727620000000  0.5013330000000  0.4078620000000 1.0
C      1  0.5193120000000  0.5580790000000  0.4140020000000 1.0
C      1  0.4763020000000  0.4585500000000  0.5356730000000 1.0
C      1  0.5154950000000  0.5304490000000  0.5830570000000 1.0
C      1  0.5245560000000  0.5513490000000  0.5632450000000 1.0
C      1  0.5079490000000  0.5316520000000  0.4776980000000 1.0
C      1  0.5374310000000  0.4997730000000  0.4650740000000 1.0
C      1  0.6086350000000  0.4740240000000  0.5689280000000 1.0
C      1  0.5237160000000  0.5059680000000  0.4193630000000 1.0
C      1  0.5134430000000  0.6106130000000  0.4789750000000 1.0
C      1  0.5046380000000  0.4650410000000  0.5277670000000 1.0
C      1  0.4628550000000  0.4739730000000  0.5577990000000 1.0
C      1  0.4849880000000  0.5267440000000  0.4626190000000 1.0
C      1  0.4925060000000  0.4181710000000  0.4447840000000 1.0
C      1  0.4507130000000  0.5383160000000  0.5517920000000 1.0
C      1  0.5344740000000  0.5286430000000  0.4669420000000 1.0
C      1  0.4620420000000  0.5598950000000  0.5346580000000 1.0
C      1  0.5135750000000  0.4074200000000  0.5177120000000 1.0
C      1  0.5352230000000  0.5669930000000  0.5168010000000 1.0
C      1  0.5863130000000  0.4887230000000  0.5771920000000 1.0
C      1  0.4763560000000  0.4286380000000  0.4247860000000 1.0
C      1  0.5750980000000  0.4667510000000  0.4715910000000 1.0
C      1  0.5431910000000  0.4631530000000  0.4358780000000 1.0
C      1  0.4777990000000  0.5785880000000  0.4712470000000 1.0
C      1  0.4577140000000  0.4496420000000  0.4166620000000 1.0
C      1  0.4802140000000  0.5677100000000  0.4441930000000 1.0
C      1  0.4367950000000  0.4534390000000  0.4380580000000 1.0
C      1  0.5333950000000  0.4881610000000  0.4924310000000 1.0
C      1  0.4291660000000  0.5214060000000  0.5420540000000 1.0
C      1  0.5585020000000  0.5401550000000  0.4776690000000 1.0
C      1  0.4504930000000  0.4691020000000  0.4583770000000 1.0
C      1  0.5622910000000  0.4798340000000  0.5627300000000 1.0
C      1  0.4750670000000  0.4990080000000  0.5641430000000 1.0
C      1  0.5835750000000  0.4925940000000  0.4765420000000 1.0
C      1  0.4977600000000  0.4940510000000  0.4179900000000 1.0
C      1  0.4960590000000  0.4700530000000  0.4335140000000 1.0
C      1  0.4587740000000  0.5236290000000  0.4213290000000 1.0
C      1  0.5534770000000  0.5624890000000  0.4948570000000 1.0
C      1  0.4956250000000  0.5041850000000  0.5459510000000 1.0
C      1  0.5375830000000  0.4286210000000  0.4677430000000 1.0
C      1  0.4226670000000  0.4935590000000  0.5397530000000 1.0
C      1  0.4599280000000  0.4447860000000  0.5160580000000 1.0
C      1  0.5159820000000  0.4842370000000  0.5457050000000 1.0
C      1  0.4349100000000  0.4565730000000  0.5097100000000 1.0
C      1  0.4479580000000  0.5669540000000  0.5110370000000 1.0
C      1  0.4722570000000  0.4242030000000  0.5010360000000 1.0
C      1  0.5128210000000  0.4692270000000  0.5001030000000 1.0
C      1  0.5146220000000  0.4589530000000  0.6055670000000 1.0
C      1  0.5022380000000  0.5707670000000  0.5616320000000 1.0
C      1  0.4151190000000  0.4671200000000  0.4246440000000 1.0
C      1  0.5494460000000  0.5237530000000  0.5306350000000 1.0
C      1  0.4346590000000  0.4764290000000  0.5595490000000 1.0
C      1  0.5362360000000  0.4893230000000  0.5644740000000 1.0
C      1  0.4902120000000  0.5202220000000  0.5239440000000 1.0
C      1  0.4982570000000  0.4142800000000  0.4948180000000 1.0
C      1  0.4714960000000  0.5399190000000  0.4413310000000 1.0
C      1  0.5403830000000  0.5492820000000  0.5396740000000 1.0
C      1  0.5182080000000  0.4857030000000  0.6076260000000 1.0
C      1  0.4860380000000  0.5677740000000  0.5853340000000 1.0
C      1  0.4539430000000  0.5742100000000  0.4858800000000 1.0
C      1  0.5184310000000  0.4109570000000  0.5438810000000 1.0
C      1  0.4793130000000  0.4687390000000  0.4570860000000 1.0
C      1  0.5406980000000  0.4915040000000  0.4382220000000 1.0
C      1  0.5343100000000  0.5104440000000  0.5110070000000 1.0
END
