TITL C-612602-9376-1066 -161.647998128062 125000 -853.583456442462 0 0 140 (C1) n - 1
REM
REM in /home/nfs/bkarasulu/CARBON/AIRSS/Generating-Clusters/TERSOFF/Only-C1/FIRE-HFTN
REM
REM
REM
REM
REM
REM ./C.cell (11c1c37f851c82e70ff6c80c92926a4b)
REM AIRSS Version 0.9.1 bugfix July 2018 build 013d7b7c2542+ Fri, 06 Jul 2018 19:26:36 +0100
REM compiler GCC version 9.2.1 20190827 (Red Hat 9.2.1-1)
REM options -cpp -mtune=generic -march=x86-64 -g -O0 -fpre-include=/usr/include/finclude/math-vector-fortran.h
REM seed -524349572 1262771996 277870703 -1704856704 -266690473 -1999589589 -481855523 679071414 491779194 -861833729 1028833173 1223537342 -677246722 1668223308 -1579982986 1089098735 1640297787 175185270 881024828 774258041 -347979072 1651692937 1104803187 -1615100236 -150023993 -336063466 -1382656124 2070268317 -1276753373 1401616808 677522777 -2099501942 1921464520
REM
CELL 1.54180   50.00000   50.00000   50.00000   90.00000   90.00000   90.00000
LATT -1
SFAC C  
C      1  0.4397850000000  0.4561420000000  0.4210940000000 1.0
C      1  0.5032850000000  0.4524630000000  0.5543220000000 1.0
C      1  0.4421990000000  0.5154280000000  0.4672790000000 1.0
C      1  0.6027390000000  0.4849150000000  0.4722570000000 1.0
C      1  0.4465760000000  0.4106970000000  0.5058350000000 1.0
C      1  0.4370280000000  0.4380480000000  0.5132940000000 1.0
C      1  0.5679640000000  0.5044860000000  0.4445790000000 1.0
C      1  0.5678240000000  0.5732330000000  0.4082820000000 1.0
C      1  0.4106030000000  0.5562150000000  0.5278860000000 1.0
C      1  0.5085370000000  0.5456620000000  0.4749400000000 1.0
C      1  0.5080290000000  0.5287940000000  0.5975760000000 1.0
C      1  0.5890930000000  0.4131090000000  0.4877020000000 1.0
C      1  0.5884270000000  0.5694360000000  0.4255020000000 1.0
C      1  0.4838880000000  0.4126710000000  0.5676900000000 1.0
C      1  0.4234480000000  0.4529260000000  0.4423870000000 1.0
C      1  0.4942510000000  0.5409410000000  0.4279950000000 1.0
C      1  0.5779290000000  0.4266460000000  0.4340770000000 1.0
C      1  0.4986070000000  0.5072070000000  0.5547650000000 1.0
C      1  0.5646700000000  0.4041190000000  0.4762720000000 1.0
C      1  0.4411280000000  0.4631480000000  0.5956390000000 1.0
C      1  0.3924630000000  0.4827830000000  0.4638920000000 1.0
C      1  0.5218380000000  0.5564480000000  0.3932750000000 1.0
C      1  0.5554620000000  0.3834540000000  0.5196930000000 1.0
C      1  0.3808800000000  0.4955710000000  0.4865450000000 1.0
C      1  0.5228630000000  0.4842970000000  0.4561560000000 1.0
C      1  0.4785150000000  0.5485630000000  0.5613370000000 1.0
C      1  0.5080770000000  0.5140780000000  0.5283510000000 1.0
C      1  0.4774400000000  0.6000490000000  0.5298950000000 1.0
C      1  0.4755030000000  0.4901660000000  0.5598020000000 1.0
C      1  0.6038990000000  0.4554000000000  0.5464310000000 1.0
C      1  0.4953050000000  0.6226590000000  0.4632020000000 1.0
C      1  0.4163180000000  0.5342610000000  0.5738130000000 1.0
C      1  0.5130170000000  0.4709410000000  0.6076470000000 1.0
C      1  0.5461120000000  0.4525400000000  0.5028430000000 1.0
C      1  0.5245830000000  0.5748600000000  0.5401730000000 1.0
C      1  0.4694440000000  0.4168180000000  0.5437430000000 1.0
C      1  0.6090980000000  0.5509120000000  0.4660680000000 1.0
C      1  0.5194290000000  0.4584650000000  0.4957100000000 1.0
C      1  0.4769440000000  0.4641050000000  0.5482240000000 1.0
C      1  0.5190800000000  0.4287460000000  0.4246900000000 1.0
C      1  0.4601940000000  0.4608840000000  0.4041410000000 1.0
C      1  0.4854880000000  0.5299540000000  0.4866220000000 1.0
C      1  0.5345360000000  0.4085720000000  0.4363610000000 1.0
C      1  0.4587570000000  0.5378770000000  0.4740770000000 1.0
C      1  0.4882220000000  0.5323260000000  0.5167560000000 1.0
C      1  0.5433470000000  0.5596440000000  0.4112330000000 1.0
C      1  0.5507060000000  0.4647080000000  0.4198870000000 1.0
C      1  0.5167370000000  0.4877840000000  0.4861720000000 1.0
C      1  0.4685600000000  0.5984880000000  0.5034810000000 1.0
C      1  0.3817580000000  0.5206210000000  0.4325470000000 1.0
C      1  0.5903830000000  0.4731460000000  0.4928240000000 1.0
C      1  0.5598400000000  0.4103450000000  0.4487820000000 1.0
C      1  0.4463270000000  0.5636760000000  0.4735820000000 1.0
C      1  0.5558460000000  0.4978070000000  0.5156640000000 1.0
C      1  0.3815540000000  0.5468170000000  0.4392740000000 1.0
C      1  0.5994730000000  0.5080000000000  0.5374180000000 1.0
C      1  0.3996980000000  0.5015030000000  0.4429350000000 1.0
C      1  0.6258610000000  0.5413990000000  0.5121160000000 1.0
C      1  0.5388830000000  0.5575850000000  0.5589870000000 1.0
C      1  0.5767860000000  0.4523780000000  0.4224660000000 1.0
C      1  0.4960260000000  0.4138310000000  0.5023630000000 1.0
C      1  0.4224420000000  0.4975820000000  0.5080110000000 1.0
C      1  0.5147390000000  0.5431810000000  0.4475060000000 1.0
C      1  0.4142610000000  0.5977260000000  0.5837520000000 1.0
C      1  0.4574700000000  0.5036140000000  0.5781950000000 1.0
C      1  0.4980670000000  0.5424870000000  0.3999190000000 1.0
C      1  0.5459470000000  0.4864620000000  0.4395050000000 1.0
C      1  0.5683810000000  0.3906030000000  0.5420420000000 1.0
C      1  0.4190800000000  0.4495580000000  0.4932330000000 1.0
C      1  0.5347710000000  0.5771340000000  0.5133970000000 1.0
C      1  0.4571690000000  0.4445180000000  0.5372120000000 1.0
C      1  0.4476480000000  0.5803280000000  0.4967280000000 1.0
C      1  0.4239080000000  0.4694440000000  0.5755770000000 1.0
C      1  0.4633850000000  0.4672560000000  0.6105570000000 1.0
C      1  0.4854160000000  0.5240500000000  0.3833370000000 1.0
C      1  0.5410350000000  0.5450510000000  0.4364810000000 1.0
C      1  0.5991820000000  0.4297640000000  0.5360480000000 1.0
C      1  0.5798870000000  0.5382310000000  0.5045540000000 1.0
C      1  0.3974390000000  0.5109400000000  0.5036490000000 1.0
C      1  0.4266530000000  0.5104760000000  0.4445650000000 1.0
C      1  0.4990830000000  0.5875720000000  0.5449490000000 1.0
C      1  0.4808270000000  0.6135580000000  0.4834430000000 1.0
C      1  0.5881960000000  0.5505270000000  0.4468620000000 1.0
C      1  0.5281230000000  0.5027870000000  0.5108380000000 1.0
C      1  0.4421120000000  0.4947830000000  0.4873320000000 1.0
C      1  0.5178170000000  0.3981320000000  0.4943210000000 1.0
C      1  0.4729830000000  0.4528500000000  0.4831340000000 1.0
C      1  0.6224360000000  0.5243010000000  0.5330020000000 1.0
C      1  0.5333910000000  0.4886650000000  0.5945760000000 1.0
C      1  0.5653580000000  0.5327220000000  0.4457060000000 1.0
C      1  0.5342370000000  0.5178540000000  0.5947160000000 1.0
C      1  0.4556610000000  0.4123960000000  0.4529120000000 1.0
C      1  0.4879080000000  0.4951420000000  0.6418410000000 1.0
C      1  0.5089520000000  0.4611700000000  0.3910040000000 1.0
C      1  0.5107380000000  0.6287500000000  0.4430930000000 1.0
C      1  0.5934570000000  0.4910530000000  0.4465380000000 1.0
C      1  0.5656740000000  0.4725250000000  0.5058940000000 1.0
C      1  0.6022030000000  0.4237470000000  0.5085360000000 1.0
C      1  0.4158220000000  0.5573800000000  0.5565870000000 1.0
C      1  0.4799460000000  0.4981600000000  0.3802960000000 1.0
C      1  0.4966700000000  0.4418430000000  0.4952450000000 1.0
C      1  0.4947210000000  0.5295010000000  0.5731930000000 1.0
C      1  0.4468000000000  0.5218230000000  0.5370610000000 1.0
C      1  0.3951100000000  0.5596050000000  0.4604890000000 1.0
C      1  0.4683690000000  0.5392820000000  0.5359300000000 1.0
C      1  0.4409060000000  0.5242630000000  0.5853900000000 1.0
C      1  0.4149560000000  0.4893810000000  0.5571130000000 1.0
C      1  0.4990890000000  0.4422540000000  0.4393730000000 1.0
C      1  0.5287810000000  0.4640940000000  0.5519050000000 1.0
C      1  0.5231470000000  0.5625120000000  0.4922940000000 1.0
C      1  0.6047420000000  0.5463200000000  0.4936320000000 1.0
C      1  0.4880510000000  0.4785320000000  0.6200520000000 1.0
C      1  0.4888130000000  0.4989800000000  0.4843940000000 1.0
C      1  0.6347440000000  0.5555090000000  0.4573320000000 1.0
C      1  0.5293200000000  0.4499300000000  0.4073790000000 1.0
C      1  0.5019250000000  0.4328200000000  0.5754770000000 1.0
C      1  0.4816620000000  0.5754720000000  0.5654590000000 1.0
C      1  0.5015520000000  0.4686000000000  0.4449860000000 1.0
C      1  0.4727560000000  0.4052630000000  0.5169970000000 1.0
C      1  0.5466300000000  0.5371350000000  0.5759580000000 1.0
C      1  0.4667770000000  0.4806220000000  0.4866410000000 1.0
C      1  0.3953410000000  0.5394920000000  0.5091250000000 1.0
C      1  0.5127500000000  0.4430900000000  0.5994940000000 1.0
C      1  0.4825950000000  0.4721360000000  0.3905850000000 1.0
C      1  0.5455080000000  0.3931740000000  0.4950220000000 1.0
C      1  0.4261140000000  0.5759440000000  0.5142030000000 1.0
C      1  0.5975240000000  0.4711340000000  0.4267150000000 1.0
C      1  0.4305780000000  0.4988650000000  0.5346100000000 1.0
C      1  0.4603800000000  0.4348760000000  0.4655290000000 1.0
C      1  0.4224790000000  0.5669390000000  0.4581930000000 1.0
C      1  0.5759410000000  0.5163720000000  0.5223710000000 1.0
C      1  0.4278340000000  0.5825740000000  0.5653070000000 1.0
C      1  0.5852510000000  0.4098060000000  0.5503720000000 1.0
C      1  0.3856090000000  0.5543890000000  0.4867060000000 1.0
C      1  0.5435140000000  0.4769160000000  0.5705970000000 1.0
C      1  0.6022380000000  0.4820500000000  0.5478930000000 1.0
C      1  0.4100170000000  0.4595950000000  0.4669280000000 1.0
C      1  0.4525630000000  0.5916690000000  0.5553280000000 1.0
C      1  0.3999210000000  0.5114160000000  0.5680500000000 1.0
C      1  0.5552570000000  0.5945980000000  0.5082720000000 1.0
END
