TITL C-612603-7354-1279 0.00049897313734209 125000 -1080.29817334936 0 0 179 (C1) n - 1
REM
REM in /home/nfs/bkarasulu/CARBON/AIRSS/Generating-Clusters/TERSOFF/Only-C1/FIRE-HFTN
REM
REM
REM
REM
REM
REM ./C.cell (11c1c37f851c82e70ff6c80c92926a4b)
REM AIRSS Version 0.9.1 bugfix July 2018 build 013d7b7c2542+ Fri, 06 Jul 2018 19:26:36 +0100
REM compiler GCC version 9.2.1 20190827 (Red Hat 9.2.1-1)
REM options -cpp -mtune=generic -march=x86-64 -g -O0 -fpre-include=/usr/include/finclude/math-vector-fortran.h
REM seed 701937677 -998036265 1991792996 2141316142 -378970498 -93332227 416967627 784552999 484911556 938676932 -419216450 796263499 22847282 1480836292 1537196303 -1978808917 -278687954 1148316102 -318959189 -53876753 -1108417928 -757868424 -1810317264 -2018412372 27961718 1155420650 979504696 -303253279 7280113 -1081350592 355511832 1165999493 -358975604
REM
CELL 1.54180   50.00000   50.00000   50.00000   90.00000   90.00000   90.00000
LATT -1
SFAC C  
C      1  0.3301900000000  0.5335120000000  0.4842680000000 1.0
C      1  0.5525030000000  0.3935380000000  0.4960150000000 1.0
C      1  0.5264850000000  0.5869180000000  0.4388080000000 1.0
C      1  0.4787250000000  0.4848920000000  0.5667250000000 1.0
C      1  0.5484880000000  0.5380600000000  0.5960120000000 1.0
C      1  0.4968120000000  0.4786880000000  0.3672700000000 1.0
C      1  0.4819430000000  0.4893430000000  0.4323810000000 1.0
C      1  0.4968550000000  0.6005080000000  0.4737160000000 1.0
C      1  0.4849220000000  0.5805190000000  0.4179580000000 1.0
C      1  0.5733550000000  0.3914870000000  0.5481580000000 1.0
C      1  0.4912860000000  0.4960780000000  0.4784530000000 1.0
C      1  0.3398100000000  0.5594440000000  0.4888630000000 1.0
C      1  0.4812960000000  0.4795960000000  0.4590390000000 1.0
C      1  0.5447060000000  0.5637280000000  0.5451990000000 1.0
C      1  0.4794080000000  0.5013420000000  0.3717830000000 1.0
C      1  0.4347280000000  0.5185350000000  0.5412530000000 1.0
C      1  0.5378340000000  0.5252660000000  0.4346740000000 1.0
C      1  0.4843920000000  0.4310420000000  0.4441100000000 1.0
C      1  0.4537560000000  0.6411310000000  0.5263050000000 1.0
C      1  0.5977940000000  0.4442980000000  0.4413590000000 1.0
C      1  0.6667020000000  0.5376190000000  0.4950190000000 1.0
C      1  0.5465540000000  0.4403370000000  0.5389650000000 1.0
C      1  0.4756510000000  0.4223390000000  0.5909820000000 1.0
C      1  0.5511750000000  0.5943730000000  0.4503160000000 1.0
C      1  0.5335110000000  0.4985000000000  0.5693330000000 1.0
C      1  0.4767760000000  0.6461570000000  0.6016450000000 1.0
C      1  0.5065710000000  0.5690570000000  0.4005670000000 1.0
C      1  0.5743160000000  0.4363080000000  0.5334400000000 1.0
C      1  0.4226340000000  0.4250800000000  0.5219410000000 1.0
C      1  0.4898060000000  0.4425410000000  0.4177610000000 1.0
C      1  0.5716540000000  0.4047960000000  0.4770400000000 1.0
C      1  0.5494170000000  0.5142850000000  0.5237310000000 1.0
C      1  0.5102150000000  0.5456800000000  0.4998490000000 1.0
C      1  0.5273890000000  0.5398530000000  0.6126130000000 1.0
C      1  0.4600130000000  0.4023520000000  0.4792430000000 1.0
C      1  0.4480960000000  0.4169140000000  0.5796120000000 1.0
C      1  0.5553670000000  0.4941120000000  0.4720420000000 1.0
C      1  0.4403360000000  0.4441770000000  0.5344540000000 1.0
C      1  0.5905370000000  0.5680590000000  0.4583910000000 1.0
C      1  0.4355330000000  0.5345630000000  0.4811080000000 1.0
C      1  0.5860120000000  0.4381480000000  0.5607850000000 1.0
C      1  0.4208220000000  0.4021680000000  0.5383910000000 1.0
C      1  0.3824980000000  0.5753590000000  0.5029940000000 1.0
C      1  0.5015960000000  0.4716320000000  0.6107230000000 1.0
C      1  0.4545900000000  0.5038890000000  0.3591770000000 1.0
C      1  0.4893300000000  0.5059590000000  0.6122930000000 1.0
C      1  0.5608900000000  0.5697140000000  0.4137490000000 1.0
C      1  0.5329790000000  0.4381830000000  0.5901910000000 1.0
C      1  0.6294170000000  0.4767090000000  0.4878050000000 1.0
C      1  0.4971060000000  0.5512670000000  0.5265980000000 1.0
C      1  0.5934750000000  0.4166220000000  0.4346540000000 1.0
C      1  0.5504480000000  0.5365440000000  0.5453650000000 1.0
C      1  0.4290530000000  0.5111810000000  0.3585990000000 1.0
C      1  0.4413890000000  0.4621360000000  0.5972600000000 1.0
C      1  0.4608440000000  0.5129970000000  0.6132930000000 1.0
C      1  0.5890230000000  0.4836850000000  0.5385790000000 1.0
C      1  0.5033500000000  0.5002210000000  0.5027160000000 1.0
C      1  0.4281030000000  0.6042800000000  0.5089070000000 1.0
C      1  0.6196210000000  0.4336690000000  0.5082950000000 1.0
C      1  0.5251880000000  0.5190780000000  0.5045660000000 1.0
C      1  0.4971570000000  0.4431920000000  0.4888940000000 1.0
C      1  0.5556270000000  0.4642140000000  0.4359130000000 1.0
C      1  0.4616450000000  0.5631620000000  0.4191040000000 1.0
C      1  0.4786150000000  0.4349260000000  0.5084230000000 1.0
C      1  0.6088180000000  0.5397550000000  0.5547970000000 1.0
C      1  0.4315860000000  0.4409780000000  0.5812770000000 1.0
C      1  0.4526400000000  0.6152730000000  0.5174200000000 1.0
C      1  0.5295930000000  0.4640710000000  0.6020950000000 1.0
C      1  0.5719180000000  0.5846070000000  0.4998330000000 1.0
C      1  0.5891630000000  0.5079870000000  0.3941820000000 1.0
C      1  0.4823670000000  0.4051470000000  0.4595560000000 1.0
C      1  0.5465080000000  0.5253400000000  0.5711170000000 1.0
C      1  0.5382940000000  0.4905010000000  0.5406070000000 1.0
C      1  0.5961240000000  0.4262860000000  0.5188350000000 1.0
C      1  0.5716910000000  0.4995500000000  0.3757320000000 1.0
C      1  0.4765200000000  0.5729620000000  0.5261010000000 1.0
C      1  0.5261780000000  0.4034880000000  0.4872960000000 1.0
C      1  0.5923460000000  0.4948760000000  0.4408930000000 1.0
C      1  0.5459960000000  0.4692900000000  0.4623700000000 1.0
C      1  0.3794380000000  0.5474550000000  0.4044920000000 1.0
C      1  0.4678720000000  0.4074740000000  0.5076370000000 1.0
C      1  0.5769240000000  0.4824420000000  0.5859380000000 1.0
C      1  0.4059570000000  0.4346920000000  0.5013920000000 1.0
C      1  0.6187560000000  0.4512210000000  0.4865680000000 1.0
C      1  0.4140590000000  0.4234400000000  0.4767670000000 1.0
C      1  0.3662010000000  0.5685950000000  0.4795930000000 1.0
C      1  0.4444620000000  0.3989800000000  0.5545100000000 1.0
C      1  0.5980040000000  0.5434830000000  0.5018200000000 1.0
C      1  0.3338350000000  0.5111330000000  0.4986930000000 1.0
C      1  0.4171620000000  0.5258080000000  0.5910230000000 1.0
C      1  0.6220730000000  0.5289670000000  0.4229330000000 1.0
C      1  0.4617780000000  0.5433510000000  0.5747260000000 1.0
C      1  0.5969630000000  0.4453530000000  0.4700080000000 1.0
C      1  0.4998910000000  0.6046520000000  0.5027240000000 1.0
C      1  0.4454040000000  0.5289520000000  0.5945800000000 1.0
C      1  0.4955350000000  0.6005580000000  0.5834840000000 1.0
C      1  0.5238300000000  0.4326560000000  0.4882450000000 1.0
C      1  0.5440040000000  0.5850240000000  0.5022170000000 1.0
C      1  0.3781090000000  0.5203090000000  0.5537510000000 1.0
C      1  0.5215420000000  0.4828340000000  0.4066230000000 1.0
C      1  0.5481120000000  0.4823180000000  0.5900260000000 1.0
C      1  0.5015630000000  0.5326870000000  0.6035180000000 1.0
C      1  0.3760080000000  0.5598980000000  0.4276820000000 1.0
C      1  0.4847160000000  0.4457050000000  0.6078240000000 1.0
C      1  0.4239510000000  0.4521130000000  0.5565010000000 1.0
C      1  0.4871880000000  0.5535990000000  0.4562040000000 1.0
C      1  0.4863370000000  0.6234510000000  0.5931250000000 1.0
C      1  0.3894220000000  0.5341750000000  0.3837860000000 1.0
C      1  0.4760430000000  0.5993230000000  0.5170700000000 1.0
C      1  0.6014490000000  0.5113960000000  0.4194850000000 1.0
C      1  0.5872010000000  0.4672600000000  0.5636170000000 1.0
C      1  0.5838490000000  0.4677240000000  0.4326600000000 1.0
C      1  0.4704550000000  0.4510690000000  0.5323060000000 1.0
C      1  0.4079980000000  0.4737570000000  0.5498970000000 1.0
C      1  0.4905490000000  0.3931990000000  0.5520100000000 1.0
C      1  0.3941650000000  0.5198640000000  0.5777390000000 1.0
C      1  0.5849020000000  0.4094480000000  0.5668870000000 1.0
C      1  0.5377010000000  0.4308150000000  0.5645150000000 1.0
C      1  0.4839470000000  0.4352920000000  0.3909270000000 1.0
C      1  0.5843080000000  0.3693850000000  0.4452280000000 1.0
C      1  0.4857470000000  0.5201650000000  0.3927410000000 1.0
C      1  0.5311490000000  0.5633000000000  0.4892420000000 1.0
C      1  0.6460970000000  0.5216670000000  0.4945560000000 1.0
C      1  0.4855850000000  0.4520060000000  0.4642810000000 1.0
C      1  0.4841050000000  0.5269210000000  0.5367600000000 1.0
C      1  0.5819680000000  0.5041690000000  0.4673350000000 1.0
C      1  0.5356190000000  0.4646480000000  0.5308590000000 1.0
C      1  0.4567640000000  0.5454800000000  0.4946290000000 1.0
C      1  0.4369840000000  0.5675020000000  0.4089740000000 1.0
C      1  0.5724700000000  0.4335730000000  0.4794620000000 1.0
C      1  0.4863840000000  0.4520650000000  0.3694510000000 1.0
C      1  0.4064070000000  0.5217180000000  0.3676220000000 1.0
C      1  0.4860380000000  0.5012700000000  0.5246010000000 1.0
C      1  0.5031540000000  0.5766870000000  0.5698510000000 1.0
C      1  0.3470300000000  0.5007200000000  0.5194460000000 1.0
C      1  0.4531990000000  0.5565940000000  0.5216690000000 1.0
C      1  0.4719600000000  0.5403110000000  0.4347210000000 1.0
C      1  0.4988150000000  0.4705490000000  0.4183700000000 1.0
C      1  0.4778470000000  0.5156750000000  0.4208700000000 1.0
C      1  0.3693460000000  0.4976940000000  0.5364130000000 1.0
C      1  0.5223480000000  0.5821460000000  0.5464140000000 1.0
C      1  0.5468780000000  0.4468020000000  0.4794140000000 1.0
C      1  0.5958380000000  0.5137280000000  0.4934410000000 1.0
C      1  0.4246180000000  0.3832940000000  0.4522700000000 1.0
C      1  0.3738880000000  0.5676660000000  0.4529610000000 1.0
C      1  0.6064970000000  0.5469680000000  0.5290430000000 1.0
C      1  0.6043660000000  0.5255600000000  0.5771500000000 1.0
C      1  0.4564210000000  0.5370110000000  0.5450820000000 1.0
C      1  0.5041180000000  0.4959410000000  0.5720700000000 1.0
C      1  0.5231740000000  0.4821340000000  0.3781420000000 1.0
C      1  0.3397630000000  0.5676670000000  0.5167220000000 1.0
C      1  0.3669450000000  0.5672520000000  0.5266730000000 1.0
C      1  0.5786520000000  0.5025610000000  0.5180660000000 1.0
C      1  0.4671760000000  0.3940460000000  0.5350450000000 1.0
C      1  0.5480930000000  0.4895510000000  0.3676570000000 1.0
C      1  0.6246180000000  0.5038260000000  0.4925610000000 1.0
C      1  0.5729580000000  0.5785190000000  0.4391890000000 1.0
C      1  0.5320850000000  0.5745630000000  0.4122240000000 1.0
C      1  0.5234370000000  0.5968910000000  0.5192300000000 1.0
C      1  0.3739280000000  0.5466410000000  0.5440070000000 1.0
C      1  0.4061060000000  0.5901130000000  0.5038460000000 1.0
C      1  0.5612750000000  0.3873050000000  0.5233640000000 1.0
C      1  0.3879260000000  0.4554810000000  0.5102100000000 1.0
C      1  0.4997890000000  0.5445990000000  0.3876460000000 1.0
C      1  0.4749420000000  0.4799400000000  0.5386700000000 1.0
C      1  0.5831380000000  0.3957920000000  0.4520950000000 1.0
C      1  0.5926360000000  0.5056300000000  0.5910430000000 1.0
C      1  0.5890580000000  0.5658120000000  0.4866580000000 1.0
C      1  0.4840360000000  0.5461960000000  0.4828720000000 1.0
C      1  0.4896510000000  0.5510900000000  0.5823180000000 1.0
C      1  0.5068920000000  0.3927810000000  0.4690260000000 1.0
C      1  0.4907000000000  0.4394920000000  0.5519690000000 1.0
C      1  0.4976360000000  0.5823170000000  0.4477260000000 1.0
C      1  0.4219650000000  0.4974080000000  0.5492560000000 1.0
C      1  0.4328870000000  0.4031510000000  0.4693580000000 1.0
C      1  0.4590060000000  0.4789720000000  0.5855960000000 1.0
C      1  0.3855960000000  0.4738970000000  0.5325050000000 1.0
C      1  0.5338150000000  0.5041670000000  0.4199880000000 1.0
C      1  0.4927550000000  0.4164440000000  0.5681270000000 1.0
END
