TITL C-612604-1799-719 -0.090261541836072 125000 -546.113569730145 0 0 90 (C1) n - 1
REM
REM in /home/nfs/bkarasulu/CARBON/AIRSS/Generating-Clusters/TERSOFF/Only-C1/FIRE-HFTN
REM
REM
REM
REM
REM
REM ./C.cell (11c1c37f851c82e70ff6c80c92926a4b)
REM AIRSS Version 0.9.1 bugfix July 2018 build 013d7b7c2542+ Fri, 06 Jul 2018 19:26:36 +0100
REM compiler GCC version 9.2.1 20190827 (Red Hat 9.2.1-1)
REM options -cpp -mtune=generic -march=x86-64 -g -O0 -fpre-include=/usr/include/finclude/math-vector-fortran.h
REM seed 898954535 -64028205 342384050 1032769298 1213202503 2095855582 204736770 -1208097997 719942595 -656275206 -1511525047 91419845 -1345913834 -215676472 -226161334 1241709608 1655580719 269277934 -461753932 -577497331 -277629474 -1636811880 126250547 1781821243 1684264587 1154797029 785893838 2128473633 408891726 -170339180 1289998504 2020565692 -719518794
REM
CELL 1.54180   50.00000   50.00000   50.00000   90.00000   90.00000   90.00000
LATT -1
SFAC C  
C      1  0.5654400000000  0.5940250000000  0.5934300000000 1.0
C      1  0.4053760000000  0.4800200000000  0.4705010000000 1.0
C      1  0.4331350000000  0.4776670000000  0.5180960000000 1.0
C      1  0.5697710000000  0.5214340000000  0.5018490000000 1.0
C      1  0.4522780000000  0.4708710000000  0.4242020000000 1.0
C      1  0.4422270000000  0.5051170000000  0.5142500000000 1.0
C      1  0.4554350000000  0.4445500000000  0.4283130000000 1.0
C      1  0.4319950000000  0.5377110000000  0.4474760000000 1.0
C      1  0.4409990000000  0.4613560000000  0.4955300000000 1.0
C      1  0.4825970000000  0.4854580000000  0.5411980000000 1.0
C      1  0.5270460000000  0.5150450000000  0.4043670000000 1.0
C      1  0.5755490000000  0.5530290000000  0.5617930000000 1.0
C      1  0.5642830000000  0.4893970000000  0.4155990000000 1.0
C      1  0.4960650000000  0.4947380000000  0.5646970000000 1.0
C      1  0.4421720000000  0.5391450000000  0.4742240000000 1.0
C      1  0.3951880000000  0.4199620000000  0.5029230000000 1.0
C      1  0.5369240000000  0.4878420000000  0.4046450000000 1.0
C      1  0.4579550000000  0.4973690000000  0.4322450000000 1.0
C      1  0.5385730000000  0.4768090000000  0.5786740000000 1.0
C      1  0.4741680000000  0.4048780000000  0.4861230000000 1.0
C      1  0.4835120000000  0.4133510000000  0.4607080000000 1.0
C      1  0.4686940000000  0.4603610000000  0.4887920000000 1.0
C      1  0.5441440000000  0.4507140000000  0.5806570000000 1.0
C      1  0.5778950000000  0.4669450000000  0.4248810000000 1.0
C      1  0.5288520000000  0.5527940000000  0.4621990000000 1.0
C      1  0.5906970000000  0.5285370000000  0.5638490000000 1.0
C      1  0.5276140000000  0.5779480000000  0.5030690000000 1.0
C      1  0.4908380000000  0.5487680000000  0.5323860000000 1.0
C      1  0.5904740000000  0.5031490000000  0.5003080000000 1.0
C      1  0.4831020000000  0.5859870000000  0.5682700000000 1.0
C      1  0.3956200000000  0.4268730000000  0.5288700000000 1.0
C      1  0.5564520000000  0.5509780000000  0.5400070000000 1.0
C      1  0.4806130000000  0.5006570000000  0.4495140000000 1.0
C      1  0.4775610000000  0.4970270000000  0.5859820000000 1.0
C      1  0.4187740000000  0.4562050000000  0.4780980000000 1.0
C      1  0.5487330000000  0.4605670000000  0.5133250000000 1.0
C      1  0.4670670000000  0.5049030000000  0.5275210000000 1.0
C      1  0.4812190000000  0.4573310000000  0.5378440000000 1.0
C      1  0.4052320000000  0.4317660000000  0.4809190000000 1.0
C      1  0.5552960000000  0.4245630000000  0.4401280000000 1.0
C      1  0.4984450000000  0.4656170000000  0.4817300000000 1.0
C      1  0.5361800000000  0.5022090000000  0.5370240000000 1.0
C      1  0.5580060000000  0.5222760000000  0.5303130000000 1.0
C      1  0.5451230000000  0.5336870000000  0.4176690000000 1.0
C      1  0.4419720000000  0.6383360000000  0.4793970000000 1.0
C      1  0.5227700000000  0.4638790000000  0.4031110000000 1.0
C      1  0.5317410000000  0.4831670000000  0.5161270000000 1.0
C      1  0.5181820000000  0.4403450000000  0.4151040000000 1.0
C      1  0.4513540000000  0.4900060000000  0.5844970000000 1.0
C      1  0.4563180000000  0.6160970000000  0.4779240000000 1.0
C      1  0.5373260000000  0.5537450000000  0.4355310000000 1.0
C      1  0.5438020000000  0.4265430000000  0.5692590000000 1.0
C      1  0.4327200000000  0.4799930000000  0.5678240000000 1.0
C      1  0.4658670000000  0.4233720000000  0.4410460000000 1.0
C      1  0.5766270000000  0.5744620000000  0.5793470000000 1.0
C      1  0.5271630000000  0.4257210000000  0.4376220000000 1.0
C      1  0.4824390000000  0.5668380000000  0.5498960000000 1.0
C      1  0.4962250000000  0.4774200000000  0.4539600000000 1.0
C      1  0.4062240000000  0.4463710000000  0.5438280000000 1.0
C      1  0.4234040000000  0.4686330000000  0.5435680000000 1.0
C      1  0.4278600000000  0.6602090000000  0.4808490000000 1.0
C      1  0.5909870000000  0.4874780000000  0.5249030000000 1.0
C      1  0.5139260000000  0.5707120000000  0.4789350000000 1.0
C      1  0.4702460000000  0.5446490000000  0.4743050000000 1.0
C      1  0.5403950000000  0.4123010000000  0.5468610000000 1.0
C      1  0.5105070000000  0.4232460000000  0.4604790000000 1.0
C      1  0.5354420000000  0.4373010000000  0.5032300000000 1.0
C      1  0.5016030000000  0.5328980000000  0.5139260000000 1.0
C      1  0.5426670000000  0.5699730000000  0.5241270000000 1.0
C      1  0.4732820000000  0.4126920000000  0.5118610000000 1.0
C      1  0.5436530000000  0.6075810000000  0.6004630000000 1.0
C      1  0.4769680000000  0.4319900000000  0.5301730000000 1.0
C      1  0.5072530000000  0.5162300000000  0.4895310000000 1.0
C      1  0.5366890000000  0.4150290000000  0.5203980000000 1.0
C      1  0.4850560000000  0.5207590000000  0.4693530000000 1.0
C      1  0.5747990000000  0.4422180000000  0.4346620000000 1.0
C      1  0.5160230000000  0.4409140000000  0.4823930000000 1.0
C      1  0.5173640000000  0.6105690000000  0.5975560000000 1.0
C      1  0.4399210000000  0.5189090000000  0.4296130000000 1.0
C      1  0.5690810000000  0.5173470000000  0.4210710000000 1.0
C      1  0.4951550000000  0.6022190000000  0.5855210000000 1.0
C      1  0.5832680000000  0.5080870000000  0.5453800000000 1.0
C      1  0.4705350000000  0.5937900000000  0.4766290000000 1.0
C      1  0.5245240000000  0.4952550000000  0.5625810000000 1.0
C      1  0.5115090000000  0.4879170000000  0.4971230000000 1.0
C      1  0.4085320000000  0.5051350000000  0.4800730000000 1.0
C      1  0.4847850000000  0.5697240000000  0.4765910000000 1.0
C      1  0.5755340000000  0.4636260000000  0.5225710000000 1.0
C      1  0.5306460000000  0.5272210000000  0.4744210000000 1.0
C      1  0.4303390000000  0.5194550000000  0.4921790000000 1.0
END
