TITL C-612607-4507-1018 0.358999420180488 125000 -347.744867961141 0 0 58 (C1) n - 1
REM
REM in /home/nfs/bkarasulu/CARBON/AIRSS/Generating-Clusters/TERSOFF/Only-C1/FIRE-HFTN
REM
REM
REM
REM
REM
REM ./C.cell (11c1c37f851c82e70ff6c80c92926a4b)
REM AIRSS Version 0.9.1 bugfix July 2018 build 013d7b7c2542+ Fri, 06 Jul 2018 19:26:36 +0100
REM compiler GCC version 9.2.1 20190827 (Red Hat 9.2.1-1)
REM options -cpp -mtune=generic -march=x86-64 -g -O0 -fpre-include=/usr/include/finclude/math-vector-fortran.h
REM seed -1350712499 -401080235 -716323650 -1094074472 1176424529 -1936953572 -229907329 -2007743628 -159223936 1711131769 -251497654 -1176021210 -124451136 1990567362 1540598707 1578502227 214334270 785959027 1461759942 -319801221 -1346236991 -824696919 238498155 342147284 -1846702680 -538373209 634263197 918461007 -1716211052 -218634972 196173951 -1208657119 1286176458
REM
CELL 1.54180   50.00000   50.00000   50.00000   90.00000   90.00000   90.00000
LATT -1
SFAC C  
C      1  0.5283420000000  0.5823000000000  0.4605220000000 1.0
C      1  0.5288080000000  0.4768010000000  0.4800580000000 1.0
C      1  0.5107640000000  0.4338230000000  0.5244950000000 1.0
C      1  0.5046160000000  0.4831940000000  0.6369840000000 1.0
C      1  0.5025990000000  0.5856590000000  0.4691480000000 1.0
C      1  0.4892960000000  0.4709220000000  0.4314740000000 1.0
C      1  0.4563130000000  0.5126370000000  0.4287470000000 1.0
C      1  0.4535080000000  0.5787960000000  0.5615470000000 1.0
C      1  0.4551590000000  0.5281380000000  0.4049300000000 1.0
C      1  0.4536800000000  0.4663070000000  0.4937120000000 1.0
C      1  0.5158020000000  0.4542030000000  0.4729620000000 1.0
C      1  0.4808460000000  0.5645120000000  0.5173330000000 1.0
C      1  0.4643060000000  0.4926770000000  0.6615990000000 1.0
C      1  0.5011310000000  0.4965190000000  0.4348630000000 1.0
C      1  0.4454750000000  0.4869730000000  0.4354580000000 1.0
C      1  0.5370120000000  0.3870590000000  0.5328210000000 1.0
C      1  0.5290850000000  0.5472430000000  0.5058690000000 1.0
C      1  0.4674950000000  0.5616150000000  0.4920880000000 1.0
C      1  0.5095560000000  0.5527370000000  0.4295530000000 1.0
C      1  0.4907680000000  0.4424680000000  0.4794260000000 1.0
C      1  0.5505800000000  0.5133390000000  0.4424060000000 1.0
C      1  0.4761200000000  0.5085920000000  0.5032720000000 1.0
C      1  0.5430840000000  0.5345670000000  0.4599140000000 1.0
C      1  0.5280160000000  0.4780640000000  0.6255370000000 1.0
C      1  0.4817030000000  0.5171390000000  0.4421900000000 1.0
C      1  0.4991890000000  0.5530830000000  0.4032600000000 1.0
C      1  0.4622850000000  0.4836030000000  0.6143270000000 1.0
C      1  0.6271940000000  0.4935410000000  0.4287760000000 1.0
C      1  0.6022840000000  0.5000090000000  0.4329380000000 1.0
C      1  0.4638520000000  0.4663380000000  0.4437130000000 1.0
C      1  0.5285490000000  0.5001400000000  0.4311120000000 1.0
C      1  0.4399650000000  0.5578690000000  0.4902230000000 1.0
C      1  0.4657600000000  0.4550000000000  0.4695610000000 1.0
C      1  0.5001340000000  0.4797530000000  0.5333250000000 1.0
C      1  0.4876050000000  0.4360580000000  0.5077320000000 1.0
C      1  0.5192360000000  0.4586090000000  0.5366810000000 1.0
C      1  0.4768290000000  0.4866090000000  0.6380940000000 1.0
C      1  0.4890020000000  0.5437850000000  0.4487680000000 1.0
C      1  0.5400140000000  0.4608340000000  0.5550320000000 1.0
C      1  0.4541230000000  0.4946390000000  0.4956590000000 1.0
C      1  0.5328660000000  0.5581340000000  0.4461890000000 1.0
C      1  0.4568430000000  0.4794240000000  0.5886930000000 1.0
C      1  0.4837150000000  0.5637630000000  0.4689970000000 1.0
C      1  0.4651490000000  0.4529270000000  0.5172480000000 1.0
C      1  0.5238620000000  0.4096780000000  0.5286650000000 1.0
C      1  0.5343940000000  0.5271700000000  0.4867170000000 1.0
C      1  0.5769800000000  0.5065760000000  0.4372320000000 1.0
C      1  0.4670300000000  0.5722840000000  0.5402420000000 1.0
C      1  0.4144260000000  0.5533790000000  0.4876380000000 1.0
C      1  0.5484570000000  0.4655710000000  0.5797810000000 1.0
C      1  0.4732320000000  0.4699750000000  0.5388510000000 1.0
C      1  0.5439450000000  0.4717900000000  0.6052220000000 1.0
C      1  0.5016130000000  0.4995990000000  0.5123960000000 1.0
C      1  0.5236520000000  0.5011370000000  0.4936010000000 1.0
C      1  0.4600990000000  0.4746770000000  0.5627880000000 1.0
C      1  0.5085170000000  0.5592290000000  0.5181000000000 1.0
C      1  0.4750920000000  0.5436720000000  0.3945870000000 1.0
C      1  0.5500460000000  0.3648610000000  0.5369440000000 1.0
END
