TITL C-612607-4507-1374 -0.0402260196060208 125000 -670.638213416773 0 0 112 (C1) n - 1
REM
REM in /home/nfs/bkarasulu/CARBON/AIRSS/Generating-Clusters/TERSOFF/Only-C1/FIRE-HFTN
REM
REM
REM
REM
REM
REM ./C.cell (11c1c37f851c82e70ff6c80c92926a4b)
REM AIRSS Version 0.9.1 bugfix July 2018 build 013d7b7c2542+ Fri, 06 Jul 2018 19:26:36 +0100
REM compiler GCC version 9.2.1 20190827 (Red Hat 9.2.1-1)
REM options -cpp -mtune=generic -march=x86-64 -g -O0 -fpre-include=/usr/include/finclude/math-vector-fortran.h
REM seed 745989151 225939683 -1519415848 995903717 653748603 -489642082 -651574189 -27125245 -288081171 587255891 -260836420 1084723505 672873059 -1408264626 469504705 -1309239363 -1264761681 -998486305 2127509882 874870092 -1074394115 78447492 1225521530 1276598829 1834492525 -66674920 1389882895 -8283492 831355740 -1335882299 1959448770 -1573470861 -627365296
REM
CELL 1.54180   50.00000   50.00000   50.00000   90.00000   90.00000   90.00000
LATT -1
SFAC C  
C      1  0.4296120000000  0.4363640000000  0.5470200000000 1.0
C      1  0.5415300000000  0.4944460000000  0.4570180000000 1.0
C      1  0.5512620000000  0.4948640000000  0.5031760000000 1.0
C      1  0.5346940000000  0.5525570000000  0.4810450000000 1.0
C      1  0.4371740000000  0.5295680000000  0.4327060000000 1.0
C      1  0.4248030000000  0.5387710000000  0.5020490000000 1.0
C      1  0.4441600000000  0.4829490000000  0.5006430000000 1.0
C      1  0.5455620000000  0.4056500000000  0.5210010000000 1.0
C      1  0.5382110000000  0.5487950000000  0.5798790000000 1.0
C      1  0.5568040000000  0.5006100000000  0.5932220000000 1.0
C      1  0.5156560000000  0.5626640000000  0.4306060000000 1.0
C      1  0.4708710000000  0.5598660000000  0.4518940000000 1.0
C      1  0.5293680000000  0.4413610000000  0.4814290000000 1.0
C      1  0.4430320000000  0.5023980000000  0.4766980000000 1.0
C      1  0.5749910000000  0.4617670000000  0.5219730000000 1.0
C      1  0.5325370000000  0.4149420000000  0.4705340000000 1.0
C      1  0.4552410000000  0.4861120000000  0.5771650000000 1.0
C      1  0.5749150000000  0.4896940000000  0.5192100000000 1.0
C      1  0.5228570000000  0.4448100000000  0.4270000000000 1.0
C      1  0.5538620000000  0.5640450000000  0.5592700000000 1.0
C      1  0.5374440000000  0.5413780000000  0.4290310000000 1.0
C      1  0.4732460000000  0.5078420000000  0.5820200000000 1.0
C      1  0.4766540000000  0.5072400000000  0.3865880000000 1.0
C      1  0.5931910000000  0.5108890000000  0.5130230000000 1.0
C      1  0.4723400000000  0.4445250000000  0.5254690000000 1.0
C      1  0.4036300000000  0.4497910000000  0.5035410000000 1.0
C      1  0.4896680000000  0.4939670000000  0.4883410000000 1.0
C      1  0.5187460000000  0.5419880000000  0.5275910000000 1.0
C      1  0.5832360000000  0.5203040000000  0.4860200000000 1.0
C      1  0.4378770000000  0.4826720000000  0.5536600000000 1.0
C      1  0.5597880000000  0.5545800000000  0.4689960000000 1.0
C      1  0.5927440000000  0.4506520000000  0.5022550000000 1.0
C      1  0.5513660000000  0.4565170000000  0.4772750000000 1.0
C      1  0.5493710000000  0.4526490000000  0.5324870000000 1.0
C      1  0.4414990000000  0.5549110000000  0.5205130000000 1.0
C      1  0.4625050000000  0.4284800000000  0.4595290000000 1.0
C      1  0.4695320000000  0.4235320000000  0.5696750000000 1.0
C      1  0.5486760000000  0.4479350000000  0.5893710000000 1.0
C      1  0.5296840000000  0.5170140000000  0.5367790000000 1.0
C      1  0.4949760000000  0.5227490000000  0.3742840000000 1.0
C      1  0.4850060000000  0.4655050000000  0.4873190000000 1.0
C      1  0.5138790000000  0.5370290000000  0.3893400000000 1.0
C      1  0.4198000000000  0.4685510000000  0.4414300000000 1.0
C      1  0.4456420000000  0.4934330000000  0.5282070000000 1.0
C      1  0.3808420000000  0.4629070000000  0.5941640000000 1.0
C      1  0.5620840000000  0.5422180000000  0.4430730000000 1.0
C      1  0.5691990000000  0.5033020000000  0.5678090000000 1.0
C      1  0.4949440000000  0.5021540000000  0.4615220000000 1.0
C      1  0.4382710000000  0.5069070000000  0.4481520000000 1.0
C      1  0.4010930000000  0.4697380000000  0.5241050000000 1.0
C      1  0.4500970000000  0.5496850000000  0.5668510000000 1.0
C      1  0.4454880000000  0.5298480000000  0.4844260000000 1.0
C      1  0.4673110000000  0.5449630000000  0.4760430000000 1.0
C      1  0.5799760000000  0.5494410000000  0.4879460000000 1.0
C      1  0.5066290000000  0.5618100000000  0.4026740000000 1.0
C      1  0.5323390000000  0.5217990000000  0.4068480000000 1.0
C      1  0.3962120000000  0.4977460000000  0.5191210000000 1.0
C      1  0.4742900000000  0.5041830000000  0.4130990000000 1.0
C      1  0.4645550000000  0.5756830000000  0.5186870000000 1.0
C      1  0.4683770000000  0.4386190000000  0.5920340000000 1.0
C      1  0.4574290000000  0.4310910000000  0.5452880000000 1.0
C      1  0.5603360000000  0.5719620000000  0.5311070000000 1.0
C      1  0.5546970000000  0.5142030000000  0.5481500000000 1.0
C      1  0.5486510000000  0.4276830000000  0.5709280000000 1.0
C      1  0.5221590000000  0.4657850000000  0.5335180000000 1.0
C      1  0.5405990000000  0.3997930000000  0.4942800000000 1.0
C      1  0.4517030000000  0.5366610000000  0.5414790000000 1.0
C      1  0.4592090000000  0.4638000000000  0.5941640000000 1.0
C      1  0.5099170000000  0.5470590000000  0.5734280000000 1.0
C      1  0.5357070000000  0.4657430000000  0.4102460000000 1.0
C      1  0.3963600000000  0.4624310000000  0.5732500000000 1.0
C      1  0.5061730000000  0.4482250000000  0.4946470000000 1.0
C      1  0.5009620000000  0.5887950000000  0.4787230000000 1.0
C      1  0.5009390000000  0.4593310000000  0.4403820000000 1.0
C      1  0.5831160000000  0.5233040000000  0.4373280000000 1.0
C      1  0.5369720000000  0.4930950000000  0.4053950000000 1.0
C      1  0.5134710000000  0.4942200000000  0.5315810000000 1.0
C      1  0.4924680000000  0.5267880000000  0.5834670000000 1.0
C      1  0.4716300000000  0.4504370000000  0.4425890000000 1.0
C      1  0.5501280000000  0.4734620000000  0.5988980000000 1.0
C      1  0.5158370000000  0.5453980000000  0.5000170000000 1.0
C      1  0.5307760000000  0.4202620000000  0.4413980000000 1.0
C      1  0.4183190000000  0.4331410000000  0.4880400000000 1.0
C      1  0.4459040000000  0.4626130000000  0.4344360000000 1.0
C      1  0.5017640000000  0.4470770000000  0.5238390000000 1.0
C      1  0.4515550000000  0.5527950000000  0.4324050000000 1.0
C      1  0.5252270000000  0.5947650000000  0.4942730000000 1.0
C      1  0.5812240000000  0.5575710000000  0.5165550000000 1.0
C      1  0.3964190000000  0.5051890000000  0.4726490000000 1.0
C      1  0.5150460000000  0.4840230000000  0.4517770000000 1.0
C      1  0.4025240000000  0.5176680000000  0.4990400000000 1.0
C      1  0.5963360000000  0.5353740000000  0.5281290000000 1.0
C      1  0.4973600000000  0.5734080000000  0.4518360000000 1.0
C      1  0.5472770000000  0.5278210000000  0.5981960000000 1.0
C      1  0.6021930000000  0.4605300000000  0.4784990000000 1.0
C      1  0.6026710000000  0.4783140000000  0.4579500000000 1.0
C      1  0.4769000000000  0.5886660000000  0.4960680000000 1.0
C      1  0.4398270000000  0.4243240000000  0.4741370000000 1.0
C      1  0.5041410000000  0.5574390000000  0.5468050000000 1.0
C      1  0.4810870000000  0.5748960000000  0.5437380000000 1.0
C      1  0.4657480000000  0.5134700000000  0.5304090000000 1.0
C      1  0.4611240000000  0.4594530000000  0.5020600000000 1.0
C      1  0.4017860000000  0.4842820000000  0.4553020000000 1.0
C      1  0.4902690000000  0.5418940000000  0.4908090000000 1.0
C      1  0.4640860000000  0.5733110000000  0.5670480000000 1.0
C      1  0.4898080000000  0.5028330000000  0.5166490000000 1.0
C      1  0.5584020000000  0.5050160000000  0.4776540000000 1.0
C      1  0.5486730000000  0.4252780000000  0.5421790000000 1.0
C      1  0.5963240000000  0.5001400000000  0.4430140000000 1.0
C      1  0.4815880000000  0.5102820000000  0.4381940000000 1.0
C      1  0.4149230000000  0.4625160000000  0.5505080000000 1.0
C      1  0.5429060000000  0.5890130000000  0.5147050000000 1.0
END
