TITL C-612607-4507-1491 8.76049420083423 125000 -385.307284776658 0 0 65 (C1) n - 1
REM
REM in /home/nfs/bkarasulu/CARBON/AIRSS/Generating-Clusters/TERSOFF/Only-C1/FIRE-HFTN
REM
REM
REM
REM
REM
REM ./C.cell (11c1c37f851c82e70ff6c80c92926a4b)
REM AIRSS Version 0.9.1 bugfix July 2018 build 013d7b7c2542+ Fri, 06 Jul 2018 19:26:36 +0100
REM compiler GCC version 9.2.1 20190827 (Red Hat 9.2.1-1)
REM options -cpp -mtune=generic -march=x86-64 -g -O0 -fpre-include=/usr/include/finclude/math-vector-fortran.h
REM seed 663882100 347832729 -1146784732 -845600537 1932622066 -289486430 -825937302 296107006 -1414802453 1260269842 1664146788 638416979 -1132085422 -1727439983 1264882358 55211955 387723021 -805094836 2048086476 -577396936 -1594640991 -1703551420 -285086475 -1062950366 -635834271 -849726670 839252078 -1614116548 -1403564194 506254382 -1553466637 1545295170 1362626484
REM
CELL 1.54180   50.00000   50.00000   50.00000   90.00000   90.00000   90.00000
LATT -1
SFAC C  
C      1  0.5101580000000  0.5118730000000  0.4202960000000 1.0
C      1  0.5114250000000  0.4350470000000  0.5513580000000 1.0
C      1  0.3893980000000  0.4738910000000  0.5685330000000 1.0
C      1  0.3678890000000  0.4893450000000  0.5675100000000 1.0
C      1  0.4585580000000  0.5293130000000  0.5184750000000 1.0
C      1  0.5330160000000  0.4898570000000  0.6034010000000 1.0
C      1  0.5355080000000  0.5533720000000  0.5463270000000 1.0
C      1  0.4829180000000  0.5164340000000  0.5272870000000 1.0
C      1  0.5631560000000  0.4859280000000  0.4928720000000 1.0
C      1  0.5245590000000  0.5357190000000  0.4157380000000 1.0
C      1  0.4659320000000  0.5519730000000  0.4520490000000 1.0
C      1  0.5799700000000  0.4069920000000  0.4017550000000 1.0
C      1  0.4056030000000  0.5151250000000  0.4813100000000 1.0
C      1  0.3469610000000  0.5048090000000  0.5659310000000 1.0
C      1  0.4851230000000  0.4341220000000  0.5543780000000 1.0
C      1  0.6164220000000  0.5319540000000  0.5230080000000 1.0
C      1  0.4380040000000  0.5156870000000  0.4358710000000 1.0
C      1  0.5608080000000  0.5682240000000  0.4150040000000 1.0
C      1  0.4269810000000  0.5171330000000  0.4627350000000 1.0
C      1  0.5384550000000  0.4415530000000  0.5483650000000 1.0
C      1  0.4645340000000  0.5284670000000  0.4359120000000 1.0
C      1  0.5499810000000  0.4786550000000  0.4239150000000 1.0
C      1  0.5513120000000  0.5433410000000  0.4206930000000 1.0
C      1  0.4636760000000  0.5586640000000  0.4779960000000 1.0
C      1  0.4994360000000  0.5897100000000  0.5517170000000 1.0
C      1  0.5454530000000  0.4630250000000  0.5319100000000 1.0
C      1  0.5699900000000  0.4305080000000  0.4088250000000 1.0
C      1  0.5246290000000  0.4880060000000  0.4158220000000 1.0
C      1  0.5068590000000  0.5124080000000  0.5114680000000 1.0
C      1  0.4161200000000  0.4731990000000  0.5025700000000 1.0
C      1  0.5054130000000  0.5060030000000  0.4839190000000 1.0
C      1  0.4593000000000  0.4384270000000  0.5584940000000 1.0
C      1  0.5715640000000  0.5085240000000  0.5763570000000 1.0
C      1  0.4826530000000  0.5060750000000  0.5534230000000 1.0
C      1  0.5648200000000  0.4964150000000  0.4407930000000 1.0
C      1  0.5213830000000  0.5747590000000  0.5530930000000 1.0
C      1  0.5952010000000  0.5275590000000  0.5382470000000 1.0
C      1  0.4133270000000  0.5015670000000  0.5058910000000 1.0
C      1  0.4346390000000  0.4899520000000  0.4238730000000 1.0
C      1  0.4755810000000  0.5911280000000  0.5399310000000 1.0
C      1  0.4348330000000  0.4473160000000  0.5634530000000 1.0
C      1  0.4292100000000  0.4573410000000  0.4846290000000 1.0
C      1  0.5461900000000  0.5283960000000  0.5400070000000 1.0
C      1  0.4116610000000  0.4595660000000  0.5673540000000 1.0
C      1  0.5329370000000  0.5095440000000  0.5232610000000 1.0
C      1  0.6368690000000  0.5358810000000  0.5073210000000 1.0
C      1  0.4331470000000  0.5159270000000  0.5211450000000 1.0
C      1  0.5600480000000  0.4540060000000  0.4159350000000 1.0
C      1  0.4897790000000  0.4969200000000  0.5772770000000 1.0
C      1  0.5714700000000  0.5215210000000  0.5515620000000 1.0
C      1  0.5577250000000  0.4272590000000  0.5614740000000 1.0
C      1  0.4385220000000  0.4659850000000  0.4365600000000 1.0
C      1  0.5475490000000  0.4859020000000  0.5161060000000 1.0
C      1  0.4476790000000  0.4634160000000  0.4635740000000 1.0
C      1  0.5697380000000  0.4895120000000  0.4674020000000 1.0
C      1  0.5575640000000  0.4967890000000  0.5957120000000 1.0
C      1  0.4496710000000  0.5072240000000  0.4783950000000 1.0
C      1  0.4599900000000  0.5551760000000  0.5057960000000 1.0
C      1  0.4900720000000  0.4962990000000  0.4623870000000 1.0
C      1  0.5673830000000  0.5230910000000  0.4320290000000 1.0
C      1  0.4606240000000  0.5777480000000  0.5224180000000 1.0
C      1  0.5074340000000  0.4903360000000  0.5960280000000 1.0
C      1  0.5897860000000  0.3838630000000  0.3948020000000 1.0
C      1  0.4653890000000  0.4848090000000  0.4706510000000 1.0
C      1  0.4880170000000  0.5114300000000  0.4376700000000 1.0
END
