TITL C-612607-4507-796 -3.22470997826849 125000 -933.805551379731 0 0 152 (C1) n - 1
REM
REM in /home/nfs/bkarasulu/CARBON/AIRSS/Generating-Clusters/TERSOFF/Only-C1/FIRE-HFTN
REM
REM
REM
REM
REM
REM ./C.cell (11c1c37f851c82e70ff6c80c92926a4b)
REM AIRSS Version 0.9.1 bugfix July 2018 build 013d7b7c2542+ Fri, 06 Jul 2018 19:26:36 +0100
REM compiler GCC version 9.2.1 20190827 (Red Hat 9.2.1-1)
REM options -cpp -mtune=generic -march=x86-64 -g -O0 -fpre-include=/usr/include/finclude/math-vector-fortran.h
REM seed 1132302412 542737689 -2064401450 791183947 1570851049 -1309034811 965289592 1675703221 598906306 -374509677 -1650830155 -1219564428 -739098755 -2006998421 2144884301 79867204 769005023 -737346843 -2093722267 2124836905 -1821666872 -1905493812 -2078980990 -2047912874 1307336958 -1441616240 -773808666 -1351337993 -257055128 991107164 -715678348 -454951992 72724079
REM
CELL 1.54180   50.00000   50.00000   50.00000   90.00000   90.00000   90.00000
LATT -1
SFAC C  
C      1  0.6126540000000  0.4565940000000  0.4938930000000 1.0
C      1  0.4775020000000  0.5483810000000  0.4383660000000 1.0
C      1  0.5125490000000  0.5817990000000  0.5052560000000 1.0
C      1  0.5647700000000  0.5049660000000  0.5172920000000 1.0
C      1  0.5252480000000  0.5049690000000  0.5975600000000 1.0
C      1  0.4044030000000  0.4926230000000  0.4405010000000 1.0
C      1  0.4699820000000  0.5376120000000  0.5236430000000 1.0
C      1  0.5788510000000  0.4324840000000  0.5807980000000 1.0
C      1  0.5324310000000  0.5868570000000  0.4027470000000 1.0
C      1  0.5170140000000  0.4281560000000  0.5905390000000 1.0
C      1  0.5376560000000  0.4820490000000  0.4685470000000 1.0
C      1  0.4693920000000  0.4114690000000  0.5861850000000 1.0
C      1  0.4992600000000  0.4915850000000  0.5214710000000 1.0
C      1  0.4149830000000  0.5585750000000  0.4580670000000 1.0
C      1  0.4776930000000  0.4928310000000  0.5421850000000 1.0
C      1  0.5081930000000  0.6142420000000  0.4601140000000 1.0
C      1  0.4603160000000  0.6167440000000  0.4836000000000 1.0
C      1  0.5055980000000  0.5080600000000  0.4122390000000 1.0
C      1  0.3885290000000  0.4734850000000  0.3365280000000 1.0
C      1  0.4379820000000  0.4591120000000  0.4183660000000 1.0
C      1  0.5076240000000  0.6618640000000  0.5132170000000 1.0
C      1  0.4572800000000  0.4898670000000  0.4491800000000 1.0
C      1  0.4980590000000  0.4076420000000  0.5820940000000 1.0
C      1  0.4478000000000  0.6051590000000  0.5074830000000 1.0
C      1  0.4729200000000  0.5669960000000  0.4844950000000 1.0
C      1  0.4754960000000  0.4733060000000  0.6319130000000 1.0
C      1  0.4624930000000  0.5546450000000  0.4618750000000 1.0
C      1  0.6062930000000  0.5245360000000  0.5502970000000 1.0
C      1  0.5452720000000  0.5516350000000  0.5865080000000 1.0
C      1  0.4652740000000  0.3991380000000  0.5092250000000 1.0
C      1  0.4346770000000  0.4693450000000  0.5281450000000 1.0
C      1  0.5634880000000  0.5294650000000  0.5823800000000 1.0
C      1  0.5085940000000  0.4404560000000  0.6147000000000 1.0
C      1  0.4072410000000  0.4734860000000  0.3546790000000 1.0
C      1  0.4198570000000  0.4231330000000  0.4991690000000 1.0
C      1  0.5741840000000  0.5581780000000  0.4532410000000 1.0
C      1  0.4979590000000  0.6443420000000  0.4965250000000 1.0
C      1  0.4083950000000  0.5119920000000  0.4900020000000 1.0
C      1  0.4468200000000  0.4274910000000  0.5881660000000 1.0
C      1  0.4924860000000  0.5609300000000  0.5871010000000 1.0
C      1  0.4881520000000  0.4591620000000  0.6113510000000 1.0
C      1  0.5963460000000  0.5221780000000  0.4828620000000 1.0
C      1  0.4892430000000  0.4844220000000  0.3673550000000 1.0
C      1  0.4906650000000  0.5109210000000  0.5603780000000 1.0
C      1  0.4892540000000  0.4551570000000  0.5582150000000 1.0
C      1  0.5042500000000  0.4001920000000  0.4742470000000 1.0
C      1  0.5100440000000  0.5535270000000  0.5050720000000 1.0
C      1  0.6167920000000  0.5101070000000  0.4996270000000 1.0
C      1  0.4242830000000  0.5397050000000  0.5511110000000 1.0
C      1  0.4413780000000  0.4992530000000  0.6118060000000 1.0
C      1  0.5913110000000  0.4402460000000  0.5036470000000 1.0
C      1  0.4368840000000  0.5438820000000  0.4678650000000 1.0
C      1  0.5073080000000  0.3841280000000  0.5713990000000 1.0
C      1  0.5382190000000  0.3727350000000  0.4983320000000 1.0
C      1  0.5401150000000  0.5624970000000  0.3915910000000 1.0
C      1  0.5057280000000  0.5538340000000  0.4394250000000 1.0
C      1  0.4454370000000  0.4745260000000  0.3938780000000 1.0
C      1  0.5633600000000  0.5201730000000  0.4142540000000 1.0
C      1  0.5498880000000  0.4357240000000  0.4626690000000 1.0
C      1  0.5296480000000  0.4678200000000  0.4205590000000 1.0
C      1  0.4198700000000  0.5114960000000  0.4267220000000 1.0
C      1  0.4327680000000  0.4822860000000  0.5907530000000 1.0
C      1  0.5884060000000  0.5335610000000  0.4567740000000 1.0
C      1  0.5791110000000  0.3854350000000  0.5590320000000 1.0
C      1  0.5016880000000  0.5117110000000  0.4766280000000 1.0
C      1  0.4218940000000  0.6074250000000  0.4500310000000 1.0
C      1  0.4425040000000  0.6197050000000  0.4618380000000 1.0
C      1  0.5714500000000  0.5081600000000  0.4901200000000 1.0
C      1  0.4523830000000  0.4919540000000  0.5288700000000 1.0
C      1  0.4577650000000  0.5133580000000  0.5071060000000 1.0
C      1  0.5657850000000  0.4795170000000  0.5916270000000 1.0
C      1  0.5554230000000  0.4992420000000  0.3955260000000 1.0
C      1  0.5109560000000  0.4960480000000  0.5749080000000 1.0
C      1  0.4111500000000  0.4508980000000  0.4615920000000 1.0
C      1  0.6190080000000  0.5194760000000  0.5267080000000 1.0
C      1  0.4756260000000  0.4148380000000  0.5304520000000 1.0
C      1  0.4349270000000  0.5232110000000  0.4878520000000 1.0
C      1  0.4665260000000  0.5541390000000  0.5828520000000 1.0
C      1  0.5458820000000  0.5921590000000  0.4282080000000 1.0
C      1  0.5713590000000  0.5130350000000  0.4421900000000 1.0
C      1  0.5620690000000  0.5271300000000  0.5349950000000 1.0
C      1  0.4884390000000  0.6240710000000  0.4793330000000 1.0
C      1  0.5105450000000  0.5164300000000  0.6186430000000 1.0
C      1  0.4123780000000  0.5120080000000  0.5465070000000 1.0
C      1  0.4761820000000  0.4603450000000  0.5846110000000 1.0
C      1  0.5759800000000  0.4538370000000  0.5231460000000 1.0
C      1  0.5175880000000  0.4685750000000  0.5606070000000 1.0
C      1  0.4797560000000  0.5127890000000  0.4031170000000 1.0
C      1  0.4200550000000  0.4650390000000  0.5518490000000 1.0
C      1  0.5124150000000  0.5371230000000  0.4823470000000 1.0
C      1  0.5328750000000  0.3943790000000  0.4809430000000 1.0
C      1  0.4901670000000  0.4521220000000  0.5045030000000 1.0
C      1  0.5149640000000  0.4923770000000  0.3629560000000 1.0
C      1  0.5525860000000  0.4732840000000  0.4071040000000 1.0
C      1  0.4125910000000  0.4488920000000  0.4898020000000 1.0
C      1  0.5500470000000  0.5624700000000  0.4675840000000 1.0
C      1  0.4477220000000  0.4565800000000  0.5873780000000 1.0
C      1  0.5512200000000  0.3649300000000  0.5202490000000 1.0
C      1  0.5680640000000  0.4789530000000  0.5275990000000 1.0
C      1  0.5537300000000  0.5049510000000  0.5939480000000 1.0
C      1  0.5196380000000  0.5606720000000  0.5877790000000 1.0
C      1  0.4648240000000  0.4992330000000  0.6277700000000 1.0
C      1  0.5843580000000  0.4078170000000  0.5724180000000 1.0
C      1  0.4852290000000  0.5187070000000  0.6278150000000 1.0
C      1  0.4672620000000  0.4672270000000  0.4628670000000 1.0
C      1  0.5605630000000  0.4976970000000  0.4656280000000 1.0
C      1  0.5671690000000  0.5693810000000  0.4278070000000 1.0
C      1  0.4838570000000  0.4991760000000  0.4959280000000 1.0
C      1  0.4695440000000  0.4905590000000  0.3874870000000 1.0
C      1  0.5133240000000  0.4888580000000  0.4306110000000 1.0
C      1  0.4233290000000  0.5635050000000  0.5338640000000 1.0
C      1  0.3957810000000  0.5022500000000  0.4661390000000 1.0
C      1  0.5343780000000  0.6029610000000  0.4538460000000 1.0
C      1  0.5448230000000  0.5492590000000  0.5327880000000 1.0
C      1  0.5602220000000  0.4532100000000  0.5828090000000 1.0
C      1  0.5546930000000  0.5759440000000  0.5251670000000 1.0
C      1  0.4747270000000  0.4714800000000  0.4893930000000 1.0
C      1  0.5332320000000  0.4472380000000  0.5752880000000 1.0
C      1  0.4173240000000  0.4895470000000  0.5671550000000 1.0
C      1  0.4655520000000  0.5283210000000  0.4216040000000 1.0
C      1  0.4573090000000  0.4393050000000  0.4277080000000 1.0
C      1  0.4837820000000  0.3883960000000  0.4904960000000 1.0
C      1  0.4742820000000  0.4414470000000  0.4506610000000 1.0
C      1  0.4099440000000  0.5834900000000  0.4496880000000 1.0
C      1  0.5790820000000  0.5275180000000  0.5580980000000 1.0
C      1  0.5765870000000  0.5872710000000  0.5370530000000 1.0
C      1  0.5386800000000  0.5018660000000  0.3723800000000 1.0
C      1  0.4960150000000  0.4267860000000  0.4646560000000 1.0
C      1  0.5666000000000  0.3699630000000  0.5413780000000 1.0
C      1  0.4039820000000  0.4985910000000  0.5146700000000 1.0
C      1  0.4849890000000  0.4416240000000  0.5316870000000 1.0
C      1  0.4431700000000  0.5792300000000  0.5197090000000 1.0
C      1  0.5248580000000  0.5499620000000  0.4604420000000 1.0
C      1  0.6217970000000  0.4821990000000  0.4943900000000 1.0
C      1  0.4926960000000  0.5343230000000  0.5430440000000 1.0
C      1  0.5092820000000  0.4442180000000  0.4845190000000 1.0
C      1  0.4646330000000  0.5625880000000  0.5112270000000 1.0
C      1  0.5336610000000  0.4551250000000  0.4747170000000 1.0
C      1  0.4383220000000  0.4041430000000  0.5028760000000 1.0
C      1  0.4468680000000  0.5115520000000  0.4339410000000 1.0
C      1  0.4437320000000  0.5436890000000  0.5723800000000 1.0
C      1  0.5468290000000  0.5895400000000  0.4769940000000 1.0
C      1  0.5167110000000  0.5435820000000  0.5309760000000 1.0
C      1  0.5147580000000  0.4947830000000  0.4580190000000 1.0
C      1  0.5795730000000  0.4164750000000  0.4925680000000 1.0
C      1  0.4261660000000  0.4735550000000  0.3732150000000 1.0
C      1  0.5558030000000  0.4122670000000  0.4769440000000 1.0
C      1  0.5397700000000  0.5899420000000  0.5045380000000 1.0
C      1  0.4152980000000  0.4656880000000  0.4376800000000 1.0
C      1  0.5598390000000  0.5483990000000  0.4076450000000 1.0
C      1  0.5218490000000  0.4781670000000  0.5322070000000 1.0
C      1  0.4139270000000  0.4709500000000  0.5083900000000 1.0
END
