TITL C-612606-7351-1485 0.0930380196353034 125000 -342.432257282286 0 0 57 (C1) n - 1
REM
REM in /home/nfs/bkarasulu/CARBON/AIRSS/Generating-Clusters/TERSOFF/Only-C1/FIRE-HFTN
REM
REM
REM
REM
REM
REM ./C.cell (11c1c37f851c82e70ff6c80c92926a4b)
REM AIRSS Version 0.9.1 bugfix July 2018 build 013d7b7c2542+ Fri, 06 Jul 2018 19:26:36 +0100
REM compiler GCC version 9.2.1 20190827 (Red Hat 9.2.1-1)
REM options -cpp -mtune=generic -march=x86-64 -g -O0 -fpre-include=/usr/include/finclude/math-vector-fortran.h
REM seed -1470065565 -792060393 1309452917 -1890956854 786128994 -1709361338 -60438171 -1422597860 -265993293 202730333 329986552 605086156 -397020129 -1919016348 2133219448 -768268526 681041701 1606573981 -557323545 -993120888 -597784307 -1877012219 -1181029415 1125358450 1006067370 649559033 1918435636 -336609077 1817195848 -933505397 -1115431497 1126026208 -260140063
REM
CELL 1.54180   50.00000   50.00000   50.00000   90.00000   90.00000   90.00000
LATT -1
SFAC C  
C      1  0.4448210000000  0.5732530000000  0.4564560000000 1.0
C      1  0.5368090000000  0.4496790000000  0.4620280000000 1.0
C      1  0.5179910000000  0.5370120000000  0.5308760000000 1.0
C      1  0.5322910000000  0.4778630000000  0.4624850000000 1.0
C      1  0.4084330000000  0.5402600000000  0.4720260000000 1.0
C      1  0.4813760000000  0.5740750000000  0.5626240000000 1.0
C      1  0.4076990000000  0.5168730000000  0.4851670000000 1.0
C      1  0.4714370000000  0.5516050000000  0.5731520000000 1.0
C      1  0.5578430000000  0.5304150000000  0.4690880000000 1.0
C      1  0.5855290000000  0.4402920000000  0.5418470000000 1.0
C      1  0.5857630000000  0.5242150000000  0.5542020000000 1.0
C      1  0.4450690000000  0.4651890000000  0.4625360000000 1.0
C      1  0.5094160000000  0.5384100000000  0.4540500000000 1.0
C      1  0.5246360000000  0.3637960000000  0.4494450000000 1.0
C      1  0.4701670000000  0.5395780000000  0.4776520000000 1.0
C      1  0.4824420000000  0.4938350000000  0.4696980000000 1.0
C      1  0.4949750000000  0.4106660000000  0.4965760000000 1.0
C      1  0.5715750000000  0.5139750000000  0.4864010000000 1.0
C      1  0.5335630000000  0.4985170000000  0.4435490000000 1.0
C      1  0.4884360000000  0.4889040000000  0.4968350000000 1.0
C      1  0.4994510000000  0.5663150000000  0.4571360000000 1.0
C      1  0.4720970000000  0.4705920000000  0.4565180000000 1.0
C      1  0.5130450000000  0.5859360000000  0.4720720000000 1.0
C      1  0.4867470000000  0.5207810000000  0.4629050000000 1.0
C      1  0.5130210000000  0.4819140000000  0.5077040000000 1.0
C      1  0.4944870000000  0.5410820000000  0.5192880000000 1.0
C      1  0.4210030000000  0.5614050000000  0.4612470000000 1.0
C      1  0.4865990000000  0.4238230000000  0.5182600000000 1.0
C      1  0.4705450000000  0.5644200000000  0.4629200000000 1.0
C      1  0.4548400000000  0.5026760000000  0.5649150000000 1.0
C      1  0.4214210000000  0.4951420000000  0.4974940000000 1.0
C      1  0.4273820000000  0.4730640000000  0.4811230000000 1.0
C      1  0.5133420000000  0.4622610000000  0.5282230000000 1.0
C      1  0.4649790000000  0.4632500000000  0.5385520000000 1.0
C      1  0.5126150000000  0.4348520000000  0.4585160000000 1.0
C      1  0.5128370000000  0.5966820000000  0.4966490000000 1.0
C      1  0.5622520000000  0.4890940000000  0.4965440000000 1.0
C      1  0.5534540000000  0.5031460000000  0.5820870000000 1.0
C      1  0.5390990000000  0.5303130000000  0.5454040000000 1.0
C      1  0.5386070000000  0.4528490000000  0.5364440000000 1.0
C      1  0.5693850000000  0.4607650000000  0.5002940000000 1.0
C      1  0.5044600000000  0.5981360000000  0.5220030000000 1.0
C      1  0.4928770000000  0.5903650000000  0.5448120000000 1.0
C      1  0.4477900000000  0.5282500000000  0.5185840000000 1.0
C      1  0.4376820000000  0.5017700000000  0.5202080000000 1.0
C      1  0.5652860000000  0.4507650000000  0.5268960000000 1.0
C      1  0.4881910000000  0.4486180000000  0.5314880000000 1.0
C      1  0.5596690000000  0.5191250000000  0.5607380000000 1.0
C      1  0.5349680000000  0.5258460000000  0.4522220000000 1.0
C      1  0.4498920000000  0.4869510000000  0.5417290000000 1.0
C      1  0.5342650000000  0.4866540000000  0.4901200000000 1.0
C      1  0.5081060000000  0.4100350000000  0.4716990000000 1.0
C      1  0.4899870000000  0.4497820000000  0.4496130000000 1.0
C      1  0.4627410000000  0.5263660000000  0.5745890000000 1.0
C      1  0.5600660000000  0.4437380000000  0.4782580000000 1.0
C      1  0.4701030000000  0.5387970000000  0.5057620000000 1.0
C      1  0.5164340000000  0.3860280000000  0.4602930000000 1.0
END
