TITL C-612601-4209-608 0.00669954151387605 125000 -372.971163519922 0 0 62 (C1) n - 1
REM
REM in /home/nfs/bkarasulu/CARBON/AIRSS/Generating-Clusters/TERSOFF/Only-C1/FIRE-HFTN
REM
REM
REM
REM
REM
REM ./C.cell (11c1c37f851c82e70ff6c80c92926a4b)
REM AIRSS Version 0.9.1 bugfix July 2018 build 013d7b7c2542+ Fri, 06 Jul 2018 19:26:36 +0100
REM compiler GCC version 9.2.1 20190827 (Red Hat 9.2.1-1)
REM options -cpp -mtune=generic -march=x86-64 -g -O0 -fpre-include=/usr/include/finclude/math-vector-fortran.h
REM seed 1263361793 1766558176 910409908 125305689 -1630695839 -1154530537 -1255741699 -1571659858 -70943546 624347891 -1579904508 1366227986 1682690000 -1622172663 1553621125 1515119512 855070270 -1045089263 774885573 701355100 -1814222145 1210915114 1102944456 -1850749429 988736748 -14316821 804113750 256870018 -1618141797 1747962653 207437047 -696570683 93060869
REM
CELL 1.54180   50.00000   50.00000   50.00000   90.00000   90.00000   90.00000
LATT -1
SFAC C  
C      1  0.5356270000000  0.4390150000000  0.4906570000000 1.0
C      1  0.5208030000000  0.4502730000000  0.4692300000000 1.0
C      1  0.5209220000000  0.5150230000000  0.5630730000000 1.0
C      1  0.4526810000000  0.5059720000000  0.4935260000000 1.0
C      1  0.4897130000000  0.4531150000000  0.5471520000000 1.0
C      1  0.5074680000000  0.5242760000000  0.4512470000000 1.0
C      1  0.4298150000000  0.5218570000000  0.4856130000000 1.0
C      1  0.4165730000000  0.4705880000000  0.5335270000000 1.0
C      1  0.5141700000000  0.4965430000000  0.5103760000000 1.0
C      1  0.4323720000000  0.5290770000000  0.4582950000000 1.0
C      1  0.5784770000000  0.4924260000000  0.4868970000000 1.0
C      1  0.5611200000000  0.3456990000000  0.4769690000000 1.0
C      1  0.4571920000000  0.4332160000000  0.4812990000000 1.0
C      1  0.5295910000000  0.5010550000000  0.4883550000000 1.0
C      1  0.4280490000000  0.4688100000000  0.4275290000000 1.0
C      1  0.5826250000000  0.4422360000000  0.4819500000000 1.0
C      1  0.5539090000000  0.4835560000000  0.5459690000000 1.0
C      1  0.5170430000000  0.4994690000000  0.4626850000000 1.0
C      1  0.4773220000000  0.5520120000000  0.4977360000000 1.0
C      1  0.5472350000000  0.4606230000000  0.5338070000000 1.0
C      1  0.3919370000000  0.4731180000000  0.5416360000000 1.0
C      1  0.5063830000000  0.5723340000000  0.4663030000000 1.0
C      1  0.4751720000000  0.5335740000000  0.5599140000000 1.0
C      1  0.4631700000000  0.4589600000000  0.5401980000000 1.0
C      1  0.5566680000000  0.5093440000000  0.4899220000000 1.0
C      1  0.4496550000000  0.5353180000000  0.5512200000000 1.0
C      1  0.4811550000000  0.5253650000000  0.4402950000000 1.0
C      1  0.5213070000000  0.5492140000000  0.4581250000000 1.0
C      1  0.5480740000000  0.5494400000000  0.4679760000000 1.0
C      1  0.5092890000000  0.4922560000000  0.5751450000000 1.0
C      1  0.5138000000000  0.4723770000000  0.4552430000000 1.0
C      1  0.4491020000000  0.4783780000000  0.4978520000000 1.0
C      1  0.4719490000000  0.4164250000000  0.4958050000000 1.0
C      1  0.5094120000000  0.5571750000000  0.5360350000000 1.0
C      1  0.5298210000000  0.4446530000000  0.5183350000000 1.0
C      1  0.4543740000000  0.5281790000000  0.4423100000000 1.0
C      1  0.5614090000000  0.3980520000000  0.4816510000000 1.0
C      1  0.4294290000000  0.5377980000000  0.5335010000000 1.0
C      1  0.5601380000000  0.4256670000000  0.4846010000000 1.0
C      1  0.4740660000000  0.5238460000000  0.4975400000000 1.0
C      1  0.5583820000000  0.5376310000000  0.4915940000000 1.0
C      1  0.4390240000000  0.5975030000000  0.4544480000000 1.0
C      1  0.5545760000000  0.5480100000000  0.5181740000000 1.0
C      1  0.4582810000000  0.5825960000000  0.4637280000000 1.0
C      1  0.5243510000000  0.6179480000000  0.4667130000000 1.0
C      1  0.5613550000000  0.3716660000000  0.4792660000000 1.0
C      1  0.5612310000000  0.5315110000000  0.5400710000000 1.0
C      1  0.5333000000000  0.5663830000000  0.5227840000000 1.0
C      1  0.5046070000000  0.4366570000000  0.5290920000000 1.0
C      1  0.5887730000000  0.4681640000000  0.4832660000000 1.0
C      1  0.4428370000000  0.4693290000000  0.5241830000000 1.0
C      1  0.4795140000000  0.5683560000000  0.4746100000000 1.0
C      1  0.4860910000000  0.5640710000000  0.5214540000000 1.0
C      1  0.4483070000000  0.4593960000000  0.4765090000000 1.0
C      1  0.5207300000000  0.5938360000000  0.4789360000000 1.0
C      1  0.5007270000000  0.4678800000000  0.5682470000000 1.0
C      1  0.4902730000000  0.4167020000000  0.5152790000000 1.0
C      1  0.5307560000000  0.5882060000000  0.5048490000000 1.0
C      1  0.5035420000000  0.5364950000000  0.5552760000000 1.0
C      1  0.4191400000000  0.5348750000000  0.5084920000000 1.0
C      1  0.4380560000000  0.4660850000000  0.4514410000000 1.0
C      1  0.5471280000000  0.5103850000000  0.5520830000000 1.0
END
