TITL C-612600-6631-831 0.000116578672758963 125000 -530.201812922139 0 0 87 (C1) n - 1
REM
REM in /home/nfs/bkarasulu/CARBON/AIRSS/Generating-Clusters/TERSOFF/Only-C1/FIRE-HFTN
REM
REM
REM
REM
REM
REM ./C.cell (11c1c37f851c82e70ff6c80c92926a4b)
REM AIRSS Version 0.9.1 bugfix July 2018 build 013d7b7c2542+ Fri, 06 Jul 2018 19:26:36 +0100
REM compiler GCC version 9.2.1 20190827 (Red Hat 9.2.1-1)
REM options -cpp -mtune=generic -march=x86-64 -g -O0 -fpre-include=/usr/include/finclude/math-vector-fortran.h
REM seed 1212685544 1785946356 1415155385 -515291455 1616031714 -638696108 858882281 773294255 -501664658 -1947070280 803194696 98847521 890849041 79674721 99542757 -81786418 -983352557 1255102244 1137745369 2144103445 832614725 -366313852 942337089 1578954206 -1201118262 -1720094678 -1023457714 -1773084940 1200144966 -82175192 707983915 -696562947 -325271577
REM
CELL 1.54180   50.00000   50.00000   50.00000   90.00000   90.00000   90.00000
LATT -1
SFAC C  
C      1  0.4605920000000  0.4933000000000  0.5863220000000 1.0
C      1  0.5464160000000  0.4980180000000  0.4228580000000 1.0
C      1  0.4657280000000  0.4222200000000  0.5816140000000 1.0
C      1  0.4949810000000  0.4788310000000  0.4464030000000 1.0
C      1  0.4352990000000  0.4863470000000  0.4307160000000 1.0
C      1  0.4724760000000  0.5174440000000  0.5419850000000 1.0
C      1  0.5478510000000  0.4564190000000  0.5920380000000 1.0
C      1  0.5495810000000  0.6394690000000  0.5133990000000 1.0
C      1  0.5135000000000  0.5525240000000  0.4991940000000 1.0
C      1  0.5740660000000  0.5046660000000  0.5417790000000 1.0
C      1  0.4089380000000  0.4906910000000  0.5114280000000 1.0
C      1  0.4590730000000  0.4457070000000  0.4468340000000 1.0
C      1  0.5595170000000  0.5843990000000  0.4663580000000 1.0
C      1  0.4863850000000  0.4521510000000  0.4430480000000 1.0
C      1  0.4299460000000  0.4570750000000  0.5828200000000 1.0
C      1  0.5127440000000  0.4240330000000  0.5755110000000 1.0
C      1  0.4603270000000  0.6026160000000  0.4546120000000 1.0
C      1  0.4809190000000  0.5896580000000  0.4709020000000 1.0
C      1  0.4496810000000  0.6253610000000  0.4671350000000 1.0
C      1  0.4211850000000  0.4465710000000  0.5583100000000 1.0
C      1  0.5067000000000  0.4334280000000  0.4472940000000 1.0
C      1  0.5663860000000  0.4741030000000  0.5835610000000 1.0
C      1  0.5397350000000  0.5111140000000  0.4705990000000 1.0
C      1  0.4801450000000  0.5378590000000  0.4215910000000 1.0
C      1  0.4359530000000  0.4462070000000  0.5358980000000 1.0
C      1  0.5537450000000  0.4952630000000  0.4519930000000 1.0
C      1  0.5273010000000  0.5151220000000  0.4107110000000 1.0
C      1  0.5153860000000  0.5232270000000  0.4612040000000 1.0
C      1  0.5277720000000  0.4789030000000  0.5003510000000 1.0
C      1  0.4212160000000  0.4816730000000  0.4870390000000 1.0
C      1  0.4990900000000  0.6381200000000  0.5202690000000 1.0
C      1  0.4456600000000  0.5060580000000  0.4483750000000 1.0
C      1  0.4925940000000  0.5680360000000  0.4566130000000 1.0
C      1  0.5694060000000  0.4702380000000  0.4568880000000 1.0
C      1  0.5626970000000  0.5095580000000  0.5178340000000 1.0
C      1  0.5098930000000  0.3988640000000  0.4990040000000 1.0
C      1  0.5237210000000  0.4558940000000  0.4877460000000 1.0
C      1  0.4584390000000  0.4551570000000  0.5246100000000 1.0
C      1  0.4736590000000  0.4682560000000  0.5973130000000 1.0
C      1  0.5653440000000  0.6252810000000  0.4972940000000 1.0
C      1  0.4589830000000  0.6341140000000  0.4912110000000 1.0
C      1  0.4328900000000  0.4858470000000  0.5848840000000 1.0
C      1  0.4408360000000  0.4598570000000  0.4302770000000 1.0
C      1  0.4557740000000  0.5116180000000  0.4972010000000 1.0
C      1  0.5230290000000  0.4801780000000  0.5490330000000 1.0
C      1  0.5034600000000  0.4876410000000  0.5677080000000 1.0
C      1  0.4757020000000  0.4699800000000  0.5106170000000 1.0
C      1  0.6082590000000  0.4635560000000  0.4841090000000 1.0
C      1  0.4851300000000  0.4091080000000  0.5084640000000 1.0
C      1  0.5167550000000  0.5266510000000  0.5112780000000 1.0
C      1  0.5365810000000  0.3999790000000  0.4960650000000 1.0
C      1  0.4807530000000  0.6228720000000  0.5057640000000 1.0
C      1  0.5719080000000  0.4592330000000  0.4300430000000 1.0
C      1  0.5210110000000  0.4477340000000  0.5890270000000 1.0
C      1  0.5602520000000  0.4515330000000  0.5243010000000 1.0
C      1  0.5411930000000  0.4626870000000  0.5395510000000 1.0
C      1  0.5815410000000  0.4581900000000  0.4798980000000 1.0
C      1  0.4783800000000  0.5641770000000  0.4313640000000 1.0
C      1  0.5151200000000  0.5527140000000  0.4682760000000 1.0
C      1  0.5010710000000  0.4681650000000  0.5893950000000 1.0
C      1  0.4832420000000  0.4103780000000  0.5370010000000 1.0
C      1  0.4654670000000  0.4199040000000  0.4900470000000 1.0
C      1  0.4704200000000  0.5184550000000  0.4406700000000 1.0
C      1  0.4786390000000  0.5037890000000  0.5661910000000 1.0
C      1  0.5590030000000  0.4147980000000  0.4941060000000 1.0
C      1  0.4597090000000  0.5864470000000  0.4305710000000 1.0
C      1  0.4800220000000  0.4965280000000  0.5027140000000 1.0
C      1  0.4553810000000  0.4460230000000  0.5926420000000 1.0
C      1  0.5031380000000  0.5764510000000  0.5105450000000 1.0
C      1  0.5383910000000  0.5071910000000  0.5006720000000 1.0
C      1  0.4471070000000  0.5179840000000  0.5253730000000 1.0
C      1  0.5593580000000  0.4749360000000  0.4110500000000 1.0
C      1  0.4939740000000  0.5062450000000  0.4519280000000 1.0
C      1  0.5685920000000  0.6054850000000  0.4798050000000 1.0
C      1  0.5753320000000  0.4920370000000  0.5655420000000 1.0
C      1  0.5232700000000  0.4381570000000  0.4677940000000 1.0
C      1  0.4500600000000  0.4377640000000  0.4731960000000 1.0
C      1  0.5040280000000  0.5289760000000  0.4078950000000 1.0
C      1  0.5410510000000  0.5659720000000  0.4611860000000 1.0
C      1  0.4880340000000  0.5964420000000  0.4974600000000 1.0
C      1  0.4207080000000  0.5079230000000  0.5293350000000 1.0
C      1  0.4875930000000  0.4162910000000  0.5644430000000 1.0
C      1  0.5686090000000  0.4409940000000  0.4992880000000 1.0
C      1  0.5249570000000  0.6442330000000  0.5223980000000 1.0
C      1  0.4285420000000  0.4544310000000  0.4825400000000 1.0
C      1  0.4936250000000  0.5142560000000  0.5214480000000 1.0
C      1  0.4390790000000  0.5022130000000  0.4762390000000 1.0
END
