TITL C-612601-4209-1019 -8775.03622792878 125000 -986.339311646876 0 0 159 (C1) n - 1
REM
REM in /home/nfs/bkarasulu/CARBON/AIRSS/Generating-Clusters/TERSOFF/Only-C1/FIRE-HFTN
REM
REM
REM
REM
REM
REM ./C.cell (11c1c37f851c82e70ff6c80c92926a4b)
REM AIRSS Version 0.9.1 bugfix July 2018 build 013d7b7c2542+ Fri, 06 Jul 2018 19:26:36 +0100
REM compiler GCC version 9.2.1 20190827 (Red Hat 9.2.1-1)
REM options -cpp -mtune=generic -march=x86-64 -g -O0 -fpre-include=/usr/include/finclude/math-vector-fortran.h
REM seed -1449040870 -2069486026 1428057677 896244193 -461167783 1183901881 1125910329 -1947771856 -989544475 302244050 -577577842 1866414884 1769170597 893297338 -339566472 1497291113 1507927555 -818466578 -1885259063 -1001913149 -944561891 1175475552 580524562 -160373780 -29195637 1652843499 -189704648 -921591251 985256134 1670652231 -799625091 -595708773 340637566
REM
CELL 1.54180   50.00000   50.00000   50.00000   90.00000   90.00000   90.00000
LATT -1
SFAC C  
C      1  0.4860920000000  0.4437090000000  0.4797280000000 1.0
C      1  0.4522450000000  0.5994160000000  0.4374410000000 1.0
C      1  0.4724570000000  0.5031320000000  0.4544100000000 1.0
C      1  0.4557560000000  0.4115360000000  0.4526050000000 1.0
C      1  0.5818400000000  0.4234160000000  0.4469390000000 1.0
C      1  0.5246390000000  0.6193870000000  0.4527790000000 1.0
C      1  0.5144290000000  0.4686790000000  0.5076610000000 1.0
C      1  0.5910570000000  0.5270510000000  0.5742760000000 1.0
C      1  0.5126600000000  0.3784850000000  0.5921100000000 1.0
C      1  0.3914960000000  0.5397390000000  0.4733710000000 1.0
C      1  0.5725220000000  0.6043070000000  0.5108580000000 1.0
C      1  0.5281090000000  0.6207960000000  0.4833830000000 1.0
C      1  0.5178990000000  0.5507920000000  0.4549830000000 1.0
C      1  0.4710090000000  0.5745340000000  0.4727890000000 1.0
C      1  0.5273520000000  0.5558300000000  0.5267490000000 1.0
C      1  0.3958540000000  0.4938620000000  0.5341640000000 1.0
C      1  0.4622200000000  0.4024370000000  0.4993500000000 1.0
C      1  0.4720360000000  0.3916240000000  0.5628920000000 1.0
C      1  0.4189240000000  0.5113720000000  0.5728800000000 1.0
C      1  0.4691100000000  0.4830890000000  0.5859630000000 1.0
C      1  0.4380140000000  0.5426810000000  0.4596660000000 1.0
C      1  0.4946220000000  0.5268060000000  0.5677470000000 1.0
C      1  0.4722530000000  0.5314740000000  0.5865420000000 1.0
C      1  0.5667990000000  0.5578010000000  0.4834480000000 1.0
C      1  0.5590740000000  0.3998070000000  0.6143830000000 1.0
C      1  0.5744620000000  0.5663250000000  0.5975340000000 1.0
C      1  0.5744810000000  0.4196420000000  0.6025610000000 1.0
C      1  0.5781720000000  0.4498680000000  0.4386580000000 1.0
C      1  0.4171260000000  0.4116350000000  0.4846280000000 1.0
C      1  0.5437980000000  0.5335830000000  0.5285500000000 1.0
C      1  0.4706040000000  0.4131460000000  0.4072900000000 1.0
C      1  0.5212490000000  0.4258380000000  0.4146620000000 1.0
C      1  0.5495450000000  0.6038690000000  0.4937410000000 1.0
C      1  0.5350790000000  0.5964230000000  0.4093950000000 1.0
C      1  0.4464180000000  0.6103740000000  0.4646840000000 1.0
C      1  0.5699920000000  0.4005580000000  0.4581490000000 1.0
C      1  0.5425790000000  0.4076750000000  0.5721680000000 1.0
C      1  0.6104930000000  0.4883040000000  0.4448880000000 1.0
C      1  0.4338770000000  0.5805420000000  0.4245410000000 1.0
C      1  0.5450600000000  0.5766430000000  0.4856360000000 1.0
C      1  0.4056900000000  0.4362820000000  0.4936820000000 1.0
C      1  0.5919840000000  0.5296420000000  0.5191600000000 1.0
C      1  0.4763300000000  0.4308550000000  0.4568220000000 1.0
C      1  0.5167870000000  0.5667810000000  0.4801780000000 1.0
C      1  0.4953410000000  0.4889170000000  0.4627540000000 1.0
C      1  0.3842150000000  0.4700820000000  0.5228400000000 1.0
C      1  0.5092240000000  0.5515380000000  0.5051470000000 1.0
C      1  0.5157120000000  0.4409440000000  0.4917950000000 1.0
C      1  0.4011930000000  0.4464460000000  0.5208270000000 1.0
C      1  0.5636990000000  0.4869760000000  0.5666520000000 1.0
C      1  0.4995490000000  0.3879950000000  0.5679050000000 1.0
C      1  0.4566470000000  0.4260960000000  0.5147820000000 1.0
C      1  0.4512900000000  0.4039810000000  0.4257040000000 1.0
C      1  0.4492920000000  0.4738510000000  0.5018980000000 1.0
C      1  0.4757180000000  0.6146860000000  0.5087300000000 1.0
C      1  0.4651310000000  0.4497130000000  0.5005610000000 1.0
C      1  0.4973120000000  0.4870080000000  0.4907500000000 1.0
C      1  0.4934250000000  0.5732400000000  0.4197050000000 1.0
C      1  0.5781570000000  0.4677780000000  0.5501210000000 1.0
C      1  0.4963940000000  0.4820340000000  0.5762700000000 1.0
C      1  0.4613700000000  0.5491590000000  0.5073850000000 1.0
C      1  0.4096700000000  0.5738820000000  0.4390000000000 1.0
C      1  0.5676070000000  0.5459550000000  0.4584250000000 1.0
C      1  0.5519400000000  0.4611350000000  0.4351190000000 1.0
C      1  0.4945850000000  0.5510040000000  0.4387180000000 1.0
C      1  0.5845820000000  0.5552800000000  0.5061360000000 1.0
C      1  0.5507820000000  0.4941100000000  0.4764620000000 1.0
C      1  0.5382890000000  0.4973670000000  0.5569100000000 1.0
C      1  0.5381750000000  0.3907860000000  0.5968970000000 1.0
C      1  0.4901020000000  0.3966260000000  0.5000880000000 1.0
C      1  0.3868860000000  0.5261340000000  0.4959900000000 1.0
C      1  0.5196800000000  0.4054110000000  0.5552520000000 1.0
C      1  0.4483570000000  0.6083130000000  0.4946190000000 1.0
C      1  0.4084900000000  0.3745520000000  0.4115000000000 1.0
C      1  0.5885830000000  0.5026250000000  0.5078820000000 1.0
C      1  0.5823100000000  0.4770000000000  0.5224330000000 1.0
C      1  0.5876170000000  0.5819870000000  0.5173460000000 1.0
C      1  0.6011830000000  0.4653350000000  0.4349900000000 1.0
C      1  0.4611700000000  0.5875900000000  0.5445670000000 1.0
C      1  0.4313740000000  0.5091380000000  0.5984240000000 1.0
C      1  0.4868310000000  0.5340120000000  0.5123970000000 1.0
C      1  0.5487150000000  0.3903440000000  0.4430750000000 1.0
C      1  0.4581280000000  0.4962680000000  0.5166250000000 1.0
C      1  0.4109330000000  0.4885440000000  0.5582890000000 1.0
C      1  0.3328610000000  0.4691840000000  0.5064700000000 1.0
C      1  0.5657080000000  0.4253440000000  0.5755940000000 1.0
C      1  0.4801450000000  0.6063910000000  0.5362150000000 1.0
C      1  0.4550160000000  0.5144150000000  0.5398000000000 1.0
C      1  0.4950840000000  0.4235320000000  0.4045400000000 1.0
C      1  0.4631380000000  0.4354920000000  0.5793200000000 1.0
C      1  0.5672730000000  0.4171500000000  0.5054190000000 1.0
C      1  0.4294120000000  0.3887250000000  0.4178670000000 1.0
C      1  0.5763710000000  0.5309910000000  0.4162000000000 1.0
C      1  0.4544190000000  0.5533800000000  0.4803930000000 1.0
C      1  0.6202800000000  0.5527590000000  0.6030800000000 1.0
C      1  0.5177270000000  0.5742790000000  0.4037390000000 1.0
C      1  0.5403330000000  0.6141920000000  0.4295870000000 1.0
C      1  0.5608050000000  0.4630930000000  0.5084160000000 1.0
C      1  0.4290750000000  0.4764020000000  0.4822830000000 1.0
C      1  0.3968110000000  0.5207420000000  0.5218970000000 1.0
C      1  0.5971510000000  0.5302090000000  0.5470110000000 1.0
C      1  0.5869580000000  0.5308010000000  0.4434510000000 1.0
C      1  0.4141890000000  0.5699310000000  0.5207100000000 1.0
C      1  0.5067020000000  0.6002280000000  0.5445990000000 1.0
C      1  0.5826060000000  0.4953350000000  0.6104220000000 1.0
C      1  0.5489370000000  0.5399460000000  0.4153490000000 1.0
C      1  0.5149910000000  0.4927390000000  0.4416110000000 1.0
C      1  0.5274660000000  0.5470660000000  0.3984370000000 1.0
C      1  0.4595820000000  0.5498050000000  0.3886530000000 1.0
C      1  0.5537970000000  0.5813110000000  0.6027890000000 1.0
C      1  0.5235560000000  0.5792480000000  0.5418890000000 1.0
C      1  0.3575110000000  0.4693050000000  0.5149200000000 1.0
C      1  0.5410390000000  0.4837290000000  0.4501420000000 1.0
C      1  0.4264620000000  0.5919090000000  0.5080350000000 1.0
C      1  0.4785320000000  0.5251850000000  0.4351090000000 1.0
C      1  0.5721110000000  0.3975820000000  0.4860240000000 1.0
C      1  0.4434900000000  0.4025930000000  0.4770750000000 1.0
C      1  0.4101910000000  0.4581700000000  0.4759330000000 1.0
C      1  0.4914090000000  0.4372610000000  0.5818080000000 1.0
C      1  0.5320330000000  0.4026320000000  0.4262240000000 1.0
C      1  0.5404800000000  0.4849810000000  0.5052700000000 1.0
C      1  0.5371190000000  0.4635590000000  0.3891700000000 1.0
C      1  0.4962070000000  0.5891560000000  0.4747490000000 1.0
C      1  0.4504840000000  0.4616020000000  0.5778890000000 1.0
C      1  0.5802110000000  0.4216380000000  0.5303450000000 1.0
C      1  0.5363040000000  0.4502120000000  0.4132440000000 1.0
C      1  0.4108650000000  0.5520910000000  0.4575050000000 1.0
C      1  0.5431370000000  0.5458090000000  0.4435550000000 1.0
C      1  0.5005010000000  0.6123310000000  0.4937600000000 1.0
C      1  0.5040170000000  0.4573500000000  0.5659840000000 1.0
C      1  0.5404080000000  0.5056960000000  0.5290930000000 1.0
C      1  0.5791280000000  0.5030490000000  0.5843980000000 1.0
C      1  0.5128660000000  0.5042930000000  0.5701620000000 1.0
C      1  0.4261440000000  0.4642340000000  0.5613200000000 1.0
C      1  0.4804260000000  0.5969520000000  0.4299520000000 1.0
C      1  0.4990160000000  0.6057080000000  0.4494990000000 1.0
C      1  0.5517060000000  0.4391730000000  0.4973860000000 1.0
C      1  0.5770400000000  0.4386420000000  0.5534410000000 1.0
C      1  0.4822180000000  0.5283730000000  0.5421660000000 1.0
C      1  0.4599200000000  0.5073590000000  0.5975500000000 1.0
C      1  0.5100050000000  0.4155830000000  0.5079080000000 1.0
C      1  0.5795030000000  0.5017530000000  0.4801610000000 1.0
C      1  0.4551690000000  0.4144590000000  0.5618390000000 1.0
C      1  0.5956010000000  0.5489040000000  0.5919240000000 1.0
C      1  0.4822550000000  0.5063450000000  0.5036220000000 1.0
C      1  0.4507510000000  0.5373810000000  0.4338250000000 1.0
C      1  0.4325230000000  0.5316540000000  0.5545600000000 1.0
C      1  0.4208080000000  0.4431760000000  0.5418230000000 1.0
C      1  0.4562430000000  0.5661150000000  0.5293260000000 1.0
C      1  0.5144820000000  0.4236350000000  0.5348390000000 1.0
C      1  0.4459730000000  0.5565090000000  0.4127000000000 1.0
C      1  0.4420830000000  0.4244600000000  0.5386920000000 1.0
C      1  0.4129760000000  0.5427510000000  0.5334240000000 1.0
C      1  0.4504960000000  0.5474650000000  0.5745830000000 1.0
C      1  0.5020870000000  0.5096630000000  0.4194180000000 1.0
C      1  0.5958090000000  0.5082730000000  0.4575840000000 1.0
C      1  0.5063560000000  0.5270090000000  0.3955280000000 1.0
C      1  0.4822060000000  0.5358350000000  0.3824490000000 1.0
C      1  0.5114570000000  0.4521750000000  0.5393360000000 1.0
END
