TITL C-612605-9286-1014 4.80702420876041e-05 125000 -357.761909143756 0 0 58 (C1) n - 1
REM
REM in /home/nfs/bkarasulu/CARBON/AIRSS/Generating-Clusters/TERSOFF/Only-C1/FIRE-HFTN
REM
REM
REM
REM
REM
REM ./C.cell (11c1c37f851c82e70ff6c80c92926a4b)
REM AIRSS Version 0.9.1 bugfix July 2018 build 013d7b7c2542+ Fri, 06 Jul 2018 19:26:36 +0100
REM compiler GCC version 9.2.1 20190827 (Red Hat 9.2.1-1)
REM options -cpp -mtune=generic -march=x86-64 -g -O0 -fpre-include=/usr/include/finclude/math-vector-fortran.h
REM seed -1870956120 -355193495 477491038 517684272 -1591073306 416557153 -1432442955 -424402926 1009423741 -1516192999 2085380441 -130343021 -2034856782 1259358152 979256445 -1353986098 -656214911 2134107118 576383711 -1499318966 -967164852 -1810188257 1190203120 1729215183 1707710629 1239008487 552997688 -1887154375 -921466338 1043807989 1634361185 1613259191 791061294
REM
CELL 1.54180   50.00000   50.00000   50.00000   90.00000   90.00000   90.00000
LATT -1
SFAC C  
C      1  0.5010030000000  0.5359900000000  0.4756390000000 1.0
C      1  0.4489000000000  0.5143680000000  0.4945630000000 1.0
C      1  0.5070810000000  0.4616860000000  0.5832530000000 1.0
C      1  0.5317330000000  0.4516170000000  0.5722020000000 1.0
C      1  0.4599660000000  0.5205680000000  0.3919420000000 1.0
C      1  0.5021830000000  0.4887150000000  0.4442090000000 1.0
C      1  0.5262230000000  0.4261900000000  0.5591310000000 1.0
C      1  0.5157190000000  0.4801430000000  0.4671560000000 1.0
C      1  0.4874310000000  0.4995240000000  0.5558390000000 1.0
C      1  0.4295640000000  0.5693010000000  0.4286450000000 1.0
C      1  0.5152320000000  0.4181580000000  0.5123590000000 1.0
C      1  0.5486900000000  0.5176560000000  0.5520810000000 1.0
C      1  0.4260720000000  0.5546690000000  0.4066100000000 1.0
C      1  0.5293440000000  0.5380760000000  0.5138550000000 1.0
C      1  0.5060490000000  0.5303370000000  0.4031990000000 1.0
C      1  0.5213690000000  0.5514040000000  0.4087340000000 1.0
C      1  0.4800290000000  0.4998560000000  0.4311630000000 1.0
C      1  0.5454710000000  0.5824720000000  0.4915870000000 1.0
C      1  0.4767310000000  0.5501820000000  0.4776410000000 1.0
C      1  0.5545580000000  0.4378930000000  0.4946420000000 1.0
C      1  0.4437620000000  0.5053490000000  0.4685120000000 1.0
C      1  0.4634720000000  0.5508820000000  0.5242690000000 1.0
C      1  0.5200640000000  0.5869980000000  0.4468650000000 1.0
C      1  0.4593830000000  0.5408460000000  0.4982290000000 1.0
C      1  0.4803510000000  0.4085030000000  0.5471160000000 1.0
C      1  0.5600760000000  0.4261000000000  0.5203000000000 1.0
C      1  0.5385260000000  0.5915330000000  0.4674540000000 1.0
C      1  0.5252630000000  0.5279040000000  0.5403440000000 1.0
C      1  0.4531840000000  0.4107720000000  0.5549120000000 1.0
C      1  0.5564090000000  0.4623240000000  0.5759080000000 1.0
C      1  0.5128160000000  0.4533250000000  0.4754340000000 1.0
C      1  0.4614100000000  0.4449450000000  0.5882640000000 1.0
C      1  0.5322320000000  0.4981290000000  0.4826840000000 1.0
C      1  0.5257230000000  0.4334640000000  0.4902680000000 1.0
C      1  0.4627280000000  0.4737070000000  0.5891980000000 1.0
C      1  0.4536340000000  0.4960110000000  0.5152570000000 1.0
C      1  0.5722180000000  0.5005180000000  0.5126790000000 1.0
C      1  0.4802680000000  0.5456780000000  0.5446280000000 1.0
C      1  0.4461100000000  0.5752450000000  0.4486470000000 1.0
C      1  0.4992340000000  0.4178740000000  0.5668270000000 1.0
C      1  0.4884860000000  0.4837920000000  0.5793040000000 1.0
C      1  0.5653680000000  0.4619520000000  0.4854580000000 1.0
C      1  0.4441110000000  0.4277080000000  0.5742290000000 1.0
C      1  0.5580280000000  0.4885770000000  0.4915490000000 1.0
C      1  0.4926820000000  0.5885360000000  0.4531990000000 1.0
C      1  0.5697260000000  0.5079020000000  0.5383340000000 1.0
C      1  0.4828260000000  0.5151500000000  0.4073320000000 1.0
C      1  0.4697860000000  0.4902740000000  0.5356610000000 1.0
C      1  0.5269520000000  0.5727460000000  0.4237080000000 1.0
C      1  0.5413160000000  0.5631030000000  0.5094500000000 1.0
C      1  0.4989200000000  0.5251420000000  0.5505580000000 1.0
C      1  0.4902100000000  0.4084100000000  0.5206170000000 1.0
C      1  0.5213560000000  0.5234500000000  0.4905420000000 1.0
C      1  0.4380210000000  0.5357990000000  0.3919630000000 1.0
C      1  0.4710660000000  0.5723500000000  0.4609040000000 1.0
C      1  0.5357920000000  0.4189890000000  0.5337670000000 1.0
C      1  0.4894680000000  0.4373170000000  0.5859240000000 1.0
C      1  0.4556710000000  0.4998960000000  0.4452560000000 1.0
END
