TITL C-612606-7351-598 4.69845256067931 125000 -1208.12335236665 0 0 199 (C1) n - 1
REM
REM in /home/nfs/bkarasulu/CARBON/AIRSS/Generating-Clusters/TERSOFF/Only-C1/FIRE-HFTN
REM
REM
REM
REM
REM
REM ./C.cell (11c1c37f851c82e70ff6c80c92926a4b)
REM AIRSS Version 0.9.1 bugfix July 2018 build 013d7b7c2542+ Fri, 06 Jul 2018 19:26:36 +0100
REM compiler GCC version 9.2.1 20190827 (Red Hat 9.2.1-1)
REM options -cpp -mtune=generic -march=x86-64 -g -O0 -fpre-include=/usr/include/finclude/math-vector-fortran.h
REM seed 1348151776 1478596948 -1869190820 -754725918 -399056491 -330651721 -1568461786 -708662979 -1049132073 -1345998258 -1022572020 682941216 1138111433 -2094085669 -1601345231 484558088 1806315437 -594982174 957572738 549720999 426009562 100091398 -761295086 -1251108632 -1083018012 -101228761 -1315621637 -1855528209 -133915740 -759557058 747186369 728790474 -350902487
REM
CELL 1.54180   50.00000   50.00000   50.00000   90.00000   90.00000   90.00000
LATT -1
SFAC C  
C      1  0.6016880000000  0.5608520000000  0.5238950000000 1.0
C      1  0.3790070000000  0.5439200000000  0.4068870000000 1.0
C      1  0.5040370000000  0.6173680000000  0.5740660000000 1.0
C      1  0.5534710000000  0.4478190000000  0.3961810000000 1.0
C      1  0.5112480000000  0.4859410000000  0.5911380000000 1.0
C      1  0.5229390000000  0.4639880000000  0.4347790000000 1.0
C      1  0.5238040000000  0.4632440000000  0.5031470000000 1.0
C      1  0.5951080000000  0.4147240000000  0.4943410000000 1.0
C      1  0.5033700000000  0.4148200000000  0.4829910000000 1.0
C      1  0.4721770000000  0.6335440000000  0.4921520000000 1.0
C      1  0.4502790000000  0.3963920000000  0.5799120000000 1.0
C      1  0.5303680000000  0.6103390000000  0.4831420000000 1.0
C      1  0.4563620000000  0.4816700000000  0.5535450000000 1.0
C      1  0.3993040000000  0.4648080000000  0.4490210000000 1.0
C      1  0.4840390000000  0.4825900000000  0.3806470000000 1.0
C      1  0.5390220000000  0.5328440000000  0.5370820000000 1.0
C      1  0.5026740000000  0.5817750000000  0.4295880000000 1.0
C      1  0.4866880000000  0.5228200000000  0.4307920000000 1.0
C      1  0.3392260000000  0.5153230000000  0.5431560000000 1.0
C      1  0.4717770000000  0.5360180000000  0.5478880000000 1.0
C      1  0.4774280000000  0.5325990000000  0.3757610000000 1.0
C      1  0.4855410000000  0.6262000000000  0.5162910000000 1.0
C      1  0.3808840000000  0.4962040000000  0.4882630000000 1.0
C      1  0.5473700000000  0.5097200000000  0.3849070000000 1.0
C      1  0.4753940000000  0.5985330000000  0.6106880000000 1.0
C      1  0.4936500000000  0.4670210000000  0.6047470000000 1.0
C      1  0.4663940000000  0.5056290000000  0.3831570000000 1.0
C      1  0.4508160000000  0.5067850000000  0.6248310000000 1.0
C      1  0.3561810000000  0.5006140000000  0.5299190000000 1.0
C      1  0.4767730000000  0.4983820000000  0.4938010000000 1.0
C      1  0.4056180000000  0.5468720000000  0.4134520000000 1.0
C      1  0.4520630000000  0.4421080000000  0.5897690000000 1.0
C      1  0.5741150000000  0.4669820000000  0.5998940000000 1.0
C      1  0.5301850000000  0.4346780000000  0.4351550000000 1.0
C      1  0.4918580000000  0.5173100000000  0.5370130000000 1.0
C      1  0.3712580000000  0.5806590000000  0.5064130000000 1.0
C      1  0.4439490000000  0.4553260000000  0.4175680000000 1.0
C      1  0.5523970000000  0.4845680000000  0.5536380000000 1.0
C      1  0.3812570000000  0.4761620000000  0.4678610000000 1.0
C      1  0.5459310000000  0.5515460000000  0.5142890000000 1.0
C      1  0.5470320000000  0.4030770000000  0.5613340000000 1.0
C      1  0.5360950000000  0.4421700000000  0.6209890000000 1.0
C      1  0.6412460000000  0.5014550000000  0.5007790000000 1.0
C      1  0.4157340000000  0.4265720000000  0.5558480000000 1.0
C      1  0.5172350000000  0.5104730000000  0.6042810000000 1.0
C      1  0.6044860000000  0.4313750000000  0.5411290000000 1.0
C      1  0.4550040000000  0.5310450000000  0.6347680000000 1.0
C      1  0.5314410000000  0.6286650000000  0.5046960000000 1.0
C      1  0.4805980000000  0.4614710000000  0.4517050000000 1.0
C      1  0.5272820000000  0.5730990000000  0.5126800000000 1.0
C      1  0.4385850000000  0.5833210000000  0.4736480000000 1.0
C      1  0.4670950000000  0.5814780000000  0.6294080000000 1.0
C      1  0.4719430000000  0.6004460000000  0.5203190000000 1.0
C      1  0.4372930000000  0.4217640000000  0.5762450000000 1.0
C      1  0.5825020000000  0.5406700000000  0.4201140000000 1.0
C      1  0.5452580000000  0.5069080000000  0.4829130000000 1.0
C      1  0.5280460000000  0.4791960000000  0.5685000000000 1.0
C      1  0.5500110000000  0.4071010000000  0.4737930000000 1.0
C      1  0.5063620000000  0.4436510000000  0.4894050000000 1.0
C      1  0.5436330000000  0.4522290000000  0.5198820000000 1.0
C      1  0.5191710000000  0.5518090000000  0.5524920000000 1.0
C      1  0.4235760000000  0.5855610000000  0.4491360000000 1.0
C      1  0.5782510000000  0.5138030000000  0.4263750000000 1.0
C      1  0.4403090000000  0.5035800000000  0.3980190000000 1.0
C      1  0.6112750000000  0.4770460000000  0.5554620000000 1.0
C      1  0.4924250000000  0.5158680000000  0.4770100000000 1.0
C      1  0.4777410000000  0.4074190000000  0.4675720000000 1.0
C      1  0.5437410000000  0.4263440000000  0.4117980000000 1.0
C      1  0.5074510000000  0.5241690000000  0.4104340000000 1.0
C      1  0.5505510000000  0.5050820000000  0.4341700000000 1.0
C      1  0.5874430000000  0.5767750000000  0.5402660000000 1.0
C      1  0.4019520000000  0.5477980000000  0.4888950000000 1.0
C      1  0.5228990000000  0.6178520000000  0.5525140000000 1.0
C      1  0.5676450000000  0.5046920000000  0.5669470000000 1.0
C      1  0.4473660000000  0.4575750000000  0.5049350000000 1.0
C      1  0.4067270000000  0.4048800000000  0.5382420000000 1.0
C      1  0.5959170000000  0.4697400000000  0.4337630000000 1.0
C      1  0.5266300000000  0.4942180000000  0.5026770000000 1.0
C      1  0.4822990000000  0.4207310000000  0.4181340000000 1.0
C      1  0.5788910000000  0.4447480000000  0.5806960000000 1.0
C      1  0.4610970000000  0.5366520000000  0.4374290000000 1.0
C      1  0.5249910000000  0.3827720000000  0.5637600000000 1.0
C      1  0.5888260000000  0.4764170000000  0.4862510000000 1.0
C      1  0.4690190000000  0.6518690000000  0.4732820000000 1.0
C      1  0.4301710000000  0.5052620000000  0.5009160000000 1.0
C      1  0.4027770000000  0.4173800000000  0.4655830000000 1.0
C      1  0.6255300000000  0.5303010000000  0.4602100000000 1.0
C      1  0.5321630000000  0.3890420000000  0.5162970000000 1.0
C      1  0.4532080000000  0.4382020000000  0.5241010000000 1.0
C      1  0.3947530000000  0.5213020000000  0.4797130000000 1.0
C      1  0.5087400000000  0.4492560000000  0.6211330000000 1.0
C      1  0.3764500000000  0.4869220000000  0.5158930000000 1.0
C      1  0.5305260000000  0.4597890000000  0.3822490000000 1.0
C      1  0.4594050000000  0.5445930000000  0.5011710000000 1.0
C      1  0.5472690000000  0.6018360000000  0.5566380000000 1.0
C      1  0.5859970000000  0.4795230000000  0.3829190000000 1.0
C      1  0.5591340000000  0.4286150000000  0.5212790000000 1.0
C      1  0.4598820000000  0.5547620000000  0.3735130000000 1.0
C      1  0.6149700000000  0.4997830000000  0.5405200000000 1.0
C      1  0.4441170000000  0.3963350000000  0.5060010000000 1.0
C      1  0.4123150000000  0.5694640000000  0.4301340000000 1.0
C      1  0.5472490000000  0.5510900000000  0.5988450000000 1.0
C      1  0.4761520000000  0.3975950000000  0.5415670000000 1.0
C      1  0.4219270000000  0.5110230000000  0.5283350000000 1.0
C      1  0.4401780000000  0.5314300000000  0.4592910000000 1.0
C      1  0.5887550000000  0.4336940000000  0.5160590000000 1.0
C      1  0.4955330000000  0.5052440000000  0.4507060000000 1.0
C      1  0.5431610000000  0.5733720000000  0.3997040000000 1.0
C      1  0.6233610000000  0.5115160000000  0.4410930000000 1.0
C      1  0.5181280000000  0.5853350000000  0.4897160000000 1.0
C      1  0.5786100000000  0.4938990000000  0.5908720000000 1.0
C      1  0.4787210000000  0.4674480000000  0.5516930000000 1.0
C      1  0.5011170000000  0.3839940000000  0.5790640000000 1.0
C      1  0.3874040000000  0.3880110000000  0.5485190000000 1.0
C      1  0.5662070000000  0.5796990000000  0.5592300000000 1.0
C      1  0.4373260000000  0.5545010000000  0.4815250000000 1.0
C      1  0.6315540000000  0.4637790000000  0.4687320000000 1.0
C      1  0.5007090000000  0.5683800000000  0.4750930000000 1.0
C      1  0.5565890000000  0.4618640000000  0.6216950000000 1.0
C      1  0.3911950000000  0.5623810000000  0.5099200000000 1.0
C      1  0.5095370000000  0.5722320000000  0.5346330000000 1.0
C      1  0.6456900000000  0.4803460000000  0.4847510000000 1.0
C      1  0.4749260000000  0.5802970000000  0.5659470000000 1.0
C      1  0.4181980000000  0.4421650000000  0.4587890000000 1.0
C      1  0.4519860000000  0.5477980000000  0.5303640000000 1.0
C      1  0.4058700000000  0.4791870000000  0.4253190000000 1.0
C      1  0.5424640000000  0.6150430000000  0.4585250000000 1.0
C      1  0.4218320000000  0.5111620000000  0.4732480000000 1.0
C      1  0.4838960000000  0.4559200000000  0.4783000000000 1.0
C      1  0.4193180000000  0.4804900000000  0.5974490000000 1.0
C      1  0.6036180000000  0.4654310000000  0.4628030000000 1.0
C      1  0.5269490000000  0.3990690000000  0.4897100000000 1.0
C      1  0.4958990000000  0.4478200000000  0.5505900000000 1.0
C      1  0.5790120000000  0.4611100000000  0.4035960000000 1.0
C      1  0.5110150000000  0.5649420000000  0.4491800000000 1.0
C      1  0.5059210000000  0.5470770000000  0.5774010000000 1.0
C      1  0.5595250000000  0.5820000000000  0.4222190000000 1.0
C      1  0.5316000000000  0.5461270000000  0.4505140000000 1.0
C      1  0.4562940000000  0.5146780000000  0.5011110000000 1.0
C      1  0.4160180000000  0.3991060000000  0.5111920000000 1.0
C      1  0.5609930000000  0.5307330000000  0.5580470000000 1.0
C      1  0.4541120000000  0.5688420000000  0.3959620000000 1.0
C      1  0.4582860000000  0.3917770000000  0.4820000000000 1.0
C      1  0.4903110000000  0.4365500000000  0.3976230000000 1.0
C      1  0.5625170000000  0.4720650000000  0.5299220000000 1.0
C      1  0.4001550000000  0.4029670000000  0.4882000000000 1.0
C      1  0.4601410000000  0.5570060000000  0.6371790000000 1.0
C      1  0.5725130000000  0.4992480000000  0.4848350000000 1.0
C      1  0.4594270000000  0.4111100000000  0.5244560000000 1.0
C      1  0.5333320000000  0.5115740000000  0.4097330000000 1.0
C      1  0.6219700000000  0.5150580000000  0.5168350000000 1.0
C      1  0.4755410000000  0.3902240000000  0.5686780000000 1.0
C      1  0.4246450000000  0.5392230000000  0.5349850000000 1.0
C      1  0.5214030000000  0.3717160000000  0.5365160000000 1.0
C      1  0.4786840000000  0.5519320000000  0.5710960000000 1.0
C      1  0.5409780000000  0.5209070000000  0.4580680000000 1.0
C      1  0.5465570000000  0.4305460000000  0.4585650000000 1.0
C      1  0.4868230000000  0.5452310000000  0.4853790000000 1.0
C      1  0.4335690000000  0.4938070000000  0.5471830000000 1.0
C      1  0.5129760000000  0.6279310000000  0.5263260000000 1.0
C      1  0.5186560000000  0.5117570000000  0.5259930000000 1.0
C      1  0.4043350000000  0.4685120000000  0.5784880000000 1.0
C      1  0.5618320000000  0.5549930000000  0.5745050000000 1.0
C      1  0.6010930000000  0.4979860000000  0.4304010000000 1.0
C      1  0.4696780000000  0.4716660000000  0.4953680000000 1.0
C      1  0.4997040000000  0.4783670000000  0.4414220000000 1.0
C      1  0.4424540000000  0.4366990000000  0.4399540000000 1.0
C      1  0.5583930000000  0.4566090000000  0.4611070000000 1.0
C      1  0.5219780000000  0.5375190000000  0.5982110000000 1.0
C      1  0.4276630000000  0.4526310000000  0.4857460000000 1.0
C      1  0.5905840000000  0.5629930000000  0.4614970000000 1.0
C      1  0.4023120000000  0.4529770000000  0.5544380000000 1.0
C      1  0.6103690000000  0.5403970000000  0.5060680000000 1.0
C      1  0.5588860000000  0.4212060000000  0.5810830000000 1.0
C      1  0.4571080000000  0.5600170000000  0.4213150000000 1.0
C      1  0.4668330000000  0.4195400000000  0.4424350000000 1.0
C      1  0.6087030000000  0.5460000000000  0.4769920000000 1.0
C      1  0.3900820000000  0.4658910000000  0.5311430000000 1.0
C      1  0.5225430000000  0.5613670000000  0.3860650000000 1.0
C      1  0.4646560000000  0.4645170000000  0.6021680000000 1.0
C      1  0.5865010000000  0.4645210000000  0.5122070000000 1.0
C      1  0.5496600000000  0.4058220000000  0.5326470000000 1.0
C      1  0.4839760000000  0.5839590000000  0.5388200000000 1.0
C      1  0.4451440000000  0.4846250000000  0.6089610000000 1.0
C      1  0.5028470000000  0.5402850000000  0.3876510000000 1.0
C      1  0.4026710000000  0.5569150000000  0.5354890000000 1.0
C      1  0.5769300000000  0.4007320000000  0.4797730000000 1.0
C      1  0.6005360000000  0.4505360000000  0.5617270000000 1.0
C      1  0.4237170000000  0.5269290000000  0.4030470000000 1.0
C      1  0.5446570000000  0.4197600000000  0.6061510000000 1.0
C      1  0.5531220000000  0.6055450000000  0.4360570000000 1.0
C      1  0.3932350000000  0.5677190000000  0.5586760000000 1.0
C      1  0.5475430000000  0.4767100000000  0.4432320000000 1.0
C      1  0.4529800000000  0.6010720000000  0.4900940000000 1.0
C      1  0.5014800000000  0.4599790000000  0.3851670000000 1.0
C      1  0.5698980000000  0.4994990000000  0.3742610000000 1.0
C      1  0.4306820000000  0.4794650000000  0.4111320000000 1.0
C      1  0.4833690000000  0.6006670000000  0.5840440000000 1.0
C      1  0.5786820000000  0.5642850000000  0.4348460000000 1.0
END
