TITL C-612606-7351-391 44948.1407076346 125000 -906.754752704941 0 0 149 (C1) n - 1
REM
REM in /home/nfs/bkarasulu/CARBON/AIRSS/Generating-Clusters/TERSOFF/Only-C1/FIRE-HFTN
REM
REM
REM
REM
REM
REM ./C.cell (11c1c37f851c82e70ff6c80c92926a4b)
REM AIRSS Version 0.9.1 bugfix July 2018 build 013d7b7c2542+ Fri, 06 Jul 2018 19:26:36 +0100
REM compiler GCC version 9.2.1 20190827 (Red Hat 9.2.1-1)
REM options -cpp -mtune=generic -march=x86-64 -g -O0 -fpre-include=/usr/include/finclude/math-vector-fortran.h
REM seed 842377817 -172640811 -927959135 1729456269 -1535354019 -1665039537 84926482 -1271102257 -752321727 -1580629897 2013557773 744914907 497093932 -1188950592 816822514 1542398203 -98024909 1230156947 2073535489 1219385252 843111419 -1947721117 655739705 840404014 -480444877 1899181470 1675416656 -1856462687 417777634 -2047716357 -387686582 -2110833540 -615551088
REM
CELL 1.54180   50.00000   50.00000   50.00000   90.00000   90.00000   90.00000
LATT -1
SFAC C  
C      1  0.5261630000000  0.5580570000000  0.5874000000000 1.0
C      1  0.5329920000000  0.5458560000000  0.5070680000000 1.0
C      1  0.4425040000000  0.4812470000000  0.5173990000000 1.0
C      1  0.4764110000000  0.5380620000000  0.5197030000000 1.0
C      1  0.5490630000000  0.5034780000000  0.4534600000000 1.0
C      1  0.4068150000000  0.5274840000000  0.4353220000000 1.0
C      1  0.5332220000000  0.5280180000000  0.4070330000000 1.0
C      1  0.5909620000000  0.4711540000000  0.5547930000000 1.0
C      1  0.5643550000000  0.5076280000000  0.4758960000000 1.0
C      1  0.4559750000000  0.5572890000000  0.5884950000000 1.0
C      1  0.4692160000000  0.4832970000000  0.5247050000000 1.0
C      1  0.4257280000000  0.5205060000000  0.4160050000000 1.0
C      1  0.5357800000000  0.3315960000000  0.5036080000000 1.0
C      1  0.4861980000000  0.4981100000000  0.5674480000000 1.0
C      1  0.4253610000000  0.5034160000000  0.5161270000000 1.0
C      1  0.4949880000000  0.4138210000000  0.5084910000000 1.0
C      1  0.6032460000000  0.5210700000000  0.4974940000000 1.0
C      1  0.5025230000000  0.5131220000000  0.5501140000000 1.0
C      1  0.5145940000000  0.4229110000000  0.4379900000000 1.0
C      1  0.5591570000000  0.4625620000000  0.4369210000000 1.0
C      1  0.4529370000000  0.5162490000000  0.4605290000000 1.0
C      1  0.4391410000000  0.4838040000000  0.4662810000000 1.0
C      1  0.5065630000000  0.5924680000000  0.5230530000000 1.0
C      1  0.4267370000000  0.4666780000000  0.6102060000000 1.0
C      1  0.3991000000000  0.4989720000000  0.5049150000000 1.0
C      1  0.4917190000000  0.5641630000000  0.5560830000000 1.0
C      1  0.4824000000000  0.5875060000000  0.5093540000000 1.0
C      1  0.4806460000000  0.5640600000000  0.4430460000000 1.0
C      1  0.5539560000000  0.4422990000000  0.5287140000000 1.0
C      1  0.4752200000000  0.6021870000000  0.4659510000000 1.0
C      1  0.5177850000000  0.3245150000000  0.5225020000000 1.0
C      1  0.5599570000000  0.5883940000000  0.4977310000000 1.0
C      1  0.4081760000000  0.5601840000000  0.5018750000000 1.0
C      1  0.4494910000000  0.4364710000000  0.5611970000000 1.0
C      1  0.6291180000000  0.5294720000000  0.5022910000000 1.0
C      1  0.4993090000000  0.3412120000000  0.5330260000000 1.0
C      1  0.5531600000000  0.5133070000000  0.6014550000000 1.0
C      1  0.5364910000000  0.4035160000000  0.4775260000000 1.0
C      1  0.5707120000000  0.4532360000000  0.4597990000000 1.0
C      1  0.4496710000000  0.4585430000000  0.4782670000000 1.0
C      1  0.6151590000000  0.5233780000000  0.4325850000000 1.0
C      1  0.4573130000000  0.5971500000000  0.5202250000000 1.0
C      1  0.5308270000000  0.4594330000000  0.5236710000000 1.0
C      1  0.5247210000000  0.5115750000000  0.6031800000000 1.0
C      1  0.5029220000000  0.5176910000000  0.4764650000000 1.0
C      1  0.5400210000000  0.5321410000000  0.5299480000000 1.0
C      1  0.5093950000000  0.5417870000000  0.4132300000000 1.0
C      1  0.4339890000000  0.5672360000000  0.4500160000000 1.0
C      1  0.4360440000000  0.5500340000000  0.4935950000000 1.0
C      1  0.4259050000000  0.4782210000000  0.5849130000000 1.0
C      1  0.5612370000000  0.4972570000000  0.5031740000000 1.0
C      1  0.4236110000000  0.4376360000000  0.5211860000000 1.0
C      1  0.5091640000000  0.5361850000000  0.5981110000000 1.0
C      1  0.5312410000000  0.5545400000000  0.4808310000000 1.0
C      1  0.4868880000000  0.5250070000000  0.4978820000000 1.0
C      1  0.6532760000000  0.5383330000000  0.5064060000000 1.0
C      1  0.4753060000000  0.5005990000000  0.3947600000000 1.0
C      1  0.5889430000000  0.5227730000000  0.4728160000000 1.0
C      1  0.3910450000000  0.5503960000000  0.4806560000000 1.0
C      1  0.4489000000000  0.5467870000000  0.5209280000000 1.0
C      1  0.5182560000000  0.5949700000000  0.4386850000000 1.0
C      1  0.5150190000000  0.5392870000000  0.4632650000000 1.0
C      1  0.4640080000000  0.4685060000000  0.2942210000000 1.0
C      1  0.5276720000000  0.3813810000000  0.4931550000000 1.0
C      1  0.5599040000000  0.5682920000000  0.5482250000000 1.0
C      1  0.3880990000000  0.4480700000000  0.4276250000000 1.0
C      1  0.5534030000000  0.4401360000000  0.5584070000000 1.0
C      1  0.4951080000000  0.3671300000000  0.5271180000000 1.0
C      1  0.4106620000000  0.4664340000000  0.5627460000000 1.0
C      1  0.3989210000000  0.4648030000000  0.4444150000000 1.0
C      1  0.5649460000000  0.5844360000000  0.5244420000000 1.0
C      1  0.4660850000000  0.5103560000000  0.4377470000000 1.0
C      1  0.5439440000000  0.5833710000000  0.4463950000000 1.0
C      1  0.3827430000000  0.4852020000000  0.5238930000000 1.0
C      1  0.6019730000000  0.3739230000000  0.4664890000000 1.0
C      1  0.5150550000000  0.4181960000000  0.4649080000000 1.0
C      1  0.5357290000000  0.5734000000000  0.5638950000000 1.0
C      1  0.4094520000000  0.5678260000000  0.5604080000000 1.0
C      1  0.5975920000000  0.5360680000000  0.4494310000000 1.0
C      1  0.5863290000000  0.4987350000000  0.5631380000000 1.0
C      1  0.4509030000000  0.4001370000000  0.5315200000000 1.0
C      1  0.3906620000000  0.4845770000000  0.5514580000000 1.0
C      1  0.5104430000000  0.4466990000000  0.5419820000000 1.0
C      1  0.3952770000000  0.5112080000000  0.5616950000000 1.0
C      1  0.4734720000000  0.5746380000000  0.5743400000000 1.0
C      1  0.4928100000000  0.4254620000000  0.4821170000000 1.0
C      1  0.5458570000000  0.5780490000000  0.4748530000000 1.0
C      1  0.4533540000000  0.5117030000000  0.4121390000000 1.0
C      1  0.4293100000000  0.4098830000000  0.5177210000000 1.0
C      1  0.4422170000000  0.5754300000000  0.5304200000000 1.0
C      1  0.5381080000000  0.4870360000000  0.5192990000000 1.0
C      1  0.6202030000000  0.6049330000000  0.4521730000000 1.0
C      1  0.4751660000000  0.5789360000000  0.4834420000000 1.0
C      1  0.4732920000000  0.4968180000000  0.3672970000000 1.0
C      1  0.4285240000000  0.4555740000000  0.6337120000000 1.0
C      1  0.4906330000000  0.5386950000000  0.5436730000000 1.0
C      1  0.4359880000000  0.4565340000000  0.5040720000000 1.0
C      1  0.4279240000000  0.5617710000000  0.5807940000000 1.0
C      1  0.6360450000000  0.3409550000000  0.4437930000000 1.0
C      1  0.4909020000000  0.4798040000000  0.5095580000000 1.0
C      1  0.4307960000000  0.6386710000000  0.5152530000000 1.0
C      1  0.4674140000000  0.4793360000000  0.3176880000000 1.0
C      1  0.5186480000000  0.4608000000000  0.5898360000000 1.0
C      1  0.6193130000000  0.3570940000000  0.4555930000000 1.0
C      1  0.4999700000000  0.4928670000000  0.4112370000000 1.0
C      1  0.5389010000000  0.3556760000000  0.4919900000000 1.0
C      1  0.4538120000000  0.5523770000000  0.4683200000000 1.0
C      1  0.5637690000000  0.5398740000000  0.5441250000000 1.0
C      1  0.5724190000000  0.4378580000000  0.4837630000000 1.0
C      1  0.4775910000000  0.4494940000000  0.4769650000000 1.0
C      1  0.5766810000000  0.4461240000000  0.5116110000000 1.0
C      1  0.4894630000000  0.4941750000000  0.4383550000000 1.0
C      1  0.3969530000000  0.5024750000000  0.4765210000000 1.0
C      1  0.5640790000000  0.4106320000000  0.4792690000000 1.0
C      1  0.5827880000000  0.5186010000000  0.5429680000000 1.0
C      1  0.5264910000000  0.5079650000000  0.5356490000000 1.0
C      1  0.4125620000000  0.5722860000000  0.5313030000000 1.0
C      1  0.4229800000000  0.5191540000000  0.5606200000000 1.0
C      1  0.5550000000000  0.5454580000000  0.4122440000000 1.0
C      1  0.5766070000000  0.4514170000000  0.5700360000000 1.0
C      1  0.4938940000000  0.4722180000000  0.4826660000000 1.0
C      1  0.4320540000000  0.5248510000000  0.5340240000000 1.0
C      1  0.4599630000000  0.6225000000000  0.4786810000000 1.0
C      1  0.5000180000000  0.4923050000000  0.4643200000000 1.0
C      1  0.5885060000000  0.5623460000000  0.4426010000000 1.0
C      1  0.4896650000000  0.5917760000000  0.4436290000000 1.0
C      1  0.5855070000000  0.5089290000000  0.5165210000000 1.0
C      1  0.5838350000000  0.3913420000000  0.4748080000000 1.0
C      1  0.5457220000000  0.4869500000000  0.4307690000000 1.0
C      1  0.5052710000000  0.3871200000000  0.5101790000000 1.0
C      1  0.4388790000000  0.5031760000000  0.5786620000000 1.0
C      1  0.5959980000000  0.4614690000000  0.5273620000000 1.0
C      1  0.4111320000000  0.4829290000000  0.4615150000000 1.0
C      1  0.4483870000000  0.6203630000000  0.5052820000000 1.0
C      1  0.5258050000000  0.4453700000000  0.5673890000000 1.0
C      1  0.4246370000000  0.4456540000000  0.5493920000000 1.0
C      1  0.5622740000000  0.5657940000000  0.4311480000000 1.0
C      1  0.5750890000000  0.5051520000000  0.5882910000000 1.0
C      1  0.3952680000000  0.5279660000000  0.4627410000000 1.0
C      1  0.5130980000000  0.5808900000000  0.5477910000000 1.0
C      1  0.4706350000000  0.4893140000000  0.3420320000000 1.0
C      1  0.6051060000000  0.5844110000000  0.4466960000000 1.0
C      1  0.4907730000000  0.4277560000000  0.5333480000000 1.0
C      1  0.4666870000000  0.4193620000000  0.5463740000000 1.0
C      1  0.5014890000000  0.5467640000000  0.4394490000000 1.0
C      1  0.5288180000000  0.4992420000000  0.4106050000000 1.0
C      1  0.5157530000000  0.4845750000000  0.6022640000000 1.0
C      1  0.4659610000000  0.5093440000000  0.5839370000000 1.0
C      1  0.4740970000000  0.5343550000000  0.5956600000000 1.0
END
