TITL C-612603-7354-1021 0.16483501324366 125000 -1186.17178723042 0 0 193 (C1) n - 1
REM
REM in /home/nfs/bkarasulu/CARBON/AIRSS/Generating-Clusters/TERSOFF/Only-C1/FIRE-HFTN
REM
REM
REM
REM
REM
REM ./C.cell (11c1c37f851c82e70ff6c80c92926a4b)
REM AIRSS Version 0.9.1 bugfix July 2018 build 013d7b7c2542+ Fri, 06 Jul 2018 19:26:36 +0100
REM compiler GCC version 9.2.1 20190827 (Red Hat 9.2.1-1)
REM options -cpp -mtune=generic -march=x86-64 -g -O0 -fpre-include=/usr/include/finclude/math-vector-fortran.h
REM seed -1319003685 -1549962644 -632381583 191326404 1207671026 1460424677 -198672633 -1688813719 -1859450153 -492146220 256559336 -1104300064 1017095618 -1049079406 -123106766 -146726743 -1179037540 -92590656 -1351286109 63315927 1862946400 -1024365925 1891054297 1502371418 504556373 -1676193733 1692948970 1056442572 1229296097 1258194964 -1426870830 -523602254 -617427775
REM
CELL 1.54180   50.00000   50.00000   50.00000   90.00000   90.00000   90.00000
LATT -1
SFAC C  
C      1  0.5780010000000  0.5709600000000  0.5836300000000 1.0
C      1  0.4733430000000  0.4868800000000  0.4186380000000 1.0
C      1  0.4733280000000  0.3794820000000  0.3563590000000 1.0
C      1  0.5076440000000  0.4988250000000  0.3702370000000 1.0
C      1  0.5945450000000  0.5360890000000  0.4030800000000 1.0
C      1  0.4621780000000  0.5685240000000  0.5868230000000 1.0
C      1  0.4574750000000  0.4635420000000  0.4176310000000 1.0
C      1  0.3793220000000  0.4906310000000  0.4953620000000 1.0
C      1  0.4136930000000  0.4085820000000  0.5150440000000 1.0
C      1  0.5572060000000  0.6088490000000  0.5631840000000 1.0
C      1  0.4395370000000  0.5770170000000  0.4399910000000 1.0
C      1  0.5465360000000  0.3975740000000  0.4937010000000 1.0
C      1  0.6065110000000  0.5622790000000  0.4412580000000 1.0
C      1  0.5580450000000  0.4196040000000  0.5365930000000 1.0
C      1  0.4959400000000  0.4092370000000  0.6220750000000 1.0
C      1  0.4389380000000  0.4479280000000  0.6086650000000 1.0
C      1  0.5606020000000  0.5751510000000  0.4438740000000 1.0
C      1  0.5344560000000  0.5407090000000  0.5500930000000 1.0
C      1  0.5268420000000  0.4142820000000  0.4580790000000 1.0
C      1  0.5770260000000  0.4786310000000  0.4460760000000 1.0
C      1  0.4075180000000  0.5374670000000  0.5040030000000 1.0
C      1  0.4839240000000  0.3952120000000  0.3748730000000 1.0
C      1  0.4867960000000  0.3776880000000  0.5548060000000 1.0
C      1  0.5306630000000  0.4637830000000  0.5531840000000 1.0
C      1  0.3925460000000  0.4248320000000  0.5160780000000 1.0
C      1  0.4904990000000  0.6214930000000  0.5406700000000 1.0
C      1  0.4556620000000  0.5785990000000  0.5060970000000 1.0
C      1  0.4360460000000  0.5464070000000  0.5407320000000 1.0
C      1  0.5100570000000  0.4268860000000  0.5133390000000 1.0
C      1  0.5914310000000  0.4375540000000  0.5763360000000 1.0
C      1  0.4139170000000  0.5792260000000  0.4555720000000 1.0
C      1  0.5180340000000  0.6192840000000  0.5362370000000 1.0
C      1  0.5156320000000  0.4408530000000  0.5580520000000 1.0
C      1  0.3790700000000  0.4212050000000  0.4462330000000 1.0
C      1  0.4012810000000  0.4892700000000  0.5141950000000 1.0
C      1  0.3898040000000  0.5833050000000  0.5933560000000 1.0
C      1  0.4546050000000  0.5625610000000  0.4849040000000 1.0
C      1  0.4852900000000  0.6309390000000  0.4701140000000 1.0
C      1  0.5332120000000  0.5798320000000  0.4461800000000 1.0
C      1  0.5175560000000  0.4207780000000  0.5788090000000 1.0
C      1  0.5212190000000  0.4985690000000  0.4751810000000 1.0
C      1  0.5064750000000  0.5808950000000  0.5096610000000 1.0
C      1  0.4950540000000  0.4913330000000  0.4370780000000 1.0
C      1  0.4968830000000  0.4205310000000  0.5975260000000 1.0
C      1  0.6125280000000  0.5294840000000  0.5631190000000 1.0
C      1  0.4642170000000  0.5401790000000  0.5878110000000 1.0
C      1  0.4737190000000  0.4872630000000  0.5416210000000 1.0
C      1  0.4188610000000  0.6037920000000  0.5050050000000 1.0
C      1  0.6314660000000  0.5356540000000  0.5463160000000 1.0
C      1  0.4685430000000  0.5089860000000  0.4006000000000 1.0
C      1  0.5345010000000  0.4880560000000  0.4112630000000 1.0
C      1  0.4653870000000  0.3964710000000  0.5557710000000 1.0
C      1  0.4665410000000  0.4991530000000  0.6187740000000 1.0
C      1  0.4979660000000  0.3807120000000  0.4767250000000 1.0
C      1  0.4729890000000  0.5594100000000  0.4041640000000 1.0
C      1  0.5677230000000  0.4245240000000  0.5858600000000 1.0
C      1  0.5467440000000  0.6083640000000  0.4979220000000 1.0
C      1  0.4815370000000  0.4765760000000  0.6098030000000 1.0
C      1  0.3678100000000  0.4648360000000  0.4905170000000 1.0
C      1  0.4603920000000  0.5237060000000  0.6099840000000 1.0
C      1  0.6277220000000  0.5228630000000  0.4683520000000 1.0
C      1  0.5449930000000  0.4748770000000  0.5745670000000 1.0
C      1  0.5343390000000  0.4663940000000  0.6001860000000 1.0
C      1  0.3783020000000  0.5369260000000  0.4643510000000 1.0
C      1  0.4725270000000  0.6428080000000  0.4925500000000 1.0
C      1  0.4737660000000  0.5122900000000  0.5021450000000 1.0
C      1  0.5917510000000  0.5242130000000  0.5808320000000 1.0
C      1  0.4516260000000  0.5113580000000  0.4571770000000 1.0
C      1  0.5255420000000  0.5393560000000  0.6020320000000 1.0
C      1  0.4340710000000  0.3967090000000  0.5023730000000 1.0
C      1  0.6182100000000  0.4277770000000  0.4740670000000 1.0
C      1  0.4872570000000  0.5690830000000  0.4511540000000 1.0
C      1  0.4786130000000  0.5371130000000  0.5155980000000 1.0
C      1  0.5132330000000  0.5591120000000  0.4453200000000 1.0
C      1  0.5848570000000  0.4976790000000  0.5886720000000 1.0
C      1  0.5880170000000  0.5876570000000  0.4810430000000 1.0
C      1  0.5731340000000  0.5427310000000  0.3882450000000 1.0
C      1  0.3942210000000  0.5034960000000  0.6041380000000 1.0
C      1  0.4300130000000  0.4070830000000  0.4552720000000 1.0
C      1  0.4964070000000  0.4321110000000  0.5384620000000 1.0
C      1  0.5937250000000  0.4702390000000  0.4007710000000 1.0
C      1  0.4819380000000  0.5946770000000  0.4367680000000 1.0
C      1  0.5501680000000  0.4409380000000  0.6043820000000 1.0
C      1  0.5692620000000  0.5910530000000  0.5022640000000 1.0
C      1  0.5616070000000  0.5160490000000  0.6270050000000 1.0
C      1  0.5005840000000  0.4412730000000  0.4891890000000 1.0
C      1  0.5227060000000  0.5569430000000  0.3817200000000 1.0
C      1  0.4447810000000  0.4850630000000  0.5470410000000 1.0
C      1  0.5560300000000  0.4615760000000  0.4846910000000 1.0
C      1  0.5305180000000  0.4556300000000  0.3794430000000 1.0
C      1  0.5684410000000  0.4099710000000  0.4771140000000 1.0
C      1  0.5182200000000  0.5161650000000  0.5465270000000 1.0
C      1  0.5142890000000  0.5124080000000  0.6045520000000 1.0
C      1  0.5244480000000  0.3912400000000  0.4754980000000 1.0
C      1  0.5242010000000  0.5112090000000  0.4993410000000 1.0
C      1  0.5573040000000  0.4556090000000  0.4522560000000 1.0
C      1  0.5111430000000  0.5637810000000  0.5905050000000 1.0
C      1  0.4607140000000  0.5337990000000  0.4127940000000 1.0
C      1  0.5382590000000  0.6253060000000  0.5542530000000 1.0
C      1  0.5538150000000  0.5377720000000  0.6098000000000 1.0
C      1  0.4908880000000  0.5077980000000  0.5556530000000 1.0
C      1  0.3935150000000  0.5581240000000  0.4554090000000 1.0
C      1  0.5309960000000  0.3971070000000  0.5701480000000 1.0
C      1  0.4628020000000  0.3640000000000  0.3382170000000 1.0
C      1  0.4884240000000  0.5807270000000  0.5790810000000 1.0
C      1  0.4335850000000  0.4890130000000  0.5724130000000 1.0
C      1  0.4141010000000  0.4956650000000  0.5892040000000 1.0
C      1  0.3575640000000  0.4392210000000  0.4452940000000 1.0
C      1  0.5529660000000  0.5629790000000  0.5434930000000 1.0
C      1  0.5864420000000  0.5762440000000  0.4550710000000 1.0
C      1  0.5278430000000  0.4841310000000  0.3828670000000 1.0
C      1  0.4737830000000  0.4242080000000  0.5557000000000 1.0
C      1  0.4828460000000  0.5074210000000  0.3763010000000 1.0
C      1  0.5394750000000  0.4607760000000  0.4252030000000 1.0
C      1  0.4935720000000  0.4108620000000  0.3939460000000 1.0
C      1  0.5133220000000  0.3771930000000  0.5608360000000 1.0
C      1  0.4697160000000  0.3944750000000  0.4383220000000 1.0
C      1  0.5290030000000  0.4422090000000  0.4048380000000 1.0
C      1  0.4941410000000  0.4370200000000  0.4367190000000 1.0
C      1  0.4787010000000  0.6012050000000  0.5571730000000 1.0
C      1  0.5411810000000  0.6194090000000  0.4726310000000 1.0
C      1  0.5662800000000  0.5030890000000  0.4574300000000 1.0
C      1  0.5614530000000  0.5671880000000  0.5162170000000 1.0
C      1  0.4726250000000  0.5069270000000  0.4745470000000 1.0
C      1  0.4633220000000  0.5411830000000  0.5396120000000 1.0
C      1  0.5103900000000  0.4830010000000  0.6070180000000 1.0
C      1  0.3726730000000  0.5140640000000  0.4789370000000 1.0
C      1  0.5729580000000  0.4795600000000  0.5703190000000 1.0
C      1  0.4454430000000  0.3945240000000  0.4769510000000 1.0
C      1  0.5369260000000  0.4748500000000  0.5280990000000 1.0
C      1  0.4495160000000  0.5966140000000  0.5506870000000 1.0
C      1  0.4942500000000  0.4875120000000  0.4675860000000 1.0
C      1  0.4248430000000  0.4048500000000  0.5860670000000 1.0
C      1  0.3393260000000  0.4387450000000  0.4250110000000 1.0
C      1  0.5495180000000  0.5496320000000  0.4981690000000 1.0
C      1  0.5491570000000  0.5516660000000  0.3800290000000 1.0
C      1  0.5722860000000  0.4452810000000  0.5321450000000 1.0
C      1  0.5241440000000  0.5388390000000  0.4983720000000 1.0
C      1  0.4401750000000  0.5954430000000  0.5230570000000 1.0
C      1  0.4971910000000  0.6145610000000  0.4502220000000 1.0
C      1  0.4759680000000  0.4345920000000  0.5836450000000 1.0
C      1  0.5812950000000  0.5155030000000  0.4776660000000 1.0
C      1  0.4588880000000  0.5584060000000  0.4563680000000 1.0
C      1  0.4793720000000  0.4855180000000  0.5136140000000 1.0
C      1  0.5238330000000  0.6029500000000  0.5139640000000 1.0
C      1  0.4249450000000  0.4841550000000  0.5262710000000 1.0
C      1  0.4401440000000  0.5828300000000  0.5746290000000 1.0
C      1  0.5540840000000  0.4246180000000  0.4554710000000 1.0
C      1  0.4719410000000  0.3862620000000  0.4665100000000 1.0
C      1  0.4479670000000  0.4131940000000  0.4333620000000 1.0
C      1  0.4549710000000  0.5333240000000  0.4407550000000 1.0
C      1  0.6224570000000  0.4889610000000  0.4352380000000 1.0
C      1  0.6063410000000  0.5219770000000  0.4849510000000 1.0
C      1  0.6106380000000  0.5383070000000  0.4262620000000 1.0
C      1  0.5774830000000  0.4963650000000  0.6164170000000 1.0
C      1  0.4547060000000  0.6631910000000  0.4879300000000 1.0
C      1  0.5014720000000  0.5532530000000  0.5074780000000 1.0
C      1  0.5382350000000  0.5064880000000  0.4540130000000 1.0
C      1  0.5565500000000  0.4080140000000  0.5637200000000 1.0
C      1  0.6243950000000  0.5171170000000  0.4405230000000 1.0
C      1  0.5249010000000  0.6068670000000  0.4532610000000 1.0
C      1  0.5756680000000  0.5449540000000  0.5926800000000 1.0
C      1  0.5209320000000  0.5087240000000  0.4290180000000 1.0
C      1  0.5631070000000  0.5816500000000  0.5627870000000 1.0
C      1  0.4897600000000  0.4676150000000  0.4918540000000 1.0
C      1  0.4485920000000  0.4384010000000  0.4210260000000 1.0
C      1  0.4127180000000  0.4837260000000  0.4530060000000 1.0
C      1  0.5134550000000  0.5385170000000  0.4246650000000 1.0
C      1  0.4237730000000  0.4265920000000  0.6018860000000 1.0
C      1  0.5054220000000  0.4323990000000  0.4619080000000 1.0
C      1  0.4258610000000  0.5043720000000  0.4648570000000 1.0
C      1  0.6334240000000  0.4470200000000  0.4633720000000 1.0
C      1  0.4741920000000  0.5296220000000  0.5633100000000 1.0
C      1  0.3558010000000  0.4577890000000  0.4662800000000 1.0
C      1  0.4026150000000  0.4110380000000  0.4531130000000 1.0
C      1  0.4130860000000  0.5968980000000  0.4789060000000 1.0
C      1  0.5576870000000  0.4621080000000  0.5131810000000 1.0
C      1  0.5854340000000  0.4571810000000  0.5561280000000 1.0
C      1  0.4603710000000  0.5846060000000  0.4185450000000 1.0
C      1  0.4769830000000  0.6348620000000  0.5194690000000 1.0
C      1  0.5960020000000  0.4139360000000  0.4796880000000 1.0
C      1  0.4162370000000  0.5214940000000  0.4846600000000 1.0
C      1  0.5972380000000  0.4790880000000  0.4263270000000 1.0
C      1  0.4650390000000  0.4548420000000  0.5998940000000 1.0
C      1  0.4403620000000  0.3921100000000  0.5681100000000 1.0
C      1  0.5023370000000  0.5522580000000  0.4007790000000 1.0
C      1  0.5374980000000  0.4132980000000  0.5162410000000 1.0
C      1  0.4143670000000  0.5840620000000  0.5846880000000 1.0
C      1  0.5274710000000  0.5003770000000  0.5244390000000 1.0
C      1  0.6375130000000  0.4694260000000  0.4491310000000 1.0
C      1  0.4125750000000  0.5461690000000  0.5284880000000 1.0
C      1  0.5049020000000  0.4291800000000  0.4115430000000 1.0
C      1  0.3756360000000  0.4436890000000  0.5076580000000 1.0
END
