TITL C-612602-9376-1019 0.0424395159512923 125000 -208.696284267726 0 0 37 (C1) n - 1
REM
REM in /home/nfs/bkarasulu/CARBON/AIRSS/Generating-Clusters/TERSOFF/Only-C1/FIRE-HFTN
REM
REM
REM
REM
REM
REM ./C.cell (11c1c37f851c82e70ff6c80c92926a4b)
REM AIRSS Version 0.9.1 bugfix July 2018 build 013d7b7c2542+ Fri, 06 Jul 2018 19:26:36 +0100
REM compiler GCC version 9.2.1 20190827 (Red Hat 9.2.1-1)
REM options -cpp -mtune=generic -march=x86-64 -g -O0 -fpre-include=/usr/include/finclude/math-vector-fortran.h
REM seed 974091202 -1052593761 1155968925 -948756866 2119899577 814776943 -1639271921 1894681218 737555540 -1517063596 -1271762452 2133523563 -1837944333 1928603020 -1254227711 843989076 67488866 -492258784 1008577644 1910072449 -777848797 -1696519016 1173384219 1329594897 485088673 1029607476 1194583703 -1963490908 1980748305 -918356408 -945456336 -270532334 -182532861
REM
CELL 1.54180   50.00000   50.00000   50.00000   90.00000   90.00000   90.00000
LATT -1
SFAC C  
C      1  0.5023550000000  0.5721690000000  0.4076750000000 1.0
C      1  0.5645390000000  0.4683140000000  0.4123610000000 1.0
C      1  0.4380710000000  0.5281140000000  0.4237150000000 1.0
C      1  0.5161830000000  0.4587830000000  0.5536870000000 1.0
C      1  0.5221970000000  0.4397650000000  0.5722520000000 1.0
C      1  0.5194090000000  0.5322610000000  0.4372910000000 1.0
C      1  0.5114630000000  0.5525380000000  0.4222090000000 1.0
C      1  0.4829070000000  0.4947520000000  0.4797780000000 1.0
C      1  0.5258800000000  0.5318600000000  0.5277040000000 1.0
C      1  0.5718440000000  0.4902370000000  0.4955460000000 1.0
C      1  0.4967000000000  0.4791280000000  0.5583670000000 1.0
C      1  0.4516770000000  0.5162800000000  0.4425380000000 1.0
C      1  0.5440850000000  0.4753610000000  0.4268900000000 1.0
C      1  0.5018430000000  0.4644210000000  0.4477010000000 1.0
C      1  0.4460170000000  0.5568800000000  0.5103830000000 1.0
C      1  0.4900440000000  0.5232180000000  0.6452250000000 1.0
C      1  0.5166900000000  0.5320280000000  0.5008340000000 1.0
C      1  0.4816380000000  0.4511870000000  0.4600310000000 1.0
C      1  0.5243060000000  0.5105190000000  0.4541850000000 1.0
C      1  0.4952370000000  0.5173230000000  0.6203670000000 1.0
C      1  0.5312330000000  0.5153020000000  0.4818190000000 1.0
C      1  0.4567850000000  0.4820750000000  0.5226550000000 1.0
C      1  0.4997830000000  0.4808280000000  0.4954300000000 1.0
C      1  0.4666760000000  0.5052910000000  0.4614220000000 1.0
C      1  0.4628220000000  0.5353440000000  0.5085450000000 1.0
C      1  0.5256280000000  0.4753410000000  0.5053780000000 1.0
C      1  0.5199600000000  0.5214870000000  0.5516320000000 1.0
C      1  0.4537410000000  0.4617240000000  0.5027560000000 1.0
C      1  0.4635620000000  0.4500850000000  0.4802760000000 1.0
C      1  0.4536460000000  0.5096320000000  0.5164090000000 1.0
C      1  0.5285530000000  0.4600040000000  0.5284590000000 1.0
C      1  0.4892790000000  0.5389590000000  0.4987420000000 1.0
C      1  0.5004920000000  0.5112450000000  0.5951220000000 1.0
C      1  0.4714350000000  0.4766500000000  0.5461890000000 1.0
C      1  0.5448610000000  0.4932130000000  0.4945290000000 1.0
C      1  0.5057230000000  0.5041900000000  0.5686680000000 1.0
C      1  0.5227360000000  0.4834930000000  0.4432300000000 1.0
END
