TITL C-612606-7351-261 9193.0852142109 125000 -1064.43551438963 0 0 176 (C1) n - 1
REM
REM in /home/nfs/bkarasulu/CARBON/AIRSS/Generating-Clusters/TERSOFF/Only-C1/FIRE-HFTN
REM
REM
REM
REM
REM
REM ./C.cell (11c1c37f851c82e70ff6c80c92926a4b)
REM AIRSS Version 0.9.1 bugfix July 2018 build 013d7b7c2542+ Fri, 06 Jul 2018 19:26:36 +0100
REM compiler GCC version 9.2.1 20190827 (Red Hat 9.2.1-1)
REM options -cpp -mtune=generic -march=x86-64 -g -O0 -fpre-include=/usr/include/finclude/math-vector-fortran.h
REM seed 12467043 1552298838 750351452 971644719 -1761297596 433935454 -1726339318 1406633048 -287772609 700264359 533202239 374760219 2057029161 534198295 -1736515779 -400856444 1932033090 -1882398429 -1921221711 905230848 -377989656 -752953512 1903760127 -621348971 354587621 1363532426 -1245795896 -1160779461 2115657871 -692216699 1330004203 1766164107 -722256705
REM
CELL 1.54180   50.00000   50.00000   50.00000   90.00000   90.00000   90.00000
LATT -1
SFAC C  
C      1  0.5374820000000  0.4183570000000  0.5492740000000 1.0
C      1  0.4310100000000  0.5205670000000  0.4155290000000 1.0
C      1  0.5428820000000  0.5613690000000  0.4948950000000 1.0
C      1  0.5347570000000  0.4773850000000  0.4412320000000 1.0
C      1  0.6235310000000  0.4947400000000  0.4551820000000 1.0
C      1  0.5035590000000  0.4108110000000  0.4226430000000 1.0
C      1  0.4779350000000  0.4065050000000  0.4336120000000 1.0
C      1  0.5400760000000  0.5594910000000  0.6081840000000 1.0
C      1  0.5898770000000  0.5949780000000  0.4970200000000 1.0
C      1  0.5259230000000  0.3910280000000  0.5486830000000 1.0
C      1  0.6313660000000  0.5530080000000  0.5389560000000 1.0
C      1  0.4184350000000  0.3743530000000  0.5385420000000 1.0
C      1  0.5287050000000  0.4603400000000  0.4639650000000 1.0
C      1  0.4632030000000  0.4899410000000  0.4315840000000 1.0
C      1  0.3721100000000  0.5587710000000  0.4630940000000 1.0
C      1  0.5365050000000  0.4774830000000  0.6484990000000 1.0
C      1  0.4740170000000  0.5434100000000  0.3909810000000 1.0
C      1  0.5937660000000  0.5816190000000  0.5230110000000 1.0
C      1  0.4316060000000  0.5380920000000  0.4984960000000 1.0
C      1  0.5882200000000  0.5525190000000  0.4307930000000 1.0
C      1  0.4597640000000  0.4447400000000  0.4805790000000 1.0
C      1  0.5373590000000  0.5256270000000  0.5588990000000 1.0
C      1  0.5476510000000  0.5823220000000  0.4408660000000 1.0
C      1  0.4486610000000  0.4789500000000  0.6094510000000 1.0
C      1  0.4797960000000  0.6070140000000  0.5135680000000 1.0
C      1  0.5788920000000  0.5078750000000  0.5330720000000 1.0
C      1  0.5885240000000  0.6223510000000  0.4957820000000 1.0
C      1  0.5401680000000  0.5467090000000  0.4708600000000 1.0
C      1  0.4806990000000  0.5178280000000  0.6041950000000 1.0
C      1  0.4437300000000  0.5791060000000  0.5804900000000 1.0
C      1  0.5083050000000  0.5195120000000  0.4361180000000 1.0
C      1  0.4269490000000  0.4603400000000  0.4323420000000 1.0
C      1  0.4632140000000  0.5690600000000  0.4362450000000 1.0
C      1  0.4967650000000  0.3477700000000  0.5427850000000 1.0
C      1  0.4225130000000  0.4135880000000  0.5021430000000 1.0
C      1  0.5924690000000  0.4741910000000  0.5674320000000 1.0
C      1  0.4105690000000  0.5254280000000  0.3974710000000 1.0
C      1  0.4631630000000  0.5855810000000  0.5208290000000 1.0
C      1  0.4982770000000  0.6127590000000  0.5342760000000 1.0
C      1  0.5316000000000  0.4325320000000  0.4668700000000 1.0
C      1  0.5061780000000  0.6001120000000  0.5567710000000 1.0
C      1  0.5189880000000  0.5115290000000  0.3742640000000 1.0
C      1  0.5454290000000  0.4773640000000  0.5623380000000 1.0
C      1  0.4731290000000  0.5194150000000  0.4794670000000 1.0
C      1  0.5493080000000  0.4264190000000  0.4455850000000 1.0
C      1  0.4322450000000  0.4737130000000  0.5645670000000 1.0
C      1  0.5673050000000  0.4726270000000  0.5800530000000 1.0
C      1  0.4714420000000  0.5350710000000  0.5240310000000 1.0
C      1  0.3995360000000  0.5561620000000  0.5298530000000 1.0
C      1  0.4903660000000  0.5668950000000  0.3952290000000 1.0
C      1  0.5269130000000  0.5069500000000  0.6109610000000 1.0
C      1  0.4673010000000  0.4552950000000  0.3992250000000 1.0
C      1  0.5737540000000  0.4597350000000  0.4752740000000 1.0
C      1  0.5092690000000  0.5634020000000  0.3731930000000 1.0
C      1  0.3819660000000  0.4886620000000  0.6059590000000 1.0
C      1  0.5776800000000  0.5864730000000  0.5473360000000 1.0
C      1  0.3681900000000  0.5316850000000  0.3670320000000 1.0
C      1  0.4668600000000  0.5614960000000  0.5317300000000 1.0
C      1  0.4307890000000  0.4066860000000  0.4463260000000 1.0
C      1  0.4282700000000  0.5041370000000  0.4608820000000 1.0
C      1  0.4045960000000  0.4600340000000  0.5183400000000 1.0
C      1  0.4836480000000  0.6121930000000  0.4599960000000 1.0
C      1  0.5795280000000  0.5306150000000  0.4137260000000 1.0
C      1  0.3886090000000  0.5544720000000  0.4828060000000 1.0
C      1  0.4393650000000  0.4831680000000  0.4440990000000 1.0
C      1  0.5451180000000  0.4900890000000  0.4970000000000 1.0
C      1  0.4080110000000  0.5277510000000  0.5931460000000 1.0
C      1  0.5953940000000  0.4817150000000  0.5400290000000 1.0
C      1  0.4777600000000  0.5440500000000  0.5923610000000 1.0
C      1  0.4795720000000  0.4361140000000  0.6002390000000 1.0
C      1  0.5120550000000  0.3685940000000  0.5462690000000 1.0
C      1  0.5124410000000  0.5781230000000  0.5733210000000 1.0
C      1  0.6141290000000  0.4630420000000  0.4906390000000 1.0
C      1  0.3894680000000  0.5288100000000  0.3818170000000 1.0
C      1  0.5353600000000  0.5887400000000  0.4946460000000 1.0
C      1  0.4170160000000  0.4913390000000  0.4844660000000 1.0
C      1  0.5178240000000  0.4374210000000  0.5642780000000 1.0
C      1  0.4552970000000  0.5061820000000  0.4099580000000 1.0
C      1  0.6064800000000  0.5411030000000  0.4504870000000 1.0
C      1  0.5480860000000  0.4210720000000  0.5146560000000 1.0
C      1  0.4012160000000  0.4232630000000  0.4852580000000 1.0
C      1  0.4938290000000  0.4675070000000  0.3929830000000 1.0
C      1  0.3809970000000  0.4320350000000  0.5511640000000 1.0
C      1  0.5598490000000  0.5502720000000  0.5139890000000 1.0
C      1  0.6103900000000  0.5572460000000  0.5218640000000 1.0
C      1  0.3944520000000  0.4499890000000  0.4928970000000 1.0
C      1  0.4760960000000  0.3959850000000  0.4609630000000 1.0
C      1  0.4979840000000  0.5528260000000  0.5735760000000 1.0
C      1  0.4460950000000  0.4879730000000  0.5436920000000 1.0
C      1  0.5410630000000  0.5147390000000  0.3925090000000 1.0
C      1  0.5603310000000  0.5722940000000  0.5659730000000 1.0
C      1  0.4050090000000  0.4137080000000  0.4576300000000 1.0
C      1  0.5889400000000  0.4257120000000  0.5525450000000 1.0
C      1  0.5388930000000  0.5762540000000  0.5850280000000 1.0
C      1  0.5025570000000  0.4199660000000  0.5003080000000 1.0
C      1  0.5760780000000  0.5768430000000  0.4449880000000 1.0
C      1  0.4851350000000  0.4788930000000  0.4451030000000 1.0
C      1  0.4306090000000  0.5406290000000  0.6039230000000 1.0
C      1  0.5354340000000  0.5338190000000  0.6150370000000 1.0
C      1  0.4919730000000  0.4433800000000  0.5142740000000 1.0
C      1  0.5490180000000  0.5005080000000  0.5446180000000 1.0
C      1  0.5051950000000  0.4968700000000  0.5205570000000 1.0
C      1  0.4444280000000  0.5529640000000  0.4471660000000 1.0
C      1  0.6032080000000  0.5137100000000  0.4528200000000 1.0
C      1  0.5098190000000  0.4919640000000  0.4390220000000 1.0
C      1  0.5733400000000  0.5380430000000  0.5361960000000 1.0
C      1  0.4275620000000  0.4830380000000  0.5906320000000 1.0
C      1  0.4580880000000  0.5287500000000  0.5000530000000 1.0
C      1  0.4987860000000  0.4277530000000  0.5833020000000 1.0
C      1  0.4522860000000  0.5563200000000  0.5947070000000 1.0
C      1  0.4302510000000  0.5284670000000  0.4437020000000 1.0
C      1  0.5549690000000  0.5244480000000  0.4641020000000 1.0
C      1  0.3635190000000  0.5418360000000  0.5790420000000 1.0
C      1  0.5876550000000  0.4689220000000  0.4352930000000 1.0
C      1  0.5831700000000  0.4146900000000  0.4808650000000 1.0
C      1  0.5296770000000  0.4229910000000  0.4937350000000 1.0
C      1  0.4024510000000  0.5609700000000  0.5571760000000 1.0
C      1  0.4506410000000  0.4333300000000  0.5485870000000 1.0
C      1  0.4243300000000  0.4833870000000  0.5147490000000 1.0
C      1  0.5351740000000  0.5408040000000  0.4041390000000 1.0
C      1  0.4919270000000  0.3994200000000  0.4838940000000 1.0
C      1  0.4461210000000  0.4438610000000  0.4164560000000 1.0
C      1  0.4955290000000  0.4966890000000  0.3838350000000 1.0
C      1  0.5735900000000  0.4899720000000  0.4858090000000 1.0
C      1  0.5193410000000  0.4661700000000  0.5645870000000 1.0
C      1  0.5288870000000  0.6031740000000  0.4476670000000 1.0
C      1  0.5321050000000  0.6082760000000  0.4759440000000 1.0
C      1  0.5594420000000  0.5444720000000  0.5598870000000 1.0
C      1  0.5090390000000  0.5319140000000  0.5563740000000 1.0
C      1  0.6031660000000  0.4609370000000  0.5189690000000 1.0
C      1  0.5143300000000  0.5382050000000  0.3618920000000 1.0
C      1  0.4273440000000  0.4469000000000  0.5568600000000 1.0
C      1  0.4467460000000  0.4202180000000  0.4886110000000 1.0
C      1  0.4032370000000  0.4449110000000  0.5422740000000 1.0
C      1  0.4861830000000  0.5803590000000  0.4219320000000 1.0
C      1  0.3988460000000  0.4697560000000  0.4729360000000 1.0
C      1  0.5932040000000  0.4342480000000  0.5258710000000 1.0
C      1  0.6043150000000  0.5538400000000  0.4753870000000 1.0
C      1  0.5213870000000  0.5425680000000  0.4281600000000 1.0
C      1  0.4210490000000  0.5803570000000  0.5659180000000 1.0
C      1  0.6039350000000  0.5383930000000  0.4999770000000 1.0
C      1  0.5645140000000  0.4191290000000  0.5622760000000 1.0
C      1  0.4740330000000  0.4945940000000  0.5535140000000 1.0
C      1  0.5757790000000  0.4205270000000  0.5078290000000 1.0
C      1  0.5253680000000  0.4288050000000  0.4187510000000 1.0
C      1  0.4489780000000  0.4001090000000  0.4680420000000 1.0
C      1  0.4895720000000  0.5158730000000  0.5377430000000 1.0
C      1  0.5321370000000  0.5591510000000  0.4472190000000 1.0
C      1  0.5170570000000  0.4513190000000  0.4018750000000 1.0
C      1  0.5028770000000  0.5017530000000  0.5959080000000 1.0
C      1  0.4623160000000  0.4541510000000  0.6101720000000 1.0
C      1  0.4740100000000  0.5151160000000  0.3916890000000 1.0
C      1  0.5615440000000  0.4823260000000  0.4267710000000 1.0
C      1  0.5634310000000  0.5060500000000  0.4086020000000 1.0
C      1  0.6135800000000  0.4693540000000  0.4611240000000 1.0
C      1  0.4197790000000  0.3943460000000  0.5218750000000 1.0
C      1  0.5241680000000  0.4726910000000  0.4879480000000 1.0
C      1  0.4614080000000  0.5026870000000  0.6180740000000 1.0
C      1  0.5895870000000  0.5790630000000  0.4727360000000 1.0
C      1  0.4504050000000  0.4170380000000  0.4263150000000 1.0
C      1  0.4797810000000  0.6152460000000  0.4865400000000 1.0
C      1  0.4065450000000  0.5495440000000  0.5036270000000 1.0
C      1  0.5745560000000  0.4329660000000  0.4600750000000 1.0
C      1  0.5004610000000  0.6005050000000  0.4393800000000 1.0
C      1  0.5895700000000  0.5104160000000  0.5045980000000 1.0
C      1  0.4052180000000  0.4996060000000  0.5966040000000 1.0
C      1  0.5023610000000  0.4703140000000  0.5074070000000 1.0
C      1  0.5334950000000  0.5011710000000  0.5197520000000 1.0
C      1  0.4726790000000  0.4378440000000  0.5340440000000 1.0
C      1  0.4766860000000  0.4596270000000  0.4650320000000 1.0
C      1  0.5764570000000  0.5068510000000  0.4613180000000 1.0
C      1  0.4970250000000  0.4842110000000  0.5725540000000 1.0
C      1  0.3907260000000  0.5432190000000  0.5763700000000 1.0
C      1  0.4015100000000  0.4604240000000  0.4456730000000 1.0
C      1  0.5417420000000  0.4858320000000  0.6230490000000 1.0
C      1  0.5617180000000  0.4739020000000  0.6073050000000 1.0
END
