TITL C-612601-4209-152 0.0872214241918932 125000 -847.317986829412 0 0 140 (C1) n - 1
REM
REM in /home/nfs/bkarasulu/CARBON/AIRSS/Generating-Clusters/TERSOFF/Only-C1/FIRE-HFTN
REM
REM
REM
REM
REM
REM ./C.cell (11c1c37f851c82e70ff6c80c92926a4b)
REM AIRSS Version 0.9.1 bugfix July 2018 build 013d7b7c2542+ Fri, 06 Jul 2018 19:26:36 +0100
REM compiler GCC version 9.2.1 20190827 (Red Hat 9.2.1-1)
REM options -cpp -mtune=generic -march=x86-64 -g -O0 -fpre-include=/usr/include/finclude/math-vector-fortran.h
REM seed -1970073614 -100043098 -1245156862 1340231350 671064591 -771541618 358799318 -1156472186 624531418 -315515601 1228154685 -1178673638 1823838893 -397938337 1632149104 -1026543775 1013347167 -844861770 -1504600426 433710450 234859578 228011953 1330832668 -2032072821 862396887 -1981000772 875276190 -2099874478 385809431 -1068151189 -824783045 -1891480682 -1568878743
REM
CELL 1.54180   50.00000   50.00000   50.00000   90.00000   90.00000   90.00000
LATT -1
SFAC C  
C      1  0.4151730000000  0.4965740000000  0.4408540000000 1.0
C      1  0.4651650000000  0.4386240000000  0.5675030000000 1.0
C      1  0.4745360000000  0.5263250000000  0.4109610000000 1.0
C      1  0.4627340000000  0.5506680000000  0.5948770000000 1.0
C      1  0.5174210000000  0.5081960000000  0.5193860000000 1.0
C      1  0.4922500000000  0.4567320000000  0.4945190000000 1.0
C      1  0.4812760000000  0.4022070000000  0.5151900000000 1.0
C      1  0.4551670000000  0.5511360000000  0.4962230000000 1.0
C      1  0.5049530000000  0.4892150000000  0.5913600000000 1.0
C      1  0.3474330000000  0.4840840000000  0.5059160000000 1.0
C      1  0.5509610000000  0.5670840000000  0.4487480000000 1.0
C      1  0.5937790000000  0.5177040000000  0.4875550000000 1.0
C      1  0.5480670000000  0.5750570000000  0.5521570000000 1.0
C      1  0.4801150000000  0.4718300000000  0.4251540000000 1.0
C      1  0.3688320000000  0.5006640000000  0.4992360000000 1.0
C      1  0.5307530000000  0.4484910000000  0.5817960000000 1.0
C      1  0.4565560000000  0.5492310000000  0.4490570000000 1.0
C      1  0.4796290000000  0.5378050000000  0.4366850000000 1.0
C      1  0.4301580000000  0.5405820000000  0.4445480000000 1.0
C      1  0.4889780000000  0.4484490000000  0.6080020000000 1.0
C      1  0.4844470000000  0.4447760000000  0.4180680000000 1.0
C      1  0.6173180000000  0.5211550000000  0.5390860000000 1.0
C      1  0.5939530000000  0.5646710000000  0.5398550000000 1.0
C      1  0.5411690000000  0.4442560000000  0.5059460000000 1.0
C      1  0.4914560000000  0.6025670000000  0.4805800000000 1.0
C      1  0.6145520000000  0.5476240000000  0.5417810000000 1.0
C      1  0.4764760000000  0.4229840000000  0.4343550000000 1.0
C      1  0.5841820000000  0.4978680000000  0.4363600000000 1.0
C      1  0.4318930000000  0.5459710000000  0.5448270000000 1.0
C      1  0.6100220000000  0.5082510000000  0.4353280000000 1.0
C      1  0.4385430000000  0.5875820000000  0.5228360000000 1.0
C      1  0.3684090000000  0.5280140000000  0.5056310000000 1.0
C      1  0.4006120000000  0.4638300000000  0.4917900000000 1.0
C      1  0.5502610000000  0.4059430000000  0.4642300000000 1.0
C      1  0.4054550000000  0.5576490000000  0.4876810000000 1.0
C      1  0.4510910000000  0.5100930000000  0.4111900000000 1.0
C      1  0.5123630000000  0.5564210000000  0.4971400000000 1.0
C      1  0.5279910000000  0.4008510000000  0.4441340000000 1.0
C      1  0.4889090000000  0.5616800000000  0.5962540000000 1.0
C      1  0.4683170000000  0.5905090000000  0.5233480000000 1.0
C      1  0.4211320000000  0.5801530000000  0.4994390000000 1.0
C      1  0.6343640000000  0.5184340000000  0.4329560000000 1.0
C      1  0.6582560000000  0.5286660000000  0.4309390000000 1.0
C      1  0.5683340000000  0.4487400000000  0.4458300000000 1.0
C      1  0.5121060000000  0.4624810000000  0.5984500000000 1.0
C      1  0.5900430000000  0.4776550000000  0.5851970000000 1.0
C      1  0.5883130000000  0.4387400000000  0.5179390000000 1.0
C      1  0.4507450000000  0.4290470000000  0.4485220000000 1.0
C      1  0.5299100000000  0.4908110000000  0.3780570000000 1.0
C      1  0.4329080000000  0.4080940000000  0.4514250000000 1.0
C      1  0.5633290000000  0.5206280000000  0.5773260000000 1.0
C      1  0.5128330000000  0.5027830000000  0.4496650000000 1.0
C      1  0.4667910000000  0.4516480000000  0.5414740000000 1.0
C      1  0.4122710000000  0.5370150000000  0.4676600000000 1.0
C      1  0.4932410000000  0.5255170000000  0.3902470000000 1.0
C      1  0.5811350000000  0.4540220000000  0.5712540000000 1.0
C      1  0.4328420000000  0.4235840000000  0.5066970000000 1.0
C      1  0.5536500000000  0.4932560000000  0.5412690000000 1.0
C      1  0.3916580000000  0.4903080000000  0.4852620000000 1.0
C      1  0.5138520000000  0.6042650000000  0.4605720000000 1.0
C      1  0.5090750000000  0.5476210000000  0.6121540000000 1.0
C      1  0.4799100000000  0.4984450000000  0.5825610000000 1.0
C      1  0.4807420000000  0.4735450000000  0.4744100000000 1.0
C      1  0.4478700000000  0.4739840000000  0.6031050000000 1.0
C      1  0.5855880000000  0.4318000000000  0.4912360000000 1.0
C      1  0.5101490000000  0.6019560000000  0.5620160000000 1.0
C      1  0.5219250000000  0.4474360000000  0.4578220000000 1.0
C      1  0.3815130000000  0.5509820000000  0.5014620000000 1.0
C      1  0.5132120000000  0.4623040000000  0.5376850000000 1.0
C      1  0.4636470000000  0.4511940000000  0.5939870000000 1.0
C      1  0.5314580000000  0.4164200000000  0.5099470000000 1.0
C      1  0.5009320000000  0.5290030000000  0.4535180000000 1.0
C      1  0.5075860000000  0.4083700000000  0.5253360000000 1.0
C      1  0.5585240000000  0.4893550000000  0.3831530000000 1.0
C      1  0.5613530000000  0.5420790000000  0.5124780000000 1.0
C      1  0.5283620000000  0.4846060000000  0.5310770000000 1.0
C      1  0.5401770000000  0.4485710000000  0.4368340000000 1.0
C      1  0.5343930000000  0.5498790000000  0.6012340000000 1.0
C      1  0.5805750000000  0.5028700000000  0.5884410000000 1.0
C      1  0.4562610000000  0.5016780000000  0.6001040000000 1.0
C      1  0.4522720000000  0.4731550000000  0.4782080000000 1.0
C      1  0.4454920000000  0.5278120000000  0.5905170000000 1.0
C      1  0.5234920000000  0.5314190000000  0.5372770000000 1.0
C      1  0.4383190000000  0.4989670000000  0.5521330000000 1.0
C      1  0.5649940000000  0.4695960000000  0.4031590000000 1.0
C      1  0.4323680000000  0.4737830000000  0.4354640000000 1.0
C      1  0.5067170000000  0.4171630000000  0.5525240000000 1.0
C      1  0.4545540000000  0.4824510000000  0.4181360000000 1.0
C      1  0.5469140000000  0.5194090000000  0.5540480000000 1.0
C      1  0.4317440000000  0.4898710000000  0.5254440000000 1.0
C      1  0.4690200000000  0.5909640000000  0.4652200000000 1.0
C      1  0.5504850000000  0.4962070000000  0.4849740000000 1.0
C      1  0.5406290000000  0.5017740000000  0.4580180000000 1.0
C      1  0.4729010000000  0.6016180000000  0.4385630000000 1.0
C      1  0.5060960000000  0.5786230000000  0.5788030000000 1.0
C      1  0.6028950000000  0.4991660000000  0.5346800000000 1.0
C      1  0.4673470000000  0.4976590000000  0.5571990000000 1.0
C      1  0.4954180000000  0.4120890000000  0.4738190000000 1.0
C      1  0.5197660000000  0.4421560000000  0.5566320000000 1.0
C      1  0.5205260000000  0.4660570000000  0.3901650000000 1.0
C      1  0.4414760000000  0.4565440000000  0.4564220000000 1.0
C      1  0.4927580000000  0.4821160000000  0.4492770000000 1.0
C      1  0.4820150000000  0.4150310000000  0.5668660000000 1.0
C      1  0.4430120000000  0.5409490000000  0.5183330000000 1.0
C      1  0.5611970000000  0.5145160000000  0.4422140000000 1.0
C      1  0.4856080000000  0.5696230000000  0.5342250000000 1.0
C      1  0.4771980000000  0.5108220000000  0.5353230000000 1.0
C      1  0.5480710000000  0.4688700000000  0.4950300000000 1.0
C      1  0.4275820000000  0.5191690000000  0.4256240000000 1.0
C      1  0.5663760000000  0.5618070000000  0.5338490000000 1.0
C      1  0.4045120000000  0.5074280000000  0.4659580000000 1.0
C      1  0.3278240000000  0.4680750000000  0.5121120000000 1.0
C      1  0.5089490000000  0.5549050000000  0.5259710000000 1.0
C      1  0.5595310000000  0.5428330000000  0.4407480000000 1.0
C      1  0.5427200000000  0.3981990000000  0.4910710000000 1.0
C      1  0.5390110000000  0.4554840000000  0.4092590000000 1.0
C      1  0.5130910000000  0.5129500000000  0.3775440000000 1.0
C      1  0.4831630000000  0.6083410000000  0.5067660000000 1.0
C      1  0.4320200000000  0.5251250000000  0.5642220000000 1.0
C      1  0.5841380000000  0.4550200000000  0.5416590000000 1.0
C      1  0.4288160000000  0.5741440000000  0.5466330000000 1.0
C      1  0.4991810000000  0.6099640000000  0.4358420000000 1.0
C      1  0.4488830000000  0.4903250000000  0.5018620000000 1.0
C      1  0.5037270000000  0.5349470000000  0.4811220000000 1.0
C      1  0.5581970000000  0.4428280000000  0.5835090000000 1.0
C      1  0.5334520000000  0.5998850000000  0.5468220000000 1.0
C      1  0.4600970000000  0.5651070000000  0.4717850000000 1.0
C      1  0.5791390000000  0.4707080000000  0.4286120000000 1.0
C      1  0.5672410000000  0.5185580000000  0.4960530000000 1.0
C      1  0.5343180000000  0.5657360000000  0.5770550000000 1.0
C      1  0.4731400000000  0.5058480000000  0.5076350000000 1.0
C      1  0.4989720000000  0.5122020000000  0.4977630000000 1.0
C      1  0.5797860000000  0.4832830000000  0.5362220000000 1.0
C      1  0.5367530000000  0.5879060000000  0.4582500000000 1.0
C      1  0.5719040000000  0.4274990000000  0.4653510000000 1.0
C      1  0.4138620000000  0.4418890000000  0.5005660000000 1.0
C      1  0.4887250000000  0.4576080000000  0.5232150000000 1.0
C      1  0.4981380000000  0.4057200000000  0.4458390000000 1.0
C      1  0.4554520000000  0.4091900000000  0.5104870000000 1.0
C      1  0.5056950000000  0.4376090000000  0.4790400000000 1.0
END
