TITL C-612601-4209-481 5.41209422934806 125000 -466.849826359614 0 0 78 (C1) n - 1
REM
REM in /home/nfs/bkarasulu/CARBON/AIRSS/Generating-Clusters/TERSOFF/Only-C1/FIRE-HFTN
REM
REM
REM
REM
REM
REM ./C.cell (11c1c37f851c82e70ff6c80c92926a4b)
REM AIRSS Version 0.9.1 bugfix July 2018 build 013d7b7c2542+ Fri, 06 Jul 2018 19:26:36 +0100
REM compiler GCC version 9.2.1 20190827 (Red Hat 9.2.1-1)
REM options -cpp -mtune=generic -march=x86-64 -g -O0 -fpre-include=/usr/include/finclude/math-vector-fortran.h
REM seed 1961799783 659696232 -599163833 1529611455 -1273395173 1311030077 1893241028 -64847953 -1295714261 606319997 -1756007223 -1453965987 -365869815 -1924813420 -438150061 -718002087 166800999 -1112536119 -579652870 470972771 -964568577 1819054999 994074355 -1904453219 -2067386775 -204946011 -233224652 -216478253 1863081766 -1133589524 98052310 -364207866 -636233090
REM
CELL 1.54180   50.00000   50.00000   50.00000   90.00000   90.00000   90.00000
LATT -1
SFAC C  
C      1  0.4609220000000  0.4751210000000  0.5072670000000 1.0
C      1  0.5108170000000  0.4840380000000  0.5487310000000 1.0
C      1  0.4816280000000  0.5678730000000  0.4278040000000 1.0
C      1  0.5594960000000  0.4934410000000  0.5407190000000 1.0
C      1  0.3532900000000  0.4440970000000  0.4233640000000 1.0
C      1  0.5535960000000  0.5380170000000  0.5611340000000 1.0
C      1  0.5119060000000  0.4602150000000  0.5644290000000 1.0
C      1  0.4745060000000  0.5872170000000  0.5337500000000 1.0
C      1  0.3763890000000  0.4560690000000  0.4283970000000 1.0
C      1  0.5909940000000  0.5805450000000  0.4698860000000 1.0
C      1  0.4830320000000  0.4557160000000  0.4527630000000 1.0
C      1  0.4909930000000  0.5288660000000  0.4983730000000 1.0
C      1  0.5821720000000  0.4762090000000  0.5382980000000 1.0
C      1  0.5568040000000  0.5827370000000  0.4305300000000 1.0
C      1  0.5278160000000  0.5854680000000  0.4927320000000 1.0
C      1  0.4464220000000  0.4915390000000  0.4477840000000 1.0
C      1  0.5772330000000  0.5842000000000  0.4474500000000 1.0
C      1  0.4447190000000  0.5148460000000  0.4929650000000 1.0
C      1  0.3301850000000  0.4321210000000  0.4183320000000 1.0
C      1  0.5797550000000  0.5485440000000  0.5042130000000 1.0
C      1  0.4635690000000  0.5405580000000  0.5582230000000 1.0
C      1  0.4661790000000  0.5674250000000  0.5496990000000 1.0
C      1  0.5474410000000  0.4913120000000  0.4848730000000 1.0
C      1  0.4563380000000  0.3445800000000  0.5232160000000 1.0
C      1  0.4953490000000  0.5068630000000  0.4814660000000 1.0
C      1  0.5152780000000  0.3889900000000  0.5386050000000 1.0
C      1  0.4668080000000  0.3696370000000  0.5200390000000 1.0
C      1  0.5554390000000  0.5425720000000  0.4901790000000 1.0
C      1  0.5537220000000  0.5166840000000  0.4791440000000 1.0
C      1  0.4527090000000  0.3892560000000  0.5059280000000 1.0
C      1  0.4834940000000  0.5982070000000  0.5094320000000 1.0
C      1  0.6148350000000  0.5813030000000  0.5117890000000 1.0
C      1  0.4961160000000  0.4583120000000  0.4782990000000 1.0
C      1  0.5187750000000  0.4520370000000  0.4946560000000 1.0
C      1  0.4836910000000  0.4942380000000  0.5447170000000 1.0
C      1  0.5336660000000  0.4856540000000  0.5309140000000 1.0
C      1  0.5981010000000  0.3347840000000  0.5791330000000 1.0
C      1  0.4224500000000  0.4798220000000  0.4393850000000 1.0
C      1  0.6060110000000  0.4857330000000  0.5290110000000 1.0
C      1  0.4612020000000  0.5654330000000  0.4467810000000 1.0
C      1  0.4414090000000  0.4089880000000  0.4931880000000 1.0
C      1  0.5338600000000  0.4751880000000  0.5036890000000 1.0
C      1  0.5324490000000  0.5781360000000  0.4209850000000 1.0
C      1  0.5871700000000  0.5302660000000  0.5247840000000 1.0
C      1  0.4365600000000  0.4887700000000  0.5017740000000 1.0
C      1  0.5957570000000  0.5703350000000  0.4955990000000 1.0
C      1  0.5146830000000  0.4343570000000  0.5576970000000 1.0
C      1  0.4701040000000  0.5200500000000  0.5395540000000 1.0
C      1  0.5108790000000  0.6049600000000  0.5043310000000 1.0
C      1  0.5297850000000  0.6538700000000  0.5169580000000 1.0
C      1  0.3994800000000  0.4680200000000  0.4335120000000 1.0
C      1  0.5037480000000  0.5106270000000  0.4546630000000 1.0
C      1  0.5294270000000  0.5491730000000  0.5584570000000 1.0
C      1  0.5171920000000  0.4170760000000  0.5355890000000 1.0
C      1  0.5670690000000  0.5211470000000  0.5434930000000 1.0
C      1  0.4112880000000  0.4795530000000  0.5048070000000 1.0
C      1  0.4659640000000  0.5980470000000  0.4875610000000 1.0
C      1  0.6089580000000  0.5120370000000  0.5223460000000 1.0
C      1  0.5317090000000  0.5577010000000  0.4946440000000 1.0
C      1  0.4577260000000  0.5861330000000  0.4653020000000 1.0
C      1  0.5112250000000  0.5447250000000  0.5096650000000 1.0
C      1  0.4673600000000  0.4729700000000  0.5344910000000 1.0
C      1  0.4917740000000  0.3760700000000  0.5308380000000 1.0
C      1  0.5201280000000  0.4286740000000  0.5100810000000 1.0
C      1  0.4654370000000  0.5262980000000  0.5110590000000 1.0
C      1  0.4454290000000  0.5162530000000  0.4637850000000 1.0
C      1  0.5572450000000  0.3611430000000  0.5591280000000 1.0
C      1  0.5206230000000  0.6302700000000  0.5107750000000 1.0
C      1  0.3074610000000  0.4203420000000  0.4133820000000 1.0
C      1  0.5065040000000  0.5725840000000  0.4197580000000 1.0
C      1  0.4549680000000  0.5345240000000  0.5834390000000 1.0
C      1  0.4482060000000  0.5410670000000  0.4510950000000 1.0
C      1  0.5366920000000  0.3744770000000  0.5490600000000 1.0
C      1  0.4833550000000  0.4813660000000  0.4899510000000 1.0
C      1  0.4918780000000  0.4983810000000  0.4335930000000 1.0
C      1  0.5131150000000  0.5489750000000  0.5373610000000 1.0
C      1  0.4716940000000  0.4793110000000  0.4399810000000 1.0
C      1  0.5778420000000  0.3478540000000  0.5692130000000 1.0
END
