TITL C-612606-7351-1407 102227.227847105 125000 -923.747096782332 0 0 150 (C1) n - 1
REM
REM in /home/nfs/bkarasulu/CARBON/AIRSS/Generating-Clusters/TERSOFF/Only-C1/FIRE-HFTN
REM
REM
REM
REM
REM
REM ./C.cell (11c1c37f851c82e70ff6c80c92926a4b)
REM AIRSS Version 0.9.1 bugfix July 2018 build 013d7b7c2542+ Fri, 06 Jul 2018 19:26:36 +0100
REM compiler GCC version 9.2.1 20190827 (Red Hat 9.2.1-1)
REM options -cpp -mtune=generic -march=x86-64 -g -O0 -fpre-include=/usr/include/finclude/math-vector-fortran.h
REM seed -1232744433 719046283 927425805 -260786883 826613053 1912260417 817878498 -1057948069 472044675 -886122740 1832211147 -1441598140 -1140390638 1987625438 2063223654 1279669788 1539789514 1363647939 -171359295 -1282059106 -2112773942 -1273456206 707077639 -1696945379 -1072116108 967509646 1227489621 -1926627203 -702448839 -1041287007 -732765749 1350894046 1153384140
REM
CELL 1.54180   50.00000   50.00000   50.00000   90.00000   90.00000   90.00000
LATT -1
SFAC C  
C      1  0.5642180000000  0.5109130000000  0.4726480000000 1.0
C      1  0.5294150000000  0.5314180000000  0.5520680000000 1.0
C      1  0.5081630000000  0.4637250000000  0.5062140000000 1.0
C      1  0.4065670000000  0.4644770000000  0.4233890000000 1.0
C      1  0.3947770000000  0.4561990000000  0.5797990000000 1.0
C      1  0.4555020000000  0.6002240000000  0.4783780000000 1.0
C      1  0.6418490000000  0.4380680000000  0.4467940000000 1.0
C      1  0.4027630000000  0.5383180000000  0.4455570000000 1.0
C      1  0.5253840000000  0.5467470000000  0.4741610000000 1.0
C      1  0.5755770000000  0.4598650000000  0.4578150000000 1.0
C      1  0.4218540000000  0.5663990000000  0.4847660000000 1.0
C      1  0.4683920000000  0.5927650000000  0.4548190000000 1.0
C      1  0.4684930000000  0.5232520000000  0.5916210000000 1.0
C      1  0.5302580000000  0.5910270000000  0.4731900000000 1.0
C      1  0.4740540000000  0.6241290000000  0.5424680000000 1.0
C      1  0.5533740000000  0.4299590000000  0.5510600000000 1.0
C      1  0.5404530000000  0.5063050000000  0.5613930000000 1.0
C      1  0.4187590000000  0.4280620000000  0.4564430000000 1.0
C      1  0.5549470000000  0.5674180000000  0.4399900000000 1.0
C      1  0.4469120000000  0.5772040000000  0.4922840000000 1.0
C      1  0.3815710000000  0.4360600000000  0.5349520000000 1.0
C      1  0.4684570000000  0.5533090000000  0.5892670000000 1.0
C      1  0.4518340000000  0.4894440000000  0.5574310000000 1.0
C      1  0.5178220000000  0.5828430000000  0.4991650000000 1.0
C      1  0.5708720000000  0.4742450000000  0.5646610000000 1.0
C      1  0.5526540000000  0.5732720000000  0.5615780000000 1.0
C      1  0.4756840000000  0.4912970000000  0.5422490000000 1.0
C      1  0.4926740000000  0.4963240000000  0.3845740000000 1.0
C      1  0.4446210000000  0.5637040000000  0.5760190000000 1.0
C      1  0.4479470000000  0.5024230000000  0.4462310000000 1.0
C      1  0.4837560000000  0.4073880000000  0.4770500000000 1.0
C      1  0.3932800000000  0.5210740000000  0.4683390000000 1.0
C      1  0.5528600000000  0.4871990000000  0.5456160000000 1.0
C      1  0.3802230000000  0.4454580000000  0.5599730000000 1.0
C      1  0.4337230000000  0.4226360000000  0.4800770000000 1.0
C      1  0.4588700000000  0.6235590000000  0.4933460000000 1.0
C      1  0.5187470000000  0.4176890000000  0.5118020000000 1.0
C      1  0.5267650000000  0.4829630000000  0.4137160000000 1.0
C      1  0.4538430000000  0.4492580000000  0.4304020000000 1.0
C      1  0.4929750000000  0.5203490000000  0.4943570000000 1.0
C      1  0.5409050000000  0.4256110000000  0.4730870000000 1.0
C      1  0.6214720000000  0.4450570000000  0.4622240000000 1.0
C      1  0.5892770000000  0.4565790000000  0.5228820000000 1.0
C      1  0.5191410000000  0.5200850000000  0.6001350000000 1.0
C      1  0.5358680000000  0.5873430000000  0.5211650000000 1.0
C      1  0.4600970000000  0.4699650000000  0.4118810000000 1.0
C      1  0.4377250000000  0.4811750000000  0.6006040000000 1.0
C      1  0.4483190000000  0.4372070000000  0.5519860000000 1.0
C      1  0.5934340000000  0.5479160000000  0.5469970000000 1.0
C      1  0.4932100000000  0.3999350000000  0.4509880000000 1.0
C      1  0.4368350000000  0.5602780000000  0.5485580000000 1.0
C      1  0.5110090000000  0.4509000000000  0.5496210000000 1.0
C      1  0.5268100000000  0.4497360000000  0.4628330000000 1.0
C      1  0.4937320000000  0.4892880000000  0.4563900000000 1.0
C      1  0.5750210000000  0.5711130000000  0.4897950000000 1.0
C      1  0.4631600000000  0.4298810000000  0.4769020000000 1.0
C      1  0.5620180000000  0.4814410000000  0.5919820000000 1.0
C      1  0.5359140000000  0.5374990000000  0.5244190000000 1.0
C      1  0.5395230000000  0.4073580000000  0.4510720000000 1.0
C      1  0.4931460000000  0.5576320000000  0.5022560000000 1.0
C      1  0.4793370000000  0.5378320000000  0.5438850000000 1.0
C      1  0.6114520000000  0.4984340000000  0.4991070000000 1.0
C      1  0.4982290000000  0.4606640000000  0.4568230000000 1.0
C      1  0.5365710000000  0.5423740000000  0.4983290000000 1.0
C      1  0.5991520000000  0.4578180000000  0.4731750000000 1.0
C      1  0.5202350000000  0.5045080000000  0.4872590000000 1.0
C      1  0.4460300000000  0.4933990000000  0.4186110000000 1.0
C      1  0.5461560000000  0.4230500000000  0.5014650000000 1.0
C      1  0.6776860000000  0.4340460000000  0.4086330000000 1.0
C      1  0.5105370000000  0.4421750000000  0.5232630000000 1.0
C      1  0.5918450000000  0.5467870000000  0.4837310000000 1.0
C      1  0.5945340000000  0.4717440000000  0.5485740000000 1.0
C      1  0.5149940000000  0.5889110000000  0.4487340000000 1.0
C      1  0.4818460000000  0.4724460000000  0.5021370000000 1.0
C      1  0.4645750000000  0.4519260000000  0.4968850000000 1.0
C      1  0.4209500000000  0.4654140000000  0.5824060000000 1.0
C      1  0.4084890000000  0.5198320000000  0.4208020000000 1.0
C      1  0.4666180000000  0.5642770000000  0.5082890000000 1.0
C      1  0.4749190000000  0.4480200000000  0.6136440000000 1.0
C      1  0.4729020000000  0.4453870000000  0.4518820000000 1.0
C      1  0.5574980000000  0.5808430000000  0.4673030000000 1.0
C      1  0.5200780000000  0.5016190000000  0.3926360000000 1.0
C      1  0.4654050000000  0.6309500000000  0.5181900000000 1.0
C      1  0.5795590000000  0.5317850000000  0.4618720000000 1.0
C      1  0.4305120000000  0.4922880000000  0.4667430000000 1.0
C      1  0.5371680000000  0.5192410000000  0.3810210000000 1.0
C      1  0.5274230000000  0.5703460000000  0.4284560000000 1.0
C      1  0.5092510000000  0.4586010000000  0.4091770000000 1.0
C      1  0.4072310000000  0.5525310000000  0.5053500000000 1.0
C      1  0.5000910000000  0.5485280000000  0.4605930000000 1.0
C      1  0.4586570000000  0.5313470000000  0.3973770000000 1.0
C      1  0.5219550000000  0.5499050000000  0.5957050000000 1.0
C      1  0.4024560000000  0.4952150000000  0.4590710000000 1.0
C      1  0.5004330000000  0.5266970000000  0.5575620000000 1.0
C      1  0.4419850000000  0.4189030000000  0.5303290000000 1.0
C      1  0.5488020000000  0.4643160000000  0.4507960000000 1.0
C      1  0.5715650000000  0.4704140000000  0.6149570000000 1.0
C      1  0.4145460000000  0.5616700000000  0.4572180000000 1.0
C      1  0.3996870000000  0.4915800000000  0.4303520000000 1.0
C      1  0.5269970000000  0.4836540000000  0.5049860000000 1.0
C      1  0.5128550000000  0.4310950000000  0.4164680000000 1.0
C      1  0.4974020000000  0.4011390000000  0.5017970000000 1.0
C      1  0.4786640000000  0.4987840000000  0.5135240000000 1.0
C      1  0.4965560000000  0.4747440000000  0.5536100000000 1.0
C      1  0.6605510000000  0.4349710000000  0.4282610000000 1.0
C      1  0.4498740000000  0.5026930000000  0.5844550000000 1.0
C      1  0.5722510000000  0.5451370000000  0.4381380000000 1.0
C      1  0.5411720000000  0.5022560000000  0.5904730000000 1.0
C      1  0.6048560000000  0.5235700000000  0.5501020000000 1.0
C      1  0.4572790000000  0.3950230000000  0.5300930000000 1.0
C      1  0.6013680000000  0.4702760000000  0.4990400000000 1.0
C      1  0.5681550000000  0.5014200000000  0.4993590000000 1.0
C      1  0.4647470000000  0.5258820000000  0.4456040000000 1.0
C      1  0.5651610000000  0.4350690000000  0.5233160000000 1.0
C      1  0.4553710000000  0.4663700000000  0.6172220000000 1.0
C      1  0.5137400000000  0.4270610000000  0.5885880000000 1.0
C      1  0.5153470000000  0.4092660000000  0.4354380000000 1.0
C      1  0.5513610000000  0.4880450000000  0.5177420000000 1.0
C      1  0.4748850000000  0.5398170000000  0.4204790000000 1.0
C      1  0.4855970000000  0.4319500000000  0.5928550000000 1.0
C      1  0.4901610000000  0.5755030000000  0.4535180000000 1.0
C      1  0.4129170000000  0.5588790000000  0.5329520000000 1.0
C      1  0.4240380000000  0.4227590000000  0.5077100000000 1.0
C      1  0.5294940000000  0.5877350000000  0.5499850000000 1.0
C      1  0.4952010000000  0.5160420000000  0.5843480000000 1.0
C      1  0.4811850000000  0.3875110000000  0.5204270000000 1.0
C      1  0.3973760000000  0.4285440000000  0.5147110000000 1.0
C      1  0.4849420000000  0.5230530000000  0.4655610000000 1.0
C      1  0.4318650000000  0.4914600000000  0.4949420000000 1.0
C      1  0.3988390000000  0.5265290000000  0.4967010000000 1.0
C      1  0.5743170000000  0.5684950000000  0.5425910000000 1.0
C      1  0.6090470000000  0.4966820000000  0.5492820000000 1.0
C      1  0.5045100000000  0.5874720000000  0.5662140000000 1.0
C      1  0.4340790000000  0.5174930000000  0.4056940000000 1.0
C      1  0.4860730000000  0.6079280000000  0.5598670000000 1.0
C      1  0.5404620000000  0.5507990000000  0.5731430000000 1.0
C      1  0.4743890000000  0.5169590000000  0.3783210000000 1.0
C      1  0.4972680000000  0.5663090000000  0.5871460000000 1.0
C      1  0.6090170000000  0.5261560000000  0.4964660000000 1.0
C      1  0.4596740000000  0.5539910000000  0.5331770000000 1.0
C      1  0.5377580000000  0.5055220000000  0.4626800000000 1.0
C      1  0.4847630000000  0.4711700000000  0.3977770000000 1.0
C      1  0.4378590000000  0.4633290000000  0.5581190000000 1.0
C      1  0.5386520000000  0.4881510000000  0.4391080000000 1.0
C      1  0.5036480000000  0.5529200000000  0.4170330000000 1.0
C      1  0.4131490000000  0.5051150000000  0.5093160000000 1.0
C      1  0.4251390000000  0.4449900000000  0.4344470000000 1.0
C      1  0.4674500000000  0.4275840000000  0.5712140000000 1.0
C      1  0.5287110000000  0.4355950000000  0.5657740000000 1.0
C      1  0.5649670000000  0.5783140000000  0.5164450000000 1.0
END
