TITL C-612606-7351-214 -0.0101288602675016 125000 -1035.35836255995 0 0 170 (C1) n - 1
REM
REM in /home/nfs/bkarasulu/CARBON/AIRSS/Generating-Clusters/TERSOFF/Only-C1/FIRE-HFTN
REM
REM
REM
REM
REM
REM ./C.cell (11c1c37f851c82e70ff6c80c92926a4b)
REM AIRSS Version 0.9.1 bugfix July 2018 build 013d7b7c2542+ Fri, 06 Jul 2018 19:26:36 +0100
REM compiler GCC version 9.2.1 20190827 (Red Hat 9.2.1-1)
REM options -cpp -mtune=generic -march=x86-64 -g -O0 -fpre-include=/usr/include/finclude/math-vector-fortran.h
REM seed -1176570035 -738128754 927087064 -228988382 1058161252 857840304 -1166473758 622124011 -1431929221 2098155745 -1283675060 1555835485 1107361469 1098399856 -959617628 522905926 -2029874278 1413453899 1717756785 414040973 -625737088 1113232235 -954012106 -480216588 -957489881 1733266850 -1226072610 2105478977 195937623 -273716504 -991106136 819756097 337335772
REM
CELL 1.54180   50.00000   50.00000   50.00000   90.00000   90.00000   90.00000
LATT -1
SFAC C  
C      1  0.3632030000000  0.4657000000000  0.4052330000000 1.0
C      1  0.4387750000000  0.5384210000000  0.4167740000000 1.0
C      1  0.5370600000000  0.3336810000000  0.4545600000000 1.0
C      1  0.4291720000000  0.5791430000000  0.5226990000000 1.0
C      1  0.4343060000000  0.4532430000000  0.5279630000000 1.0
C      1  0.5322930000000  0.4497550000000  0.5190620000000 1.0
C      1  0.5341840000000  0.5526980000000  0.6406190000000 1.0
C      1  0.4110490000000  0.4221970000000  0.5536810000000 1.0
C      1  0.5405950000000  0.5328030000000  0.4599510000000 1.0
C      1  0.5257980000000  0.4566130000000  0.4717480000000 1.0
C      1  0.4822780000000  0.4592300000000  0.5396920000000 1.0
C      1  0.4691840000000  0.6309370000000  0.5163960000000 1.0
C      1  0.4990060000000  0.4880510000000  0.4922750000000 1.0
C      1  0.3794100000000  0.4790900000000  0.4874020000000 1.0
C      1  0.5675410000000  0.5186980000000  0.4105270000000 1.0
C      1  0.4718280000000  0.5304600000000  0.5426800000000 1.0
C      1  0.5136680000000  0.5304500000000  0.5760720000000 1.0
C      1  0.5376090000000  0.4506520000000  0.6215440000000 1.0
C      1  0.4969710000000  0.5136960000000  0.3933820000000 1.0
C      1  0.4325140000000  0.4528400000000  0.5926810000000 1.0
C      1  0.5930790000000  0.4719760000000  0.4586510000000 1.0
C      1  0.4773680000000  0.4341770000000  0.4873670000000 1.0
C      1  0.5084670000000  0.5684400000000  0.4020360000000 1.0
C      1  0.4122210000000  0.4511070000000  0.5489310000000 1.0
C      1  0.4936080000000  0.3859350000000  0.4795410000000 1.0
C      1  0.5309900000000  0.4884540000000  0.4241570000000 1.0
C      1  0.3830980000000  0.4635820000000  0.4659200000000 1.0
C      1  0.4556090000000  0.4708880000000  0.5360000000000 1.0
C      1  0.5298280000000  0.4308160000000  0.6049780000000 1.0
C      1  0.4351110000000  0.5177780000000  0.5058130000000 1.0
C      1  0.4860390000000  0.4111080000000  0.4303880000000 1.0
C      1  0.4867950000000  0.5372410000000  0.5672710000000 1.0
C      1  0.5716600000000  0.5803800000000  0.5713540000000 1.0
C      1  0.5932030000000  0.5074560000000  0.4167770000000 1.0
C      1  0.4104690000000  0.4775320000000  0.4048740000000 1.0
C      1  0.5317150000000  0.5516650000000  0.4023520000000 1.0
C      1  0.5912070000000  0.5642570000000  0.4521390000000 1.0
C      1  0.5057990000000  0.4536700000000  0.4512550000000 1.0
C      1  0.5750020000000  0.5251720000000  0.4923720000000 1.0
C      1  0.5350740000000  0.6087230000000  0.5474720000000 1.0
C      1  0.4810830000000  0.5667650000000  0.4027810000000 1.0
C      1  0.5594080000000  0.5155950000000  0.5660670000000 1.0
C      1  0.4795140000000  0.5073680000000  0.4165150000000 1.0
C      1  0.6132400000000  0.5106940000000  0.3981800000000 1.0
C      1  0.5332760000000  0.5612350000000  0.4571120000000 1.0
C      1  0.5543610000000  0.6210950000000  0.5894160000000 1.0
C      1  0.4567650000000  0.4376310000000  0.5893270000000 1.0
C      1  0.5154330000000  0.5184870000000  0.6030520000000 1.0
C      1  0.5757150000000  0.4692940000000  0.5653260000000 1.0
C      1  0.5072320000000  0.4300630000000  0.5879930000000 1.0
C      1  0.6059290000000  0.4896650000000  0.5053300000000 1.0
C      1  0.4997210000000  0.4578820000000  0.4007250000000 1.0
C      1  0.4628760000000  0.5840990000000  0.5554800000000 1.0
C      1  0.5445630000000  0.5532550000000  0.5390980000000 1.0
C      1  0.4342140000000  0.5276830000000  0.6100340000000 1.0
C      1  0.5608070000000  0.5478300000000  0.4116690000000 1.0
C      1  0.4240780000000  0.5225840000000  0.4796410000000 1.0
C      1  0.5266150000000  0.5294350000000  0.5041590000000 1.0
C      1  0.4338010000000  0.4905790000000  0.4127180000000 1.0
C      1  0.4424880000000  0.4385480000000  0.4388230000000 1.0
C      1  0.4928790000000  0.5967500000000  0.4614630000000 1.0
C      1  0.4960380000000  0.4952980000000  0.3714450000000 1.0
C      1  0.5050000000000  0.5023300000000  0.5364880000000 1.0
C      1  0.4150350000000  0.4350210000000  0.4414160000000 1.0
C      1  0.4538970000000  0.5708170000000  0.5784380000000 1.0
C      1  0.5808380000000  0.5783360000000  0.5048280000000 1.0
C      1  0.4598700000000  0.5273490000000  0.5160710000000 1.0
C      1  0.4606720000000  0.5346460000000  0.6097900000000 1.0
C      1  0.5835160000000  0.4461220000000  0.4991420000000 1.0
C      1  0.4870790000000  0.4763560000000  0.5987830000000 1.0
C      1  0.4531430000000  0.4896280000000  0.5588920000000 1.0
C      1  0.4957320000000  0.6224160000000  0.5104720000000 1.0
C      1  0.4034010000000  0.5320560000000  0.5414090000000 1.0
C      1  0.5604090000000  0.4524350000000  0.5143090000000 1.0
C      1  0.4684960000000  0.5990560000000  0.4472910000000 1.0
C      1  0.5099380000000  0.5082270000000  0.5104410000000 1.0
C      1  0.4778980000000  0.4885380000000  0.5744310000000 1.0
C      1  0.3799660000000  0.4969370000000  0.5073380000000 1.0
C      1  0.4259980000000  0.4942720000000  0.5671810000000 1.0
C      1  0.6050240000000  0.5151450000000  0.5484220000000 1.0
C      1  0.5073420000000  0.4981180000000  0.4651710000000 1.0
C      1  0.5229970000000  0.5244640000000  0.3965440000000 1.0
C      1  0.4721030000000  0.4559580000000  0.4072560000000 1.0
C      1  0.5260590000000  0.4260090000000  0.5347570000000 1.0
C      1  0.5140710000000  0.4134050000000  0.4225620000000 1.0
C      1  0.4836420000000  0.4469340000000  0.5974020000000 1.0
C      1  0.4240480000000  0.6060380000000  0.5148640000000 1.0
C      1  0.5045700000000  0.5714840000000  0.5163320000000 1.0
C      1  0.5280270000000  0.4756240000000  0.6248160000000 1.0
C      1  0.6383820000000  0.4013870000000  0.4841750000000 1.0
C      1  0.4989730000000  0.6130900000000  0.4837180000000 1.0
C      1  0.4791060000000  0.3909470000000  0.5045140000000 1.0
C      1  0.5081030000000  0.5735340000000  0.4552050000000 1.0
C      1  0.5350070000000  0.4024380000000  0.5214060000000 1.0
C      1  0.4876480000000  0.3809790000000  0.5298360000000 1.0
C      1  0.5274590000000  0.4759440000000  0.5655170000000 1.0
C      1  0.5849520000000  0.5565020000000  0.5715990000000 1.0
C      1  0.5797490000000  0.5622560000000  0.4273420000000 1.0
C      1  0.4690010000000  0.4873660000000  0.4888230000000 1.0
C      1  0.5601900000000  0.4370120000000  0.4357950000000 1.0
C      1  0.4781630000000  0.5241310000000  0.4427130000000 1.0
C      1  0.4376110000000  0.4120810000000  0.5476850000000 1.0
C      1  0.4556180000000  0.5623710000000  0.4155890000000 1.0
C      1  0.5214050000000  0.3781540000000  0.4809390000000 1.0
C      1  0.4496670000000  0.4832300000000  0.4676350000000 1.0
C      1  0.4829840000000  0.3944260000000  0.4539820000000 1.0
C      1  0.4688900000000  0.5411710000000  0.4666290000000 1.0
C      1  0.5854640000000  0.5285240000000  0.5642800000000 1.0
C      1  0.4261660000000  0.5650760000000  0.5826850000000 1.0
C      1  0.6138190000000  0.4094480000000  0.4874630000000 1.0
C      1  0.5682620000000  0.4598220000000  0.4512110000000 1.0
C      1  0.5778740000000  0.5711530000000  0.4765010000000 1.0
C      1  0.4802960000000  0.4481000000000  0.4633430000000 1.0
C      1  0.4997070000000  0.3902280000000  0.5525870000000 1.0
C      1  0.5294150000000  0.3548280000000  0.4677290000000 1.0
C      1  0.5482990000000  0.5283270000000  0.4865330000000 1.0
C      1  0.3868770000000  0.5156010000000  0.5252520000000 1.0
C      1  0.5878270000000  0.4191060000000  0.4906380000000 1.0
C      1  0.5068940000000  0.4198770000000  0.5582590000000 1.0
C      1  0.4613150000000  0.4833020000000  0.4111140000000 1.0
C      1  0.4724190000000  0.5441320000000  0.4956350000000 1.0
C      1  0.5468400000000  0.4739530000000  0.4635010000000 1.0
C      1  0.5537760000000  0.4870570000000  0.5673160000000 1.0
C      1  0.4427130000000  0.6258690000000  0.5143640000000 1.0
C      1  0.3980300000000  0.5636360000000  0.4708820000000 1.0
C      1  0.4138540000000  0.5203940000000  0.5660050000000 1.0
C      1  0.5399340000000  0.4211450000000  0.4266720000000 1.0
C      1  0.5160010000000  0.4623660000000  0.4984150000000 1.0
C      1  0.5985640000000  0.4680170000000  0.4874980000000 1.0
C      1  0.5493960000000  0.6087650000000  0.4715410000000 1.0
C      1  0.5336650000000  0.4992490000000  0.4515760000000 1.0
C      1  0.5992880000000  0.5148200000000  0.4947610000000 1.0
C      1  0.5804630000000  0.6070230000000  0.5074710000000 1.0
C      1  0.5641190000000  0.6213840000000  0.4908280000000 1.0
C      1  0.5424770000000  0.5055050000000  0.4053700000000 1.0
C      1  0.5247800000000  0.5355440000000  0.6234060000000 1.0
C      1  0.4645750000000  0.4307890000000  0.4210840000000 1.0
C      1  0.4311870000000  0.5133150000000  0.4301190000000 1.0
C      1  0.6072320000000  0.4900380000000  0.5342450000000 1.0
C      1  0.3931080000000  0.4528790000000  0.4418750000000 1.0
C      1  0.5384270000000  0.5347150000000  0.5612530000000 1.0
C      1  0.5244010000000  0.5527030000000  0.5196220000000 1.0
C      1  0.5657430000000  0.4021380000000  0.4857680000000 1.0
C      1  0.5040240000000  0.4695180000000  0.3753140000000 1.0
C      1  0.5997280000000  0.4928880000000  0.4405530000000 1.0
C      1  0.5088650000000  0.4911360000000  0.6108820000000 1.0
C      1  0.4120770000000  0.5578560000000  0.5314300000000 1.0
C      1  0.5979360000000  0.4685060000000  0.5500240000000 1.0
C      1  0.4548750000000  0.4584420000000  0.4553240000000 1.0
C      1  0.4574250000000  0.5773090000000  0.5286010000000 1.0
C      1  0.4433610000000  0.4250980000000  0.5210720000000 1.0
C      1  0.4709500000000  0.5496780000000  0.5877930000000 1.0
C      1  0.4461090000000  0.5591990000000  0.4606920000000 1.0
C      1  0.4185840000000  0.5378810000000  0.5883070000000 1.0
C      1  0.4324990000000  0.5048910000000  0.4586390000000 1.0
C      1  0.4775840000000  0.5684370000000  0.5102910000000 1.0
C      1  0.4996550000000  0.4799600000000  0.5541300000000 1.0
C      1  0.4813780000000  0.4328460000000  0.5496400000000 1.0
C      1  0.5536900000000  0.6028130000000  0.5687210000000 1.0
C      1  0.5408850000000  0.3932200000000  0.4955570000000 1.0
C      1  0.4214160000000  0.5497940000000  0.4710590000000 1.0
C      1  0.5520820000000  0.5807780000000  0.4669160000000 1.0
C      1  0.3878940000000  0.4654990000000  0.4167540000000 1.0
C      1  0.4585430000000  0.4228540000000  0.5644970000000 1.0
C      1  0.4644750000000  0.4158470000000  0.5041370000000 1.0
C      1  0.5162060000000  0.6184690000000  0.5304050000000 1.0
C      1  0.4167400000000  0.4672050000000  0.5727080000000 1.0
C      1  0.5688740000000  0.5636150000000  0.5265890000000 1.0
C      1  0.4521300000000  0.5774180000000  0.4399200000000 1.0
C      1  0.5143140000000  0.4647170000000  0.4243430000000 1.0
END
